################################################################################
# PkgEval set-up: 2020-10-30T03:37:06.953
#

Julia Version 1.6.0-DEV.1363
Commit f727f4ba82 (2020-10-28 23:50 UTC)
Platform Info:
  OS: Linux (x86_64-linux-gnu)
  CPU: AMD EPYC 7502 32-Core Processor
  WORD_SIZE: 64
  LIBM: libopenlibm
  LLVM: libLLVM-11.0.0 (ORCJIT, znver2)
Environment:
  JULIA_DEPOT_PATH = ::/usr/local/share/julia
  JULIA_MAX_NUM_PRECOMPILE_FILES = 9223372036854775807



################################################################################
# Installation: 2020-10-30T03:37:07.836
#

   Resolving package versions...
   Installed Reexport ───────────────────── v0.2.0
   Installed FFTW ───────────────────────── v1.2.4
   Installed IntelOpenMP_jll ────────────── v2018.0.3+0
   Installed AbstractFFTs ───────────────── v0.5.0
   Installed GenericSVD ─────────────────── v0.3.0
   Installed CompilerSupportLibraries_jll ─ v0.3.4+0
   Installed BinaryProvider ─────────────── v0.5.10
   Installed TwoFAST ────────────────────── v0.1.3
   Installed MKL_jll ────────────────────── v2020.2.254+0
   Installed ArbNumerics ────────────────── v1.2.1
   Installed SpecialFunctions ───────────── v0.10.3
   Installed FFTW_jll ───────────────────── v3.3.9+6
   Installed JLLWrappers ────────────────── v1.1.3
   Installed Readables ──────────────────── v0.3.3
   Installed OpenSpecFun_jll ────────────── v0.5.3+4
   Installed GenericSchur ───────────────── v0.4.0
Updating `~/.julia/environments/v1.6/Project.toml`
  [0dd23c3e] + TwoFAST v0.1.3
Updating `~/.julia/environments/v1.6/Manifest.toml`
  [621f4979] + AbstractFFTs v0.5.0
  [7e558dbc] + ArbNumerics v1.2.1
  [b99e7846] + BinaryProvider v0.5.10
  [7a1cc6ca] + FFTW v1.2.4
  [01680d73] + GenericSVD v0.3.0
  [c145ed77] + GenericSchur v0.4.0
  [692b3bcd] + JLLWrappers v1.1.3
  [0d4725de] + Readables v0.3.3
  [189a3867] + Reexport v0.2.0
  [276daf66] + SpecialFunctions v0.10.3
  [0dd23c3e] + TwoFAST v0.1.3
  [e66e0078] + CompilerSupportLibraries_jll v0.3.4+0
  [f5851436] + FFTW_jll v3.3.9+6
  [1d5cc7b8] + IntelOpenMP_jll v2018.0.3+0
  [856f044c] + MKL_jll v2020.2.254+0
  [efe28fd5] + OpenSpecFun_jll v0.5.3+4
  [0dad84c5] + ArgTools
  [56f22d72] + Artifacts
  [2a0f44e3] + Base64
  [ade2ca70] + Dates
  [8bb1440f] + DelimitedFiles
  [f43a241f] + Downloads
  [b77e0a4c] + InteractiveUtils
  [b27032c2] + LibCURL
  [76f85450] + LibGit2
  [8f399da3] + Libdl
  [37e2e46d] + LinearAlgebra
  [56ddb016] + Logging
  [d6f4376e] + Markdown
  [a63ad114] + Mmap
  [44cfe95a] + Pkg
  [de0858da] + Printf
  [3fa0cd96] + REPL
  [9a3f8284] + Random
  [ea8e919c] + SHA
  [9e88b42a] + Serialization
  [6462fe0b] + Sockets
  [fa267f1f] + TOML
  [8dfed614] + Test
  [cf7118a7] + UUIDs
  [4ec0a83e] + Unicode
  [deac9b47] + LibCURL_jll
  [14a3606d] + MozillaCACerts_jll
    Building FFTW ───────→ `~/.julia/scratchspaces/44cfe95a-1eb2-52ea-b672-e2afdf69b78f/8b7c16b56936047ca41bf25effa137ae0b381ae8/build.log`
    Building ArbNumerics → `~/.julia/scratchspaces/44cfe95a-1eb2-52ea-b672-e2afdf69b78f/329a81d67c64e3a51c176a243b6424fbe39213d0/build.log`


################################################################################
# Testing: 2020-10-30T03:37:38.988
#


     Testing TwoFAST
Status `/tmp/jl_zGXM83/Project.toml`
  [7e558dbc] ArbNumerics v1.2.1
  [39dd38d3] Dierckx v0.5.0
  [7a1cc6ca] FFTW v1.2.4
  [276daf66] SpecialFunctions v0.10.3
  [0dd23c3e] TwoFAST v0.1.3
  [8bb1440f] DelimitedFiles
  [37e2e46d] LinearAlgebra
  [56ddb016] Logging
  [8dfed614] Test
Status `/tmp/jl_zGXM83/Manifest.toml`
  [621f4979] AbstractFFTs v0.5.0
  [7e558dbc] ArbNumerics v1.2.1
  [b99e7846] BinaryProvider v0.5.10
  [39dd38d3] Dierckx v0.5.0
  [7a1cc6ca] FFTW v1.2.4
  [01680d73] GenericSVD v0.3.0
  [c145ed77] GenericSchur v0.4.0
  [692b3bcd] JLLWrappers v1.1.3
  [0d4725de] Readables v0.3.3
  [189a3867] Reexport v0.2.0
  [276daf66] SpecialFunctions v0.10.3
  [0dd23c3e] TwoFAST v0.1.3
  [e66e0078] CompilerSupportLibraries_jll v0.3.4+0
  [cd4c43a9] Dierckx_jll v0.0.1+0
  [f5851436] FFTW_jll v3.3.9+6
  [1d5cc7b8] IntelOpenMP_jll v2018.0.3+0
  [856f044c] MKL_jll v2020.2.254+0
  [efe28fd5] OpenSpecFun_jll v0.5.3+4
  [0dad84c5] ArgTools
  [56f22d72] Artifacts
  [2a0f44e3] Base64
  [ade2ca70] Dates
  [8bb1440f] DelimitedFiles
  [f43a241f] Downloads
  [b77e0a4c] InteractiveUtils
  [b27032c2] LibCURL
  [76f85450] LibGit2
  [8f399da3] Libdl
  [37e2e46d] LinearAlgebra
  [56ddb016] Logging
  [d6f4376e] Markdown
  [a63ad114] Mmap
  [44cfe95a] Pkg
  [de0858da] Printf
  [3fa0cd96] REPL
  [9a3f8284] Random
  [ea8e919c] SHA
  [9e88b42a] Serialization
  [6462fe0b] Sockets
  [fa267f1f] TOML
  [8dfed614] Test
  [cf7118a7] UUIDs
  [4ec0a83e] Unicode
  [deac9b47] LibCURL_jll
  [14a3606d] MozillaCACerts_jll
     Testing Running tests...
WARNING: could not import Printf.ini_hex into ArbNumerics
WARNING: could not import Printf.ini_HEX into ArbNumerics
t = 0.0 sec (0 allocations: 0 byte, 0.0% gc time)
typeof(t) = NamedTuple{(:value, :time, :bytes, :gctime, :gcstats), Tuple{DataType, Float64, Int64, Float64, Base.GC_Diff}}
TwoFAST.PerformanceStats.TimedType = Union{NamedTuple{(:value, :time, :bytes, :gctime, :gcstats), Tuple{T, Float64, Int64, Float64, Base.GC_Diff}}, Tuple{Any, Float64, Int64, Float64, Base.GC_Diff}} where T
t = 0.0 sec (0 allocations: 0 byte, 0.0% gc time)
t: 0.0 sec (0 allocations: 0 byte, 0.0% gc time)
Testing ξ(r), ℓ=0, ν=-1 ... passed
Testing ξ(r), ℓ=0, ν=0 ... passed
Testing ξ(r), ℓ=0, ν=1 ... passed
Testing ξ(r), ℓ=0, ν=2 ... passed
Testing ξ(r), ℓ=0, ν=3 ... passed
Testing ξ(r), ℓ=1, ν=0 ... passed
Testing ξ(r), ℓ=1, ν=1 ... passed
Testing ξ(r), ℓ=1, ν=2 ... passed
Testing ξ(r), ℓ=1, ν=3 ... passed
Testing ξ(r), ℓ=2, ν=-1 ... passed
Testing ξ(r), ℓ=2, ν=0 ... passed
Testing ξ(r), ℓ=2, ν=1 ... passed
Testing ξ(r), ℓ=2, ν=2 ... passed
Testing ξ(r), ℓ=2, ν=3 ... passed
Testing ξ(r), ℓ=3, ν=-1 ... passed
Testing ξ(r), ℓ=3, ν=0 ... passed
Testing ξ(r), ℓ=3, ν=1 ... passed
Testing ξ(r), ℓ=3, ν=2 ... passed
Testing ξ(r), ℓ=3, ν=3 ... passed
Testing ξ(r), ℓ=4, ν=-1 ... passed
Testing ξ(r), ℓ=4, ν=0 ... passed
Testing ξ(r), ℓ=4, ν=1 ... passed
Testing ξ(r), ℓ=4, ν=2 ... passed
Testing ξ(r), ℓ=4, ν=3 ... passed
Testing ξ(r) ... passed
Testing ξ′(r) ... passed
Testing ξ″(r) ... passed
Calculating fmax: 
  dlrec    = 4
  dlrecRg1 = -4
  q=1.1, R=1.1:	  2.812620 seconds (858.50 k allocations: 55.076 MiB, 0.67% gc time, 91.99% compilation time)

  2.812768 seconds (858.57 k allocations: 55.111 MiB, 0.67% gc time, 91.99% compilation time)
ℓ = 1202
Δℓ = 4
ΔℓRg1 = -4
N = 1600
q = 1.1
kmin = 1.0e-5
kmax = 100000.00000000004
χ0 = 0.023029999999999995
RR = RR.tsv
ℓmax = ℓmax.bin
f21 = f21.bin
kmin = 1.0e-5
kmax = 100000.0
dlrec    = 4
dlrecRg1 = -4
Output size: 5741568 bytes = 0.005347251892089844 GiB
Output size: 51264 bytes = 4.774332046508789e-5 GiB
Reading 'out/F21EllCache'...   0.583377 seconds (433.74 k allocations: 25.636 MiB, 3.23% gc time, 99.62% compilation time)
ellmax: 1202
lmaxcache: 1202
fell[:,1,1] = ComplexF64[3.9583795592771634e-52 - 9.695233714158177e-68im, 3.990121772925759e-52 - 9.772979714843386e-68im]
ell 1202, elapsed: 8.702278137207031e-5
ell 1201, elapsed: 1.1288259029388428
ell 1200, elapsed: 0.00043892860412597656
ell 1199, elapsed: 0.0004189014434814453
ell 1198, elapsed: 0.0004138946533203125
ell 1002, elapsed: 0.008594989776611328
ell 1001, elapsed: 0.0004000663757324219
ell 1000, elapsed: 0.0003960132598876953
ell 999, elapsed: 0.0003859996795654297
ell 998, elapsed: 0.0003898143768310547
ell 902, elapsed: 0.004415988922119141
ell 901, elapsed: 0.0004031658172607422
ell 900, elapsed: 0.0004019737243652344
ell 899, elapsed: 0.0003941059112548828
ell 898, elapsed: 0.0004181861877441406
ell 802, elapsed: 0.004381895065307617
ell 801, elapsed: 0.0004010200500488281
ell 800, elapsed: 0.0004000663757324219
ell 799, elapsed: 0.00039315223693847656
ell 798, elapsed: 0.0003979206085205078
ell 702, elapsed: 0.004420042037963867
ell 701, elapsed: 0.0004019737243652344
ell 700, elapsed: 0.0003790855407714844
ell 699, elapsed: 0.0003819465637207031
ell 698, elapsed: 0.0004048347473144531
ell 602, elapsed: 0.004364967346191406
ell 601, elapsed: 0.00039505958557128906
ell 600, elapsed: 0.00039505958557128906
ell 599, elapsed: 0.00038909912109375
ell 598, elapsed: 0.0003838539123535156
ell 502, elapsed: 0.004336118698120117
ell 501, elapsed: 0.0004000663757324219
ell 500, elapsed: 0.0003910064697265625
ell 499, elapsed: 0.0003941059112548828
ell 498, elapsed: 0.0003910064697265625
ell 402, elapsed: 0.0044708251953125
ell 401, elapsed: 0.00040721893310546875
ell 400, elapsed: 0.0004010200500488281
ell 399, elapsed: 0.0003960132598876953
ell 398, elapsed: 0.00039887428283691406
ell 302, elapsed: 0.004405975341796875
ell 301, elapsed: 0.00039005279541015625
ell 300, elapsed: 0.00038695335388183594
ell 299, elapsed: 0.0004200935363769531
ell 298, elapsed: 0.0003840923309326172
ell 202, elapsed: 0.0043849945068359375
ell 201, elapsed: 0.0003941059112548828
ell 200, elapsed: 0.00039196014404296875
ell 199, elapsed: 0.00039005279541015625
ell 198, elapsed: 0.00039196014404296875
ell 152, elapsed: 0.0023508071899414062
ell 151, elapsed: 0.00039505958557128906
ell 150, elapsed: 0.0003960132598876953
ell 149, elapsed: 0.0003921985626220703
ell 148, elapsed: 0.0003910064697265625
ell 127, elapsed: 0.001302957534790039
ell 126, elapsed: 0.00039386749267578125
ell 125, elapsed: 0.000392913818359375
ell 124, elapsed: 0.00038886070251464844
ell 123, elapsed: 0.00038909912109375
ell 114, elapsed: 0.000782012939453125
ell 113, elapsed: 0.0003879070281982422
ell 112, elapsed: 0.00039005279541015625
ell 111, elapsed: 0.00039196014404296875
ell 110, elapsed: 0.00045490264892578125
ell 102, elapsed: 0.0007350444793701172
ell 101, elapsed: 0.0003960132598876953
ell 100, elapsed: 0.00039196014404296875
ell 99, elapsed: 0.00039196014404296875
ell 98, elapsed: 0.0003910064697265625
ell 97, elapsed: 0.00043702125549316406
ell 96, elapsed: 0.00042891502380371094
ell 95, elapsed: 0.00046706199645996094
ell 94, elapsed: 0.00043010711669921875
ell 93, elapsed: 0.0004329681396484375
ell 92, elapsed: 0.0004298686981201172
ell 91, elapsed: 0.00043010711669921875
ell 90, elapsed: 0.0004451274871826172
ell 89, elapsed: 0.00043487548828125
ell 88, elapsed: 0.00043702125549316406
ell 87, elapsed: 0.0004210472106933594
ell 86, elapsed: 0.00045299530029296875
ell 85, elapsed: 0.0004508495330810547
ell 84, elapsed: 0.0004291534423828125
ell 83, elapsed: 0.0004341602325439453
ell 82, elapsed: 0.00043487548828125
ell 81, elapsed: 0.000431060791015625
ell 80, elapsed: 0.00043392181396484375
ell 79, elapsed: 0.00043201446533203125
ell 78, elapsed: 0.00043487548828125
ell 77, elapsed: 0.0004911422729492188
ell 76, elapsed: 0.0004329681396484375
ell 75, elapsed: 0.0004429817199707031
ell 74, elapsed: 0.00043392181396484375
ell 73, elapsed: 0.0004448890686035156
ell 72, elapsed: 0.0004298686981201172
ell 71, elapsed: 0.0004279613494873047
ell 70, elapsed: 0.000431060791015625
ell 69, elapsed: 0.00045800209045410156
ell 68, elapsed: 0.0004420280456542969
ell 67, elapsed: 0.0004239082336425781
ell 66, elapsed: 0.00042891502380371094
ell 65, elapsed: 0.0004379749298095703
ell 64, elapsed: 0.0004298686981201172
ell 63, elapsed: 0.0004317760467529297
ell 62, elapsed: 0.0004429817199707031
ell 61, elapsed: 0.00043487548828125
ell 60, elapsed: 0.0004930496215820312
ell 59, elapsed: 0.00043702125549316406
ell 58, elapsed: 0.00045108795166015625
ell 57, elapsed: 0.0004298686981201172
ell 56, elapsed: 0.0004329681396484375
ell 55, elapsed: 0.0004439353942871094
ell 54, elapsed: 0.00043892860412597656
ell 53, elapsed: 0.00045800209045410156
ell 52, elapsed: 0.0004379749298095703
ell 51, elapsed: 0.0004868507385253906
ell 50, elapsed: 0.0004398822784423828
ell 49, elapsed: 0.00044608116149902344
ell 48, elapsed: 0.00045108795166015625
ell 47, elapsed: 0.0004398822784423828
ell 46, elapsed: 0.0004429817199707031
ell 45, elapsed: 0.0004429817199707031
ell 44, elapsed: 0.0004391670227050781
ell 43, elapsed: 0.00047397613525390625
ell 42, elapsed: 0.00043892860412597656
ell 41, elapsed: 0.0004470348358154297
ell 40, elapsed: 0.0004451274871826172
ell 39, elapsed: 0.0004401206970214844
ell 38, elapsed: 0.0004439353942871094
ell 37, elapsed: 0.0004420280456542969
ell 36, elapsed: 0.0004520416259765625
ell 35, elapsed: 0.0004401206970214844
ell 34, elapsed: 0.0004968643188476562
ell 33, elapsed: 0.0004470348358154297
ell 32, elapsed: 0.0004420280456542969
ell 31, elapsed: 0.00044608116149902344
ell 30, elapsed: 0.00043702125549316406
ell 29, elapsed: 0.0004410743713378906
ell 28, elapsed: 0.0004458427429199219
ell 27, elapsed: 0.0004379749298095703
ell 26, elapsed: 0.00047898292541503906
ell 25, elapsed: 0.00043892860412597656
ell 24, elapsed: 0.00044608116149902344
ell 23, elapsed: 0.0004551410675048828
ell 22, elapsed: 0.00044608116149902344
ell 21, elapsed: 0.0004470348358154297
ell 20, elapsed: 0.0004410743713378906
ell 19, elapsed: 0.0004379749298095703
ell 18, elapsed: 0.0004458427429199219
ell 17, elapsed: 0.00048804283142089844
ell 16, elapsed: 0.0004520416259765625
ell 15, elapsed: 0.0004451274871826172
ell 14, elapsed: 0.0004489421844482422
ell 13, elapsed: 0.00044989585876464844
ell 12, elapsed: 0.00044798851013183594
ell 11, elapsed: 0.00045490264892578125
ell 10, elapsed: 0.00045108795166015625
ell 9, elapsed: 0.0005061626434326172
ell 8, elapsed: 0.0004470348358154297
ell 7, elapsed: 0.0004470348358154297
ell 6, elapsed: 0.00045418739318847656
ell 5, elapsed: 0.0004429817199707031
ell 4, elapsed: 0.00045108795166015625
ell 3, elapsed: 0.00044608116149902344
ell 2, elapsed: 0.0004448890686035156
ell 1, elapsed: 0.0004458427429199219
ell 0, elapsed: 0.0004820823669433594
  1.624065 seconds (1.40 M allocations: 76.283 MiB, 2.76% gc time, 92.64% compilation time)
elapsed: 0.0005440711975097656
step:          0.305107 sec (315.761 k allocations: 17.395 MB, 0.0% gc time)
swapping:      0.000345 sec (0 allocations: 0 byte, 0.0% gc time)
calc_Mellell!: 0.1273 sec (137.693 k allocations: 7.624 MB, 0.0% gc time)
  t0 :  0.0 sec (0 allocations: 0 byte, 0.0% gc time)
  tm2 : 0.0 sec (0 allocations: 0 byte, 0.0% gc time)
  tm2s: 0.0 sec (0 allocations: 0 byte, 0.0% gc time)
  tm4 : 0.0 sec (0 allocations: 0 byte, 0.0% gc time)
  tp2 : 0.0 sec (0 allocations: 0 byte, 0.0% gc time)
  tp2s: 0.0 sec (0 allocations: 0 byte, 0.0% gc time)
  tp4 : 0.0 sec (0 allocations: 0 byte, 0.0% gc time)
calc_wtdll!:   0.800958 sec (515.001 k allocations: 28.646 MB, 3.41% gc time)
calc_wljj!:    0.002308 sec (6 allocations: 96 byte, 0.0% gc time)
mult_prefac!:  0.0 sec (0 allocations: 0 byte, 0.0% gc time)
convert:       0.0 sec (0 allocations: 0 byte, 0.0% gc time)
write:         0.003214 sec (0 allocations: 0 byte, 0.0% gc time)
test_rand_2f1: 0.0 sec (0 allocations: 0 byte, 0.0% gc time)
Closing outfile out/Ml21-cache.bin...   0.000010 seconds
  0.913599 seconds (251.69 k allocations: 14.634 MiB, 1.81% gc time, 41.34% compilation time)
make_phi():   0.008719 seconds (8.19 k allocations: 238.078 KiB)
  0.221575 seconds (89.37 k allocations: 4.883 MiB, 95.02% compilation time)
tskip:       1.9e-5 sec (0 allocations: 0 byte, 0.0% gc time)
tread:       0.001989 sec (17 allocations: 2.125 KB, 0.0% gc time)
tmultphi:    0.043683 sec (22.005 k allocations: 1.33 MB, 0.0% gc time)
tbrfft:      0.003068 sec (0 allocations: 0 byte, 0.0% gc time)
tmultprefac: 0.001459 sec (0 allocations: 0 byte, 0.0% gc time)
toutfunc:    0.135545 sec (65.704 k allocations: 3.421 MB, 0.0% gc time)
Testing R=1.1 ... passed
Calculating fmax: 
  dlrec    = 4
  dlrecRg1 = -4
  q=1.1, R=1.0:	  0.000901 seconds (3.20 k allocations: 275.344 KiB)

  0.000984 seconds (3.25 k allocations: 309.922 KiB)
ℓ = 1202
Δℓ = 4
ΔℓRg1 = -4
N = 1600
q = 1.1
kmin = 1.0e-5
kmax = 100000.00000000004
χ0 = 0.023029999999999995
RR = RR.tsv
ℓmax = ℓmax.bin
f21 = f21.bin
kmin = 1.0e-5
kmax = 100000.0
dlrec    = 4
dlrecRg1 = -4
Output size: 61465536 bytes = 0.05724424123764038 GiB
Output size: 51264 bytes = 4.774332046508789e-5 GiB
Reading 'out/F21EllCache'...   0.000583 seconds (197 allocations: 84.203 KiB)
ellmax: 1202
lmaxcache: 1202
fell[:,1,1] = ComplexF64[809.6031528389767 - 1.9829558194077161e-13im, 0.0 + 0.0im]
ell 1202, elapsed: 1.5020370483398438e-5
ell 1201, elapsed: 0.011169910430908203
ell 1200, elapsed: 0.011105060577392578
ell 1199, elapsed: 0.0002410411834716797
ell 1198, elapsed: 0.0002200603485107422
ell 1197, elapsed: 0.0002808570861816406
ell 1196, elapsed: 0.00024890899658203125
ell 1195, elapsed: 0.0002601146697998047
ell 1194, elapsed: 0.00024890899658203125
ell 1193, elapsed: 0.00024580955505371094
ell 1192, elapsed: 0.00024890899658203125
ell 1191, elapsed: 0.0002529621124267578
ell 1190, elapsed: 0.0002510547637939453
ell 1189, elapsed: 0.000247955322265625
ell 1188, elapsed: 0.00024890899658203125
ell 1187, elapsed: 0.00028705596923828125
ell 1186, elapsed: 0.0002548694610595703
ell 1185, elapsed: 0.00024700164794921875
ell 1184, elapsed: 0.00024890899658203125
ell 1183, elapsed: 0.00024509429931640625
ell 1182, elapsed: 0.00025391578674316406
ell 1181, elapsed: 0.00024390220642089844
ell 1180, elapsed: 0.00023889541625976562
ell 1179, elapsed: 0.00024390220642089844
ell 1178, elapsed: 0.000247955322265625
ell 1177, elapsed: 0.0002460479736328125
ell 1176, elapsed: 0.0002529621124267578
ell 1175, elapsed: 0.0002448558807373047
ell 1174, elapsed: 0.0002510547637939453
ell 1173, elapsed: 0.00026297569274902344
ell 1172, elapsed: 0.0002899169921875
ell 1171, elapsed: 0.0002510547637939453
ell 1170, elapsed: 0.00024390220642089844
ell 1169, elapsed: 0.00026798248291015625
ell 1168, elapsed: 0.000247955322265625
ell 1167, elapsed: 0.0002429485321044922
ell 1166, elapsed: 0.0002560615539550781
ell 1165, elapsed: 0.0002570152282714844
ell 1164, elapsed: 0.0002989768981933594
ell 1163, elapsed: 0.00031113624572753906
ell 1162, elapsed: 0.000308990478515625
ell 1161, elapsed: 0.00030994415283203125
ell 1160, elapsed: 0.0003039836883544922
ell 1159, elapsed: 0.00030803680419921875
ell 1158, elapsed: 0.00035381317138671875
ell 1157, elapsed: 0.00030517578125
ell 1156, elapsed: 0.00030994415283203125
ell 1155, elapsed: 0.00030112266540527344
ell 1154, elapsed: 0.00030803680419921875
ell 1153, elapsed: 0.00030517578125
ell 1152, elapsed: 0.00031685829162597656
ell 1151, elapsed: 0.0002999305725097656
ell 1150, elapsed: 0.0003018379211425781
ell 1149, elapsed: 0.00030303001403808594
ell 1148, elapsed: 0.0003027915954589844
ell 1147, elapsed: 0.00030684471130371094
ell 1146, elapsed: 0.00036907196044921875
ell 1145, elapsed: 0.00030303001403808594
ell 1144, elapsed: 0.0003108978271484375
ell 1143, elapsed: 0.00030612945556640625
ell 1142, elapsed: 0.000308990478515625
ell 1141, elapsed: 0.00030303001403808594
ell 1140, elapsed: 0.0003120899200439453
ell 1139, elapsed: 0.00030493736267089844
ell 1138, elapsed: 0.000308990478515625
ell 1137, elapsed: 0.00031304359436035156
ell 1136, elapsed: 0.0003039836883544922
ell 1135, elapsed: 0.00030612945556640625
ell 1134, elapsed: 0.00033593177795410156
ell 1133, elapsed: 0.0003018379211425781
ell 1132, elapsed: 0.0003120899200439453
ell 1131, elapsed: 0.0003027915954589844
ell 1130, elapsed: 0.0003020763397216797
ell 1129, elapsed: 0.00030493736267089844
ell 1128, elapsed: 0.0003039836883544922
ell 1127, elapsed: 0.0003020763397216797
ell 1126, elapsed: 0.0002989768981933594
ell 1125, elapsed: 0.00030803680419921875
ell 1124, elapsed: 0.0003039836883544922
ell 1123, elapsed: 0.0002968311309814453
ell 1122, elapsed: 0.0003409385681152344
ell 1121, elapsed: 0.0003001689910888672
ell 1120, elapsed: 0.0002961158752441406
ell 1119, elapsed: 0.00030493736267089844
ell 1118, elapsed: 0.0002970695495605469
ell 1117, elapsed: 0.0003070831298828125
ell 1116, elapsed: 0.0002980232238769531
ell 1115, elapsed: 0.00030303001403808594
ell 1114, elapsed: 0.00030684471130371094
ell 1113, elapsed: 0.0003008842468261719
ell 1112, elapsed: 0.00031304359436035156
ell 1111, elapsed: 0.0002999305725097656
ell 1110, elapsed: 0.0003001689910888672
ell 1109, elapsed: 0.0003609657287597656
ell 1108, elapsed: 0.0002999305725097656
ell 1107, elapsed: 0.00030994415283203125
ell 1106, elapsed: 0.0003070831298828125
ell 1105, elapsed: 0.0003020763397216797
ell 1104, elapsed: 0.00030684471130371094
ell 1103, elapsed: 0.0003008842468261719
ell 1102, elapsed: 0.0003058910369873047
ell 1101, elapsed: 0.0003008842468261719
ell 1100, elapsed: 0.0002989768981933594
ell 1099, elapsed: 0.00030994415283203125
ell 1098, elapsed: 0.0003039836883544922
ell 1097, elapsed: 0.00033092498779296875
ell 1096, elapsed: 0.0002980232238769531
ell 1095, elapsed: 0.00030493736267089844
ell 1094, elapsed: 0.0003008842468261719
ell 1093, elapsed: 0.0003001689910888672
ell 1092, elapsed: 0.0003020763397216797
ell 1091, elapsed: 0.0002980232238769531
ell 1090, elapsed: 0.0003039836883544922
ell 1089, elapsed: 0.0002989768981933594
ell 1088, elapsed: 0.0002999305725097656
ell 1087, elapsed: 0.0003077983856201172
ell 1086, elapsed: 0.00029921531677246094
ell 1085, elapsed: 0.0003108978271484375
ell 1084, elapsed: 0.00030493736267089844
ell 1083, elapsed: 0.0002999305725097656
ell 1082, elapsed: 0.00030517578125
ell 1081, elapsed: 0.0003008842468261719
ell 1080, elapsed: 0.00030684471130371094
ell 1079, elapsed: 0.0002989768981933594
ell 1078, elapsed: 0.00030612945556640625
ell 1077, elapsed: 0.0003070831298828125
ell 1076, elapsed: 0.0003039836883544922
ell 1075, elapsed: 0.00030517578125
ell 1074, elapsed: 0.00030803680419921875
ell 1073, elapsed: 0.0002989768981933594
ell 1072, elapsed: 0.0003631114959716797
ell 1071, elapsed: 0.00030517578125
ell 1070, elapsed: 0.0003070831298828125
ell 1069, elapsed: 0.0003039836883544922
ell 1068, elapsed: 0.0002980232238769531
ell 1067, elapsed: 0.0003039836883544922
ell 1066, elapsed: 0.0003001689910888672
ell 1065, elapsed: 0.00030303001403808594
ell 1064, elapsed: 0.00030303001403808594
ell 1063, elapsed: 0.0002980232238769531
ell 1062, elapsed: 0.00030303001403808594
ell 1061, elapsed: 0.0003008842468261719
ell 1060, elapsed: 0.0003209114074707031
ell 1059, elapsed: 0.0002999305725097656
ell 1058, elapsed: 0.0002980232238769531
ell 1057, elapsed: 0.0003027915954589844
ell 1056, elapsed: 0.0002980232238769531
ell 1055, elapsed: 0.00030303001403808594
ell 1054, elapsed: 0.0002911090850830078
ell 1053, elapsed: 0.0002989768981933594
ell 1052, elapsed: 0.0002970695495605469
ell 1051, elapsed: 0.00030612945556640625
ell 1050, elapsed: 0.0002529621124267578
ell 1049, elapsed: 0.0002429485321044922
ell 1048, elapsed: 0.0002410411834716797
ell 1047, elapsed: 0.0002830028533935547
ell 1046, elapsed: 0.0002410411834716797
ell 1045, elapsed: 0.0002429485321044922
ell 1044, elapsed: 0.00024008750915527344
ell 1043, elapsed: 0.0002429485321044922
ell 1042, elapsed: 0.00024199485778808594
ell 1041, elapsed: 0.0002410411834716797
ell 1040, elapsed: 0.0002429485321044922
ell 1039, elapsed: 0.00024390220642089844
ell 1038, elapsed: 0.0002410411834716797
ell 1037, elapsed: 0.00023794174194335938
ell 1036, elapsed: 0.00023794174194335938
ell 1035, elapsed: 0.00023889541625976562
ell 1034, elapsed: 0.00023698806762695312
ell 1033, elapsed: 0.00024199485778808594
ell 1032, elapsed: 0.00024008750915527344
ell 1031, elapsed: 0.0002651214599609375
ell 1030, elapsed: 0.00023889541625976562
ell 1029, elapsed: 0.00023818016052246094
ell 1028, elapsed: 0.00024199485778808594
ell 1027, elapsed: 0.0002357959747314453
ell 1026, elapsed: 0.00023698806762695312
ell 1025, elapsed: 0.00023889541625976562
ell 1024, elapsed: 0.00023794174194335938
ell 1023, elapsed: 0.0002410411834716797
ell 1022, elapsed: 0.00023889541625976562
ell 1021, elapsed: 0.00023698806762695312
ell 1020, elapsed: 0.0002410411834716797
ell 1019, elapsed: 0.0002391338348388672
ell 1018, elapsed: 0.0002391338348388672
ell 1017, elapsed: 0.0002338886260986328
ell 1016, elapsed: 0.0002357959747314453
ell 1015, elapsed: 0.0002579689025878906
ell 1014, elapsed: 0.00023889541625976562
ell 1013, elapsed: 0.0002410411834716797
ell 1012, elapsed: 0.00023818016052246094
ell 1011, elapsed: 0.00023889541625976562
ell 1010, elapsed: 0.00023984909057617188
ell 1009, elapsed: 0.00023698806762695312
ell 1008, elapsed: 0.00023984909057617188
ell 1007, elapsed: 0.0002391338348388672
ell 1006, elapsed: 0.00023603439331054688
ell 1005, elapsed: 0.0002410411834716797
ell 1004, elapsed: 0.00023698806762695312
ell 1003, elapsed: 0.0002491474151611328
ell 1002, elapsed: 0.00023889541625976562
ell 1001, elapsed: 0.0002391338348388672
ell 1000, elapsed: 0.0002429485321044922
ell 999, elapsed: 0.0002830028533935547
ell 998, elapsed: 0.00024008750915527344
ell 997, elapsed: 0.00023484230041503906
ell 996, elapsed: 0.00023603439331054688
ell 995, elapsed: 0.0002448558807373047
ell 994, elapsed: 0.0002338886260986328
ell 993, elapsed: 0.0002770423889160156
ell 992, elapsed: 0.0002968311309814453
ell 991, elapsed: 0.00027823448181152344
ell 990, elapsed: 0.00030684471130371094
ell 989, elapsed: 0.0002830028533935547
ell 988, elapsed: 0.00026988983154296875
ell 987, elapsed: 0.0002448558807373047
ell 986, elapsed: 0.00024390220642089844
ell 985, elapsed: 0.0002589225769042969
ell 984, elapsed: 0.0002429485321044922
ell 983, elapsed: 0.00024390220642089844
ell 982, elapsed: 0.0002429485321044922
ell 981, elapsed: 0.0002429485321044922
ell 980, elapsed: 0.00024318695068359375
ell 979, elapsed: 0.00024080276489257812
ell 978, elapsed: 0.000244140625
ell 977, elapsed: 0.00025010108947753906
ell 976, elapsed: 0.0002448558807373047
ell 975, elapsed: 0.00024390220642089844
ell 974, elapsed: 0.00024318695068359375
ell 973, elapsed: 0.00024700164794921875
ell 972, elapsed: 0.00024199485778808594
ell 971, elapsed: 0.00024509429931640625
ell 970, elapsed: 0.00024199485778808594
ell 969, elapsed: 0.00028705596923828125
ell 968, elapsed: 0.00024700164794921875
ell 967, elapsed: 0.000244140625
ell 966, elapsed: 0.0002448558807373047
ell 965, elapsed: 0.00024700164794921875
ell 964, elapsed: 0.00024199485778808594
ell 963, elapsed: 0.000244140625
ell 962, elapsed: 0.000244140625
ell 961, elapsed: 0.0002529621124267578
ell 960, elapsed: 0.0002429485321044922
ell 959, elapsed: 0.0002491474151611328
ell 958, elapsed: 0.0002460479736328125
ell 957, elapsed: 0.0002460479736328125
ell 956, elapsed: 0.00024700164794921875
ell 955, elapsed: 0.000244140625
ell 954, elapsed: 0.0003058910369873047
ell 953, elapsed: 0.000247955322265625
ell 952, elapsed: 0.0002429485321044922
ell 951, elapsed: 0.00024509429931640625
ell 950, elapsed: 0.0002429485321044922
ell 949, elapsed: 0.0002429485321044922
ell 948, elapsed: 0.00024700164794921875
ell 947, elapsed: 0.00024509429931640625
ell 946, elapsed: 0.00024700164794921875
ell 945, elapsed: 0.00024199485778808594
ell 944, elapsed: 0.00024509429931640625
ell 943, elapsed: 0.00024509429931640625
ell 942, elapsed: 0.00024318695068359375
ell 941, elapsed: 0.0002429485321044922
ell 940, elapsed: 0.0002429485321044922
ell 939, elapsed: 0.00024390220642089844
ell 938, elapsed: 0.0002639293670654297
ell 937, elapsed: 0.0002429485321044922
ell 936, elapsed: 0.0002551078796386719
ell 935, elapsed: 0.00025010108947753906
ell 934, elapsed: 0.000247955322265625
ell 933, elapsed: 0.0002448558807373047
ell 932, elapsed: 0.0002448558807373047
ell 931, elapsed: 0.00024700164794921875
ell 930, elapsed: 0.00024199485778808594
ell 929, elapsed: 0.0002460479736328125
ell 928, elapsed: 0.00024700164794921875
ell 927, elapsed: 0.0002448558807373047
ell 926, elapsed: 0.0002541542053222656
ell 925, elapsed: 0.00024890899658203125
ell 924, elapsed: 0.0002589225769042969
ell 923, elapsed: 0.0002880096435546875
ell 922, elapsed: 0.00024580955505371094
ell 921, elapsed: 0.0002510547637939453
ell 920, elapsed: 0.0002498626708984375
ell 919, elapsed: 0.00025200843811035156
ell 918, elapsed: 0.00024318695068359375
ell 917, elapsed: 0.000247955322265625
ell 916, elapsed: 0.0002529621124267578
ell 915, elapsed: 0.0002460479736328125
ell 914, elapsed: 0.00025010108947753906
ell 913, elapsed: 0.0002491474151611328
ell 912, elapsed: 0.00024390220642089844
ell 911, elapsed: 0.00025391578674316406
ell 910, elapsed: 0.0002460479736328125
ell 909, elapsed: 0.0002491474151611328
ell 908, elapsed: 0.0002849102020263672
ell 907, elapsed: 0.0002491474151611328
ell 906, elapsed: 0.00024700164794921875
ell 905, elapsed: 0.00024700164794921875
ell 904, elapsed: 0.00025200843811035156
ell 903, elapsed: 0.00025010108947753906
ell 902, elapsed: 0.0002560615539550781
ell 901, elapsed: 0.0002448558807373047
ell 900, elapsed: 0.00024700164794921875
ell 899, elapsed: 0.0002510547637939453
ell 898, elapsed: 0.00024509429931640625
ell 897, elapsed: 0.00025200843811035156
ell 896, elapsed: 0.0002460479736328125
ell 895, elapsed: 0.00024700164794921875
ell 894, elapsed: 0.0002529621124267578
ell 893, elapsed: 0.0002849102020263672
ell 892, elapsed: 0.0002598762512207031
ell 891, elapsed: 0.00024890899658203125
ell 890, elapsed: 0.00024700164794921875
ell 889, elapsed: 0.0002589225769042969
ell 888, elapsed: 0.00025010108947753906
ell 887, elapsed: 0.0002510547637939453
ell 886, elapsed: 0.00026297569274902344
ell 885, elapsed: 0.00024700164794921875
ell 884, elapsed: 0.0002570152282714844
ell 883, elapsed: 0.00024700164794921875
ell 882, elapsed: 0.0002529621124267578
ell 881, elapsed: 0.0002448558807373047
ell 880, elapsed: 0.00024700164794921875
ell 879, elapsed: 0.0002529621124267578
ell 878, elapsed: 0.0002739429473876953
ell 877, elapsed: 0.0002560615539550781
ell 876, elapsed: 0.00024700164794921875
ell 875, elapsed: 0.0002460479736328125
ell 874, elapsed: 0.00024700164794921875
ell 873, elapsed: 0.0002498626708984375
ell 872, elapsed: 0.00025081634521484375
ell 871, elapsed: 0.00024700164794921875
ell 870, elapsed: 0.0002570152282714844
ell 869, elapsed: 0.00024580955505371094
ell 868, elapsed: 0.0002510547637939453
ell 867, elapsed: 0.00025200843811035156
ell 866, elapsed: 0.0002460479736328125
ell 865, elapsed: 0.0002498626708984375
ell 864, elapsed: 0.0002460479736328125
ell 863, elapsed: 0.00028395652770996094
ell 862, elapsed: 0.0002541542053222656
ell 861, elapsed: 0.00024509429931640625
ell 860, elapsed: 0.00024890899658203125
ell 859, elapsed: 0.00024509429931640625
ell 858, elapsed: 0.00024509429931640625
ell 857, elapsed: 0.00025010108947753906
ell 856, elapsed: 0.00024390220642089844
ell 855, elapsed: 0.0002548694610595703
ell 854, elapsed: 0.00025081634521484375
ell 853, elapsed: 0.0002460479736328125
ell 852, elapsed: 0.000247955322265625
ell 851, elapsed: 0.0002491474151611328
ell 850, elapsed: 0.000247955322265625
ell 849, elapsed: 0.0002429485321044922
ell 848, elapsed: 0.0002429485321044922
ell 847, elapsed: 0.0002849102020263672
ell 846, elapsed: 0.00024700164794921875
ell 845, elapsed: 0.0002491474151611328
ell 844, elapsed: 0.00024509429931640625
ell 843, elapsed: 0.000247955322265625
ell 842, elapsed: 0.00024509429931640625
ell 841, elapsed: 0.0002460479736328125
ell 840, elapsed: 0.00025200843811035156
ell 839, elapsed: 0.0002460479736328125
ell 838, elapsed: 0.00025200843811035156
ell 837, elapsed: 0.0002460479736328125
ell 836, elapsed: 0.00024700164794921875
ell 835, elapsed: 0.000247955322265625
ell 834, elapsed: 0.00024390220642089844
ell 833, elapsed: 0.0002510547637939453
ell 832, elapsed: 0.0002808570861816406
ell 831, elapsed: 0.00024390220642089844
ell 830, elapsed: 0.00025010108947753906
ell 829, elapsed: 0.00024390220642089844
ell 828, elapsed: 0.0002551078796386719
ell 827, elapsed: 0.00024199485778808594
ell 826, elapsed: 0.00024390220642089844
ell 825, elapsed: 0.00024700164794921875
ell 824, elapsed: 0.0002460479736328125
ell 823, elapsed: 0.0002448558807373047
ell 822, elapsed: 0.0002448558807373047
ell 821, elapsed: 0.00024318695068359375
ell 820, elapsed: 0.00025916099548339844
ell 819, elapsed: 0.00024580955505371094
ell 818, elapsed: 0.00025081634521484375
ell 817, elapsed: 0.00026607513427734375
ell 816, elapsed: 0.00025200843811035156
ell 815, elapsed: 0.0002460479736328125
ell 814, elapsed: 0.0002491474151611328
ell 813, elapsed: 0.00025010108947753906
ell 812, elapsed: 0.00024700164794921875
ell 811, elapsed: 0.000244140625
ell 810, elapsed: 0.0002448558807373047
ell 809, elapsed: 0.00024700164794921875
ell 808, elapsed: 0.0002491474151611328
ell 807, elapsed: 0.0002429485321044922
ell 806, elapsed: 0.00024700164794921875
ell 805, elapsed: 0.00024199485778808594
ell 804, elapsed: 0.00024700164794921875
ell 803, elapsed: 0.00025200843811035156
ell 802, elapsed: 0.00024509429931640625
ell 801, elapsed: 0.00028896331787109375
ell 800, elapsed: 0.00024580955505371094
ell 799, elapsed: 0.00024890899658203125
ell 798, elapsed: 0.0002467632293701172
ell 797, elapsed: 0.00024509429931640625
ell 796, elapsed: 0.00024890899658203125
ell 795, elapsed: 0.00024509429931640625
ell 794, elapsed: 0.000244140625
ell 793, elapsed: 0.000247955322265625
ell 792, elapsed: 0.00024199485778808594
ell 791, elapsed: 0.00024700164794921875
ell 790, elapsed: 0.0002429485321044922
ell 789, elapsed: 0.0003039836883544922
ell 788, elapsed: 0.00026607513427734375
ell 787, elapsed: 0.0002460479736328125
ell 786, elapsed: 0.00024700164794921875
ell 785, elapsed: 0.00024008750915527344
ell 784, elapsed: 0.0002849102020263672
ell 783, elapsed: 0.0003070831298828125
ell 782, elapsed: 0.0002968311309814453
ell 781, elapsed: 0.00030493736267089844
ell 780, elapsed: 0.00030493736267089844
ell 779, elapsed: 0.0003120899200439453
ell 778, elapsed: 0.00030803680419921875
ell 777, elapsed: 0.000308990478515625
ell 776, elapsed: 0.00031113624572753906
ell 775, elapsed: 0.0003070831298828125
ell 774, elapsed: 0.0003390312194824219
ell 773, elapsed: 0.0003120899200439453
ell 772, elapsed: 0.0003139972686767578
ell 771, elapsed: 0.00032401084899902344
ell 770, elapsed: 0.0003190040588378906
ell 769, elapsed: 0.0003159046173095703
ell 768, elapsed: 0.0003108978271484375
ell 767, elapsed: 0.00030994415283203125
ell 766, elapsed: 0.0003161430358886719
ell 765, elapsed: 0.000308990478515625
ell 764, elapsed: 0.00031185150146484375
ell 763, elapsed: 0.000308990478515625
ell 762, elapsed: 0.00035190582275390625
ell 761, elapsed: 0.00031113624572753906
ell 760, elapsed: 0.00030803680419921875
ell 759, elapsed: 0.00031304359436035156
ell 758, elapsed: 0.0003120899200439453
ell 757, elapsed: 0.00031304359436035156
ell 756, elapsed: 0.0003190040588378906
ell 755, elapsed: 0.00030493736267089844
ell 754, elapsed: 0.00030612945556640625
ell 753, elapsed: 0.00030803680419921875
ell 752, elapsed: 0.0003039836883544922
ell 751, elapsed: 0.00030517578125
ell 750, elapsed: 0.00033211708068847656
ell 749, elapsed: 0.0003108978271484375
ell 748, elapsed: 0.00030803680419921875
ell 747, elapsed: 0.00031685829162597656
ell 746, elapsed: 0.0002970695495605469
ell 745, elapsed: 0.00030303001403808594
ell 744, elapsed: 0.0003108978271484375
ell 743, elapsed: 0.0003120899200439453
ell 742, elapsed: 0.00031495094299316406
ell 741, elapsed: 0.0003108978271484375
ell 740, elapsed: 0.00030612945556640625
ell 739, elapsed: 0.0003159046173095703
ell 738, elapsed: 0.0003230571746826172
ell 737, elapsed: 0.00031185150146484375
ell 736, elapsed: 0.0003120899200439453
ell 735, elapsed: 0.000308990478515625
ell 734, elapsed: 0.0003108978271484375
ell 733, elapsed: 0.0003108978271484375
ell 732, elapsed: 0.0003120899200439453
ell 731, elapsed: 0.00030803680419921875
ell 730, elapsed: 0.0003039836883544922
ell 729, elapsed: 0.0003120899200439453
ell 728, elapsed: 0.0003070831298828125
ell 727, elapsed: 0.0003159046173095703
ell 726, elapsed: 0.0003440380096435547
ell 725, elapsed: 0.00031185150146484375
ell 724, elapsed: 0.00030994415283203125
ell 723, elapsed: 0.0003199577331542969
ell 722, elapsed: 0.0003180503845214844
ell 721, elapsed: 0.0003159046173095703
ell 720, elapsed: 0.0003139972686767578
ell 719, elapsed: 0.00031304359436035156
ell 718, elapsed: 0.0002970695495605469
ell 717, elapsed: 0.00030994415283203125
ell 716, elapsed: 0.00030112266540527344
ell 715, elapsed: 0.00030303001403808594
ell 714, elapsed: 0.00032901763916015625
ell 713, elapsed: 0.00031113624572753906
ell 712, elapsed: 0.00031185150146484375
ell 711, elapsed: 0.0003108978271484375
ell 710, elapsed: 0.00030994415283203125
ell 709, elapsed: 0.00030994415283203125
ell 708, elapsed: 0.00031185150146484375
ell 707, elapsed: 0.00031113624572753906
ell 706, elapsed: 0.00030922889709472656
ell 705, elapsed: 0.00031113624572753906
ell 704, elapsed: 0.00031280517578125
ell 703, elapsed: 0.000308990478515625
ell 702, elapsed: 0.0003619194030761719
ell 701, elapsed: 0.0002989768981933594
ell 700, elapsed: 0.0003020763397216797
ell 699, elapsed: 0.0002980232238769531
ell 698, elapsed: 0.0003039836883544922
ell 697, elapsed: 0.00029587745666503906
ell 696, elapsed: 0.00029397010803222656
ell 695, elapsed: 0.0002999305725097656
ell 694, elapsed: 0.00029778480529785156
ell 693, elapsed: 0.0002989768981933594
ell 692, elapsed: 0.0002970695495605469
ell 691, elapsed: 0.0002980232238769531
ell 690, elapsed: 0.0003180503845214844
ell 689, elapsed: 0.00029587745666503906
ell 688, elapsed: 0.00030303001403808594
ell 687, elapsed: 0.0002951622009277344
ell 686, elapsed: 0.00029587745666503906
ell 685, elapsed: 0.0002989768981933594
ell 684, elapsed: 0.0002949237823486328
ell 683, elapsed: 0.0002999305725097656
ell 682, elapsed: 0.0002980232238769531
ell 681, elapsed: 0.0002951622009277344
ell 680, elapsed: 0.0003018379211425781
ell 679, elapsed: 0.0002970695495605469
ell 678, elapsed: 0.00030303001403808594
ell 677, elapsed: 0.0003371238708496094
ell 676, elapsed: 0.0003008842468261719
ell 675, elapsed: 0.0002989768981933594
ell 674, elapsed: 0.0002989768981933594
ell 673, elapsed: 0.0003008842468261719
ell 672, elapsed: 0.0002961158752441406
ell 671, elapsed: 0.0002970695495605469
ell 670, elapsed: 0.0002980232238769531
ell 669, elapsed: 0.0002970695495605469
ell 668, elapsed: 0.0002999305725097656
ell 667, elapsed: 0.00029921531677246094
ell 666, elapsed: 0.0002949237823486328
ell 665, elapsed: 0.0002970695495605469
ell 664, elapsed: 0.00031495094299316406
ell 663, elapsed: 0.00030303001403808594
ell 662, elapsed: 0.0002970695495605469
ell 661, elapsed: 0.0003020763397216797
ell 660, elapsed: 0.0002961158752441406
ell 659, elapsed: 0.0002970695495605469
ell 658, elapsed: 0.0003001689910888672
ell 657, elapsed: 0.0002989768981933594
ell 656, elapsed: 0.00030303001403808594
ell 655, elapsed: 0.0002970695495605469
ell 654, elapsed: 0.00029397010803222656
ell 653, elapsed: 0.0002989768981933594
ell 652, elapsed: 0.00031304359436035156
ell 651, elapsed: 0.0002999305725097656
ell 650, elapsed: 0.0002951622009277344
ell 649, elapsed: 0.0002970695495605469
ell 648, elapsed: 0.0003008842468261719
ell 647, elapsed: 0.0002951622009277344
ell 646, elapsed: 0.0002989768981933594
ell 645, elapsed: 0.0003001689910888672
ell 644, elapsed: 0.0002949237823486328
ell 643, elapsed: 0.0002999305725097656
ell 642, elapsed: 0.0002961158752441406
ell 641, elapsed: 0.00029587745666503906
ell 640, elapsed: 0.0002970695495605469
ell 639, elapsed: 0.0003311634063720703
ell 638, elapsed: 0.0003001689910888672
ell 637, elapsed: 0.00029587745666503906
ell 636, elapsed: 0.0002989768981933594
ell 635, elapsed: 0.0002949237823486328
ell 634, elapsed: 0.0002999305725097656
ell 633, elapsed: 0.0002951622009277344
ell 632, elapsed: 0.0002980232238769531
ell 631, elapsed: 0.0002980232238769531
ell 630, elapsed: 0.0002999305725097656
ell 629, elapsed: 0.00029397010803222656
ell 628, elapsed: 0.0002930164337158203
ell 627, elapsed: 0.00032019615173339844
ell 626, elapsed: 0.00030303001403808594
ell 625, elapsed: 0.00029206275939941406
ell 624, elapsed: 0.0002980232238769531
ell 623, elapsed: 0.0002930164337158203
ell 622, elapsed: 0.0002942085266113281
ell 621, elapsed: 0.0002961158752441406
ell 620, elapsed: 0.0003020763397216797
ell 619, elapsed: 0.00029587745666503906
ell 618, elapsed: 0.0002968311309814453
ell 617, elapsed: 0.00029397010803222656
ell 616, elapsed: 0.0002970695495605469
ell 615, elapsed: 0.00029778480529785156
ell 614, elapsed: 0.0003459453582763672
ell 613, elapsed: 0.00029206275939941406
ell 612, elapsed: 0.0002961158752441406
ell 611, elapsed: 0.0003039836883544922
ell 610, elapsed: 0.0003159046173095703
ell 609, elapsed: 0.0002949237823486328
ell 608, elapsed: 0.0003020763397216797
ell 607, elapsed: 0.0003020763397216797
ell 606, elapsed: 0.0002951622009277344
ell 605, elapsed: 0.0002980232238769531
ell 604, elapsed: 0.0002961158752441406
ell 603, elapsed: 0.00029397010803222656
ell 602, elapsed: 0.0002951622009277344
ell 601, elapsed: 0.00031685829162597656
ell 600, elapsed: 0.0002899169921875
ell 599, elapsed: 0.00029087066650390625
ell 598, elapsed: 0.0002961158752441406
ell 597, elapsed: 0.0002942085266113281
ell 596, elapsed: 0.00028896331787109375
ell 595, elapsed: 0.00028896331787109375
ell 594, elapsed: 0.00029277801513671875
ell 593, elapsed: 0.00028896331787109375
ell 592, elapsed: 0.0002968311309814453
ell 591, elapsed: 0.0002899169921875
ell 590, elapsed: 0.00028705596923828125
ell 589, elapsed: 0.00032591819763183594
ell 588, elapsed: 0.0002911090850830078
ell 587, elapsed: 0.0002949237823486328
ell 586, elapsed: 0.0002880096435546875
ell 585, elapsed: 0.00029206275939941406
ell 584, elapsed: 0.00029087066650390625
ell 583, elapsed: 0.00029015541076660156
ell 582, elapsed: 0.0002911090850830078
ell 581, elapsed: 0.0002880096435546875
ell 580, elapsed: 0.0002880096435546875
ell 579, elapsed: 0.0003020763397216797
ell 578, elapsed: 0.00028896331787109375
ell 577, elapsed: 0.00029206275939941406
ell 576, elapsed: 0.00030803680419921875
ell 575, elapsed: 0.0002899169921875
ell 574, elapsed: 0.0002911090850830078
ell 573, elapsed: 0.00028896331787109375
ell 572, elapsed: 0.00029397010803222656
ell 571, elapsed: 0.00028896331787109375
ell 570, elapsed: 0.00029206275939941406
ell 569, elapsed: 0.0002930164337158203
ell 568, elapsed: 0.0002880096435546875
ell 567, elapsed: 0.00029206275939941406
ell 566, elapsed: 0.0002989768981933594
ell 565, elapsed: 0.0002989768981933594
ell 564, elapsed: 0.0002918243408203125
ell 563, elapsed: 0.0003139972686767578
ell 562, elapsed: 0.0002980232238769531
ell 561, elapsed: 0.00029206275939941406
ell 560, elapsed: 0.0002942085266113281
ell 559, elapsed: 0.0002942085266113281
ell 558, elapsed: 0.00029397010803222656
ell 557, elapsed: 0.0002930164337158203
ell 556, elapsed: 0.0002918243408203125
ell 555, elapsed: 0.0002949237823486328
ell 554, elapsed: 0.0002930164337158203
ell 553, elapsed: 0.00029587745666503906
ell 552, elapsed: 0.0002968311309814453
ell 551, elapsed: 0.00029206275939941406
ell 550, elapsed: 0.00033402442932128906
ell 549, elapsed: 0.0002930164337158203
ell 548, elapsed: 0.00029206275939941406
ell 547, elapsed: 0.0002980232238769531
ell 546, elapsed: 0.00029087066650390625
ell 545, elapsed: 0.0002918243408203125
ell 544, elapsed: 0.0002970695495605469
ell 543, elapsed: 0.0002970695495605469
ell 542, elapsed: 0.00029397010803222656
ell 541, elapsed: 0.0002930164337158203
ell 540, elapsed: 0.000286102294921875
ell 539, elapsed: 0.0002930164337158203
ell 538, elapsed: 0.00029778480529785156
ell 537, elapsed: 0.00031185150146484375
ell 536, elapsed: 0.0002930164337158203
ell 535, elapsed: 0.0002970695495605469
ell 534, elapsed: 0.00029087066650390625
ell 533, elapsed: 0.0002989768981933594
ell 532, elapsed: 0.0002880096435546875
ell 531, elapsed: 0.0002949237823486328
ell 530, elapsed: 0.00029397010803222656
ell 529, elapsed: 0.0002911090850830078
ell 528, elapsed: 0.0002949237823486328
ell 527, elapsed: 0.00029277801513671875
ell 526, elapsed: 0.0002949237823486328
ell 525, elapsed: 0.0003440380096435547
ell 524, elapsed: 0.0003008842468261719
ell 523, elapsed: 0.0003039836883544922
ell 522, elapsed: 0.00029587745666503906
ell 521, elapsed: 0.0002961158752441406
ell 520, elapsed: 0.0002961158752441406
ell 519, elapsed: 0.0002930164337158203
ell 518, elapsed: 0.0002980232238769531
ell 517, elapsed: 0.0002961158752441406
ell 516, elapsed: 0.00030612945556640625
ell 515, elapsed: 0.00029206275939941406
ell 514, elapsed: 0.00029397010803222656
ell 513, elapsed: 0.0002949237823486328
ell 512, elapsed: 0.0003139972686767578
ell 511, elapsed: 0.00029397010803222656
ell 510, elapsed: 0.0002949237823486328
ell 509, elapsed: 0.0002980232238769531
ell 508, elapsed: 0.0003001689910888672
ell 507, elapsed: 0.0002930164337158203
ell 506, elapsed: 0.0002961158752441406
ell 505, elapsed: 0.0002949237823486328
ell 504, elapsed: 0.0002930164337158203
ell 503, elapsed: 0.0002949237823486328
ell 502, elapsed: 0.00029397010803222656
ell 501, elapsed: 0.00029397010803222656
ell 500, elapsed: 0.0002930164337158203
ell 499, elapsed: 0.00030803680419921875
ell 498, elapsed: 0.0003020763397216797
ell 497, elapsed: 0.00029397010803222656
ell 496, elapsed: 0.0002980232238769531
ell 495, elapsed: 0.0002951622009277344
ell 494, elapsed: 0.0002949237823486328
ell 493, elapsed: 0.000308990478515625
ell 492, elapsed: 0.00030112266540527344
ell 491, elapsed: 0.0003020763397216797
ell 490, elapsed: 0.0003001689910888672
ell 489, elapsed: 0.0002949237823486328
ell 488, elapsed: 0.0003020763397216797
ell 487, elapsed: 0.0003268718719482422
ell 486, elapsed: 0.0003039836883544922
ell 485, elapsed: 0.00029397010803222656
ell 484, elapsed: 0.0002999305725097656
ell 483, elapsed: 0.00029587745666503906
ell 482, elapsed: 0.0002949237823486328
ell 481, elapsed: 0.0002970695495605469
ell 480, elapsed: 0.00030303001403808594
ell 479, elapsed: 0.0002989768981933594
ell 478, elapsed: 0.00029397010803222656
ell 477, elapsed: 0.0002970695495605469
ell 476, elapsed: 0.0002999305725097656
ell 475, elapsed: 0.0002970695495605469
ell 474, elapsed: 0.0003159046173095703
ell 473, elapsed: 0.0002951622009277344
ell 472, elapsed: 0.0002961158752441406
ell 471, elapsed: 0.0002989768981933594
ell 470, elapsed: 0.0002892017364501953
ell 469, elapsed: 0.00029206275939941406
ell 468, elapsed: 0.00029397010803222656
ell 467, elapsed: 0.00029277801513671875
ell 466, elapsed: 0.0002930164337158203
ell 465, elapsed: 0.0002989768981933594
ell 464, elapsed: 0.0002930164337158203
ell 463, elapsed: 0.0002930164337158203
ell 462, elapsed: 0.0003261566162109375
ell 461, elapsed: 0.0002949237823486328
ell 460, elapsed: 0.00029206275939941406
ell 459, elapsed: 0.0002989768981933594
ell 458, elapsed: 0.0002930164337158203
ell 457, elapsed: 0.00029277801513671875
ell 456, elapsed: 0.0003001689910888672
ell 455, elapsed: 0.00029206275939941406
ell 454, elapsed: 0.0002970695495605469
ell 453, elapsed: 0.0002899169921875
ell 452, elapsed: 0.0003139972686767578
ell 451, elapsed: 0.0002999305725097656
ell 450, elapsed: 0.0002999305725097656
ell 449, elapsed: 0.00036907196044921875
ell 448, elapsed: 0.0006439685821533203
ell 447, elapsed: 0.0002989768981933594
ell 446, elapsed: 0.0008060932159423828
ell 445, elapsed: 0.00030612945556640625
ell 444, elapsed: 0.00030803680419921875
ell 443, elapsed: 0.0007481575012207031
ell 442, elapsed: 0.0003058910369873047
ell 441, elapsed: 0.00033283233642578125
ell 440, elapsed: 0.0002999305725097656
ell 439, elapsed: 0.0003039836883544922
ell 438, elapsed: 0.00030517578125
ell 437, elapsed: 0.0003039836883544922
ell 436, elapsed: 0.0002989768981933594
ell 435, elapsed: 0.0002980232238769531
ell 434, elapsed: 0.00030493736267089844
ell 433, elapsed: 0.0002949237823486328
ell 432, elapsed: 0.0003058910369873047
ell 431, elapsed: 0.0002980232238769531
ell 430, elapsed: 0.0002989768981933594
ell 429, elapsed: 0.0002951622009277344
ell 428, elapsed: 0.0003390312194824219
ell 427, elapsed: 0.00030303001403808594
ell 426, elapsed: 0.0002999305725097656
ell 425, elapsed: 0.0002961158752441406
ell 424, elapsed: 0.0002999305725097656
ell 423, elapsed: 0.00029397010803222656
ell 422, elapsed: 0.0003039836883544922
ell 421, elapsed: 0.0002951622009277344
ell 420, elapsed: 0.0003008842468261719
ell 419, elapsed: 0.0002989768981933594
ell 418, elapsed: 0.00029397010803222656
ell 417, elapsed: 0.00030493736267089844
ell 416, elapsed: 0.0003211498260498047
ell 415, elapsed: 0.00030303001403808594
ell 414, elapsed: 0.0002980232238769531
ell 413, elapsed: 0.0002970695495605469
ell 412, elapsed: 0.0003058910369873047
ell 411, elapsed: 0.0002970695495605469
ell 410, elapsed: 0.00030112266540527344
ell 409, elapsed: 0.0002999305725097656
ell 408, elapsed: 0.0002930164337158203
ell 407, elapsed: 0.0002980232238769531
ell 406, elapsed: 0.0002989768981933594
ell 405, elapsed: 0.0002989768981933594
ell 404, elapsed: 0.0002961158752441406
ell 403, elapsed: 0.0003418922424316406
ell 402, elapsed: 0.00029778480529785156
ell 401, elapsed: 0.0002949237823486328
ell 400, elapsed: 0.0003039836883544922
ell 399, elapsed: 0.0002970695495605469
ell 398, elapsed: 0.0002970695495605469
ell 397, elapsed: 0.0002980232238769531
ell 396, elapsed: 0.0002980232238769531
ell 395, elapsed: 0.0003008842468261719
ell 394, elapsed: 0.00029587745666503906
ell 393, elapsed: 0.0002970695495605469
ell 392, elapsed: 0.0002930164337158203
ell 391, elapsed: 0.0003199577331542969
ell 390, elapsed: 0.0002999305725097656
ell 389, elapsed: 0.0002930164337158203
ell 388, elapsed: 0.0002970695495605469
ell 387, elapsed: 0.0002951622009277344
ell 386, elapsed: 0.0002980232238769531
ell 385, elapsed: 0.0002989768981933594
ell 384, elapsed: 0.0002949237823486328
ell 383, elapsed: 0.00029587745666503906
ell 382, elapsed: 0.0002949237823486328
ell 381, elapsed: 0.0003058910369873047
ell 380, elapsed: 0.0002999305725097656
ell 379, elapsed: 0.0003001689910888672
ell 378, elapsed: 0.00032901763916015625
ell 377, elapsed: 0.0002970695495605469
ell 376, elapsed: 0.0003039836883544922
ell 375, elapsed: 0.0003108978271484375
ell 374, elapsed: 0.0003039836883544922
ell 373, elapsed: 0.00030684471130371094
ell 372, elapsed: 0.0003020763397216797
ell 371, elapsed: 0.0003039836883544922
ell 370, elapsed: 0.0003077983856201172
ell 369, elapsed: 0.0003058910369873047
ell 368, elapsed: 0.000308990478515625
ell 367, elapsed: 0.0003008842468261719
ell 366, elapsed: 0.00033402442932128906
ell 365, elapsed: 0.00030303001403808594
ell 364, elapsed: 0.00028705596923828125
ell 363, elapsed: 0.0003008842468261719
ell 362, elapsed: 0.0003020763397216797
ell 361, elapsed: 0.0003020763397216797
ell 360, elapsed: 0.0002961158752441406
ell 359, elapsed: 0.000308990478515625
ell 358, elapsed: 0.0003101825714111328
ell 357, elapsed: 0.0003027915954589844
ell 356, elapsed: 0.000308990478515625
ell 355, elapsed: 0.0002989768981933594
ell 354, elapsed: 0.0003020763397216797
ell 353, elapsed: 0.0003418922424316406
ell 352, elapsed: 0.0002989768981933594
ell 351, elapsed: 0.00030493736267089844
ell 350, elapsed: 0.00030112266540527344
ell 349, elapsed: 0.0002970695495605469
ell 348, elapsed: 0.00030303001403808594
ell 347, elapsed: 0.0003001689910888672
ell 346, elapsed: 0.00030517578125
ell 345, elapsed: 0.0002980232238769531
ell 344, elapsed: 0.0002999305725097656
ell 343, elapsed: 0.0003139972686767578
ell 342, elapsed: 0.0003039836883544922
ell 341, elapsed: 0.0003299713134765625
ell 340, elapsed: 0.00029206275939941406
ell 339, elapsed: 0.0002970695495605469
ell 338, elapsed: 0.0002951622009277344
ell 337, elapsed: 0.00030303001403808594
ell 336, elapsed: 0.000308990478515625
ell 335, elapsed: 0.0002548694610595703
ell 334, elapsed: 0.000247955322265625
ell 333, elapsed: 0.000244140625
ell 332, elapsed: 0.00024199485778808594
ell 331, elapsed: 0.00025010108947753906
ell 330, elapsed: 0.00024390220642089844
ell 329, elapsed: 0.000247955322265625
ell 328, elapsed: 0.0002548694610595703
ell 327, elapsed: 0.0003428459167480469
ell 326, elapsed: 0.0002548694610595703
ell 325, elapsed: 0.0002918243408203125
ell 324, elapsed: 0.00025391578674316406
ell 323, elapsed: 0.0003039836883544922
ell 322, elapsed: 0.0002980232238769531
ell 321, elapsed: 0.00030493736267089844
ell 320, elapsed: 0.0003077983856201172
ell 319, elapsed: 0.0003058910369873047
ell 318, elapsed: 0.0003020763397216797
ell 317, elapsed: 0.00029921531677246094
ell 316, elapsed: 0.0003070831298828125
ell 315, elapsed: 0.00030612945556640625
ell 314, elapsed: 0.0003440380096435547
ell 313, elapsed: 0.00030994415283203125
ell 312, elapsed: 0.0002989768981933594
ell 311, elapsed: 0.0003058910369873047
ell 310, elapsed: 0.0003039836883544922
ell 309, elapsed: 0.00030303001403808594
ell 308, elapsed: 0.0003070831298828125
ell 307, elapsed: 0.0003018379211425781
ell 306, elapsed: 0.00030803680419921875
ell 305, elapsed: 0.0003058910369873047
ell 304, elapsed: 0.00030684471130371094
ell 303, elapsed: 0.00030303001403808594
ell 302, elapsed: 0.00037407875061035156
ell 301, elapsed: 0.00030422210693359375
ell 300, elapsed: 0.0002989768981933594
ell 299, elapsed: 0.00030684471130371094
ell 298, elapsed: 0.0003039836883544922
ell 297, elapsed: 0.0003101825714111328
ell 296, elapsed: 0.00030994415283203125
ell 295, elapsed: 0.000308990478515625
ell 294, elapsed: 0.00031185150146484375
ell 293, elapsed: 0.00030612945556640625
ell 292, elapsed: 0.0003139972686767578
ell 291, elapsed: 0.000308990478515625
ell 290, elapsed: 0.000308990478515625
ell 289, elapsed: 0.0002968311309814453
ell 288, elapsed: 0.00028705596923828125
ell 287, elapsed: 0.00030994415283203125
ell 286, elapsed: 0.00030493736267089844
ell 285, elapsed: 0.00030612945556640625
ell 284, elapsed: 0.00031304359436035156
ell 283, elapsed: 0.00030303001403808594
ell 282, elapsed: 0.0003070831298828125
ell 281, elapsed: 0.0003018379211425781
ell 280, elapsed: 0.0002989768981933594
ell 279, elapsed: 0.0003039836883544922
ell 278, elapsed: 0.0003008842468261719
ell 277, elapsed: 0.00032782554626464844
ell 276, elapsed: 0.0002989768981933594
ell 275, elapsed: 0.0003101825714111328
ell 274, elapsed: 0.00030493736267089844
ell 273, elapsed: 0.0003020763397216797
ell 272, elapsed: 0.0003018379211425781
ell 271, elapsed: 0.00030994415283203125
ell 270, elapsed: 0.00031113624572753906
ell 269, elapsed: 0.0003008842468261719
ell 268, elapsed: 0.0002980232238769531
ell 267, elapsed: 0.00030517578125
ell 266, elapsed: 0.0002980232238769531
ell 265, elapsed: 0.0003409385681152344
ell 264, elapsed: 0.0002999305725097656
ell 263, elapsed: 0.0003027915954589844
ell 262, elapsed: 0.00030493736267089844
ell 261, elapsed: 0.0002999305725097656
ell 260, elapsed: 0.00030994415283203125
ell 259, elapsed: 0.0003027915954589844
ell 258, elapsed: 0.00031304359436035156
ell 257, elapsed: 0.0003020763397216797
ell 256, elapsed: 0.00030803680419921875
ell 255, elapsed: 0.0003039836883544922
ell 254, elapsed: 0.00030303001403808594
ell 253, elapsed: 0.0016951560974121094
ell 252, elapsed: 0.00031685829162597656
ell 251, elapsed: 0.0003001689910888672
ell 250, elapsed: 0.0003070831298828125
ell 249, elapsed: 0.0003039836883544922
ell 248, elapsed: 0.00030303001403808594
ell 247, elapsed: 0.0003039836883544922
ell 246, elapsed: 0.00030303001403808594
ell 245, elapsed: 0.0003440380096435547
ell 244, elapsed: 0.00031113624572753906
ell 243, elapsed: 0.00030517578125
ell 242, elapsed: 0.0003190040588378906
ell 241, elapsed: 0.00030112266540527344
ell 240, elapsed: 0.000308990478515625
ell 239, elapsed: 0.0003159046173095703
ell 238, elapsed: 0.0003070831298828125
ell 237, elapsed: 0.00031304359436035156
ell 236, elapsed: 0.0003039836883544922
ell 235, elapsed: 0.00030684471130371094
ell 234, elapsed: 0.00030684471130371094
ell 233, elapsed: 0.00034308433532714844
ell 232, elapsed: 0.0003159046173095703
ell 231, elapsed: 0.000308990478515625
ell 230, elapsed: 0.0003039836883544922
ell 229, elapsed: 0.0003039836883544922
ell 228, elapsed: 0.00029921531677246094
ell 227, elapsed: 0.000308990478515625
ell 226, elapsed: 0.0003058910369873047
ell 225, elapsed: 0.0002970695495605469
ell 224, elapsed: 0.00029206275939941406
ell 223, elapsed: 0.00030517578125
ell 222, elapsed: 0.0003018379211425781
ell 221, elapsed: 0.00029778480529785156
ell 220, elapsed: 0.00035691261291503906
ell 219, elapsed: 0.00030994415283203125
ell 218, elapsed: 0.0003058910369873047
ell 217, elapsed: 0.0003108978271484375
ell 216, elapsed: 0.0003020763397216797
ell 215, elapsed: 0.0003020763397216797
ell 214, elapsed: 0.0003039836883544922
ell 213, elapsed: 0.0003008842468261719
ell 212, elapsed: 0.0003039836883544922
ell 211, elapsed: 0.0003077983856201172
ell 210, elapsed: 0.0003020763397216797
ell 209, elapsed: 0.00030303001403808594
ell 208, elapsed: 0.0003199577331542969
ell 207, elapsed: 0.0003070831298828125
ell 206, elapsed: 0.0003020763397216797
ell 205, elapsed: 0.0003159046173095703
ell 204, elapsed: 0.0002980232238769531
ell 203, elapsed: 0.0003018379211425781
ell 202, elapsed: 0.00030303001403808594
ell 201, elapsed: 0.00030303001403808594
ell 200, elapsed: 0.0003039836883544922
ell 199, elapsed: 0.00031304359436035156
ell 198, elapsed: 0.0003018379211425781
ell 197, elapsed: 0.0003077983856201172
ell 196, elapsed: 0.0003268718719482422
ell 195, elapsed: 0.0003070831298828125
ell 194, elapsed: 0.00030112266540527344
ell 193, elapsed: 0.00030112266540527344
ell 192, elapsed: 0.0002999305725097656
ell 191, elapsed: 0.0002980232238769531
ell 190, elapsed: 0.00030803680419921875
ell 189, elapsed: 0.00030112266540527344
ell 188, elapsed: 0.0003070831298828125
ell 187, elapsed: 0.0002999305725097656
ell 186, elapsed: 0.000308990478515625
ell 185, elapsed: 0.0003070831298828125
ell 184, elapsed: 0.0002961158752441406
ell 183, elapsed: 0.0003390312194824219
ell 182, elapsed: 0.00030303001403808594
ell 181, elapsed: 0.0003020763397216797
ell 180, elapsed: 0.000308990478515625
ell 179, elapsed: 0.0002999305725097656
ell 178, elapsed: 0.00030517578125
ell 177, elapsed: 0.0003018379211425781
ell 176, elapsed: 0.0002949237823486328
ell 175, elapsed: 0.0003020763397216797
ell 174, elapsed: 0.00031113624572753906
ell 173, elapsed: 0.0002999305725097656
ell 172, elapsed: 0.0002968311309814453
ell 171, elapsed: 0.0003349781036376953
ell 170, elapsed: 0.0003070831298828125
ell 169, elapsed: 0.00030303001403808594
ell 168, elapsed: 0.0003077983856201172
ell 167, elapsed: 0.0002989768981933594
ell 166, elapsed: 0.00029778480529785156
ell 165, elapsed: 0.0003020763397216797
ell 164, elapsed: 0.00030112266540527344
ell 163, elapsed: 0.0003008842468261719
ell 162, elapsed: 0.0003039836883544922
ell 161, elapsed: 0.0003039836883544922
ell 160, elapsed: 0.0002999305725097656
ell 159, elapsed: 0.00035500526428222656
ell 158, elapsed: 0.00030684471130371094
ell 157, elapsed: 0.0003039836883544922
ell 156, elapsed: 0.00030994415283203125
ell 155, elapsed: 0.0002999305725097656
ell 154, elapsed: 0.0002989768981933594
ell 153, elapsed: 0.00030303001403808594
ell 152, elapsed: 0.00030112266540527344
ell 151, elapsed: 0.00030303001403808594
ell 150, elapsed: 0.0002980232238769531
ell 149, elapsed: 0.0003120899200439453
ell 148, elapsed: 0.00030684471130371094
ell 147, elapsed: 0.0003039836883544922
ell 146, elapsed: 0.00032711029052734375
ell 145, elapsed: 0.0003020763397216797
ell 144, elapsed: 0.000308990478515625
ell 143, elapsed: 0.000308990478515625
ell 142, elapsed: 0.0003039836883544922
ell 141, elapsed: 0.00030493736267089844
ell 140, elapsed: 0.0003020763397216797
ell 139, elapsed: 0.00030112266540527344
ell 138, elapsed: 0.0003039836883544922
ell 137, elapsed: 0.0003008842468261719
ell 136, elapsed: 0.0003027915954589844
ell 135, elapsed: 0.0003008842468261719
ell 134, elapsed: 0.0003509521484375
ell 133, elapsed: 0.00030517578125
ell 132, elapsed: 0.0002999305725097656
ell 131, elapsed: 0.0003058910369873047
ell 130, elapsed: 0.0003039836883544922
ell 129, elapsed: 0.00030112266540527344
ell 128, elapsed: 0.0003020763397216797
ell 127, elapsed: 0.00029587745666503906
ell 126, elapsed: 0.0002999305725097656
ell 125, elapsed: 0.0003039836883544922
ell 124, elapsed: 0.0003020763397216797
ell 123, elapsed: 0.0002980232238769531
ell 122, elapsed: 0.0003299713134765625
ell 121, elapsed: 0.00030303001403808594
ell 120, elapsed: 0.00030303001403808594
ell 119, elapsed: 0.0003039836883544922
ell 118, elapsed: 0.00030303001403808594
ell 117, elapsed: 0.0002999305725097656
ell 116, elapsed: 0.0003001689910888672
ell 115, elapsed: 0.0003058910369873047
ell 114, elapsed: 0.00030612945556640625
ell 113, elapsed: 0.0002989768981933594
ell 112, elapsed: 0.00031113624572753906
ell 111, elapsed: 0.00030112266540527344
ell 110, elapsed: 0.0003020763397216797
ell 109, elapsed: 0.0003681182861328125
ell 108, elapsed: 0.00030493736267089844
ell 107, elapsed: 0.00029778480529785156
ell 106, elapsed: 0.00030994415283203125
ell 105, elapsed: 0.0002980232238769531
ell 104, elapsed: 0.00030922889709472656
ell 103, elapsed: 0.0003008842468261719
ell 102, elapsed: 0.00030612945556640625
ell 101, elapsed: 0.0002980232238769531
ell 100, elapsed: 0.0003039836883544922
ell 99, elapsed: 0.0003020763397216797
ell 98, elapsed: 0.0002989768981933594
ell 97, elapsed: 0.00032711029052734375
ell 96, elapsed: 0.00030303001403808594
ell 95, elapsed: 0.0002989768981933594
ell 94, elapsed: 0.0003039836883544922
ell 93, elapsed: 0.0002961158752441406
ell 92, elapsed: 0.00030303001403808594
ell 91, elapsed: 0.00030303001403808594
ell 90, elapsed: 0.00029587745666503906
ell 89, elapsed: 0.0003018379211425781
ell 88, elapsed: 0.00030303001403808594
ell 87, elapsed: 0.00031113624572753906
ell 86, elapsed: 0.00030303001403808594
ell 85, elapsed: 0.0003020763397216797
ell 84, elapsed: 0.000308990478515625
ell 83, elapsed: 0.0002980232238769531
ell 82, elapsed: 0.0003058910369873047
ell 81, elapsed: 0.00030684471130371094
ell 80, elapsed: 0.00029587745666503906
ell 79, elapsed: 0.00030803680419921875
ell 78, elapsed: 0.0003039836883544922
ell 77, elapsed: 0.00030517578125
ell 76, elapsed: 0.00030112266540527344
ell 75, elapsed: 0.0003039836883544922
ell 74, elapsed: 0.00030112266540527344
ell 73, elapsed: 0.0003008842468261719
ell 72, elapsed: 0.0003371238708496094
ell 71, elapsed: 0.0003020763397216797
ell 70, elapsed: 0.00030303001403808594
ell 69, elapsed: 0.00030303001403808594
ell 68, elapsed: 0.0003020763397216797
ell 67, elapsed: 0.00030303001403808594
ell 66, elapsed: 0.00030303001403808594
ell 65, elapsed: 0.00030803680419921875
ell 64, elapsed: 0.0002999305725097656
ell 63, elapsed: 0.0003039836883544922
ell 62, elapsed: 0.0003020763397216797
ell 61, elapsed: 0.0002949237823486328
ell 60, elapsed: 0.0003139972686767578
ell 59, elapsed: 0.0002999305725097656
ell 58, elapsed: 0.00030303001403808594
ell 57, elapsed: 0.00030684471130371094
ell 56, elapsed: 0.00030684471130371094
ell 55, elapsed: 0.00031113624572753906
ell 54, elapsed: 0.00030303001403808594
ell 53, elapsed: 0.0002989768981933594
ell 52, elapsed: 0.00030303001403808594
ell 51, elapsed: 0.0002980232238769531
ell 50, elapsed: 0.000308990478515625
ell 49, elapsed: 0.0002989768981933594
ell 48, elapsed: 0.00030303001403808594
ell 47, elapsed: 0.0003669261932373047
ell 46, elapsed: 0.00030112266540527344
ell 45, elapsed: 0.00030303001403808594
ell 44, elapsed: 0.00030612945556640625
ell 43, elapsed: 0.00030303001403808594
ell 42, elapsed: 0.00030303001403808594
ell 41, elapsed: 0.0003039836883544922
ell 40, elapsed: 0.00030303001403808594
ell 39, elapsed: 0.0003020763397216797
ell 38, elapsed: 0.00030303001403808594
ell 37, elapsed: 0.0002980232238769531
ell 36, elapsed: 0.0002980232238769531
ell 35, elapsed: 0.0003349781036376953
ell 34, elapsed: 0.0003039836883544922
ell 33, elapsed: 0.00030612945556640625
ell 32, elapsed: 0.0003020763397216797
ell 31, elapsed: 0.0003018379211425781
ell 30, elapsed: 0.00030612945556640625
ell 29, elapsed: 0.0003020763397216797
ell 28, elapsed: 0.00030303001403808594
ell 27, elapsed: 0.0003001689910888672
ell 26, elapsed: 0.0002989768981933594
ell 25, elapsed: 0.00030612945556640625
ell 24, elapsed: 0.0002989768981933594
ell 23, elapsed: 0.0003509521484375
ell 22, elapsed: 0.0003039836883544922
ell 21, elapsed: 0.0003058910369873047
ell 20, elapsed: 0.00030684471130371094
ell 19, elapsed: 0.0002999305725097656
ell 18, elapsed: 0.0003039836883544922
ell 17, elapsed: 0.00030684471130371094
ell 16, elapsed: 0.0003039836883544922
ell 15, elapsed: 0.000308990478515625
ell 14, elapsed: 0.0003008842468261719
ell 13, elapsed: 0.00030994415283203125
ell 12, elapsed: 0.0003020763397216797
ell 11, elapsed: 0.0003299713134765625
ell 10, elapsed: 0.0003027915954589844
ell 9, elapsed: 0.00030303001403808594
ell 8, elapsed: 0.0003070831298828125
ell 7, elapsed: 0.00030112266540527344
ell 6, elapsed: 0.0003108978271484375
ell 5, elapsed: 0.00030303001403808594
ell 4, elapsed: 0.0003008842468261719
ell 3, elapsed: 0.00030493736267089844
ell 2, elapsed: 0.0002999305725097656
ell 1, elapsed: 0.00030684471130371094
ell 0, elapsed: 0.00030303001403808594
  0.393575 seconds (46.03 k allocations: 3.091 MiB, 5.50% compilation time)
elapsed: 0.0003750324249267578
step:          0.048503 sec (0 allocations: 0 byte, 0.0% gc time)
swapping:      0.000362 sec (0 allocations: 0 byte, 0.0% gc time)
calc_Mellell!: 0.004566 sec (0 allocations: 0 byte, 0.0% gc time)
  t0 :  0.001338 sec (0 allocations: 0 byte, 0.0% gc time)
  tm2 : 0.06934 sec (0 allocations: 0 byte, 0.0% gc time)
  tm2s: 0.000862 sec (0 allocations: 0 byte, 0.0% gc time)
  tm4 : 0.162124 sec (0 allocations: 0 byte, 0.0% gc time)
  tp2 : 0.0 sec (0 allocations: 0 byte, 0.0% gc time)
  tp2s: 0.0 sec (0 allocations: 0 byte, 0.0% gc time)
  tp4 : 0.0 sec (0 allocations: 0 byte, 0.0% gc time)
calc_wtdll!:   0.257199 sec (9.9 k allocations: 1.047 MB, 0.0% gc time)
calc_wljj!:    0.021344 sec (689 allocations: 10.766 KB, 0.0% gc time)
mult_prefac!:  0.0 sec (0 allocations: 0 byte, 0.0% gc time)
convert:       0.0 sec (0 allocations: 0 byte, 0.0% gc time)
write:         0.025835 sec (0 allocations: 0 byte, 0.0% gc time)
test_rand_2f1: 0.0 sec (0 allocations: 0 byte, 0.0% gc time)
Closing outfile out/Ml21-cache.bin...   0.000005 seconds
  0.000331 seconds (36 allocations: 27.953 KiB)
make_phi():   0.001548 seconds (8.19 k allocations: 238.078 KiB)
  0.118286 seconds (141.90 k allocations: 3.483 MiB)
tskip:       0.001145 sec (0 allocations: 0 byte, 0.0% gc time)
tread:       0.018423 sec (17 allocations: 10.641 KB, 0.0% gc time)
tmultphi:    0.009956 sec (0 allocations: 0 byte, 0.0% gc time)
tbrfft:      0.033763 sec (0 allocations: 0 byte, 0.0% gc time)
tmultprefac: 0.01753 sec (0 allocations: 0 byte, 0.0% gc time)
toutfunc:    0.034278 sec (127.507 k allocations: 2.312 MB, 0.0% gc time)
Testing R=1.0 ... passed
Calculating fmax: 
  dlrec    = 4
  dlrecRg1 = -4
  q=1.1, R=0.9:	  0.248108 seconds (105.72 k allocations: 15.273 MiB)

  0.248319 seconds (105.77 k allocations: 15.306 MiB)
ℓ = 1202
Δℓ = 4
ΔℓRg1 = -4
N = 1600
q = 1.1
kmin = 1.0e-5
kmax = 100000.00000000004
χ0 = 0.023029999999999995
RR = RR.tsv
ℓmax = ℓmax.bin
f21 = f21.bin
kmin = 1.0e-5
kmax = 100000.0
dlrec    = 4
dlrecRg1 = -4
Output size: 5741568 bytes = 0.005347251892089844 GiB
Output size: 51264 bytes = 4.774332046508789e-5 GiB
Reading 'out/F21EllCache'...   0.000839 seconds (197 allocations: 84.203 KiB)
ellmax: 1202
lmaxcache: 1202
fell[:,1,1] = ComplexF64[1.3482014726274674e-57 - 3.302141236118086e-73im, 1.357860004724329e-57 - 3.3257978169518355e-73im]
ell 1202, elapsed: 1.5020370483398438e-5
ell 1201, elapsed: 0.00030493736267089844
ell 1200, elapsed: 0.0002899169921875
ell 1199, elapsed: 0.000286102294921875
ell 1198, elapsed: 0.0002760887145996094
ell 1002, elapsed: 0.008659839630126953
ell 1001, elapsed: 0.000270843505859375
ell 1000, elapsed: 0.0002570152282714844
ell 999, elapsed: 0.0002579689025878906
ell 998, elapsed: 0.0002608299255371094
ell 902, elapsed: 0.007150888442993164
ell 901, elapsed: 0.0002269744873046875
ell 900, elapsed: 0.0002148151397705078
ell 899, elapsed: 0.00021409988403320312
ell 898, elapsed: 0.00021314620971679688
ell 802, elapsed: 0.0038928985595703125
ell 801, elapsed: 0.0002651214599609375
ell 800, elapsed: 0.0002238750457763672
ell 799, elapsed: 0.0002608299255371094
ell 798, elapsed: 0.00021910667419433594
ell 702, elapsed: 0.0054779052734375
ell 701, elapsed: 0.00035190582275390625
ell 700, elapsed: 0.00034999847412109375
ell 699, elapsed: 0.00033020973205566406
ell 698, elapsed: 0.00032591819763183594
ell 602, elapsed: 0.005991935729980469
ell 601, elapsed: 0.0002720355987548828
ell 600, elapsed: 0.00026702880859375
ell 599, elapsed: 0.00026297569274902344
ell 598, elapsed: 0.0002560615539550781
ell 502, elapsed: 0.004369020462036133
ell 501, elapsed: 0.0002701282501220703
ell 500, elapsed: 0.0002601146697998047
ell 499, elapsed: 0.0002608299255371094
ell 498, elapsed: 0.0003218650817871094
ell 402, elapsed: 0.0038709640502929688
ell 401, elapsed: 0.0002560615539550781
ell 400, elapsed: 0.00021791458129882812
ell 399, elapsed: 0.00021719932556152344
ell 398, elapsed: 0.00021696090698242188
ell 302, elapsed: 0.0038330554962158203
ell 301, elapsed: 0.0002181529998779297
ell 300, elapsed: 0.00021910667419433594
ell 299, elapsed: 0.00021600723266601562
ell 298, elapsed: 0.00021696090698242188
ell 202, elapsed: 0.003885984420776367
ell 201, elapsed: 0.00026416778564453125
ell 200, elapsed: 0.00026798248291015625
ell 199, elapsed: 0.0002639293670654297
ell 198, elapsed: 0.00026488304138183594
ell 152, elapsed: 0.00226593017578125
ell 151, elapsed: 0.0002608299255371094
ell 150, elapsed: 0.0002639293670654297
ell 149, elapsed: 0.0002620220184326172
ell 148, elapsed: 0.0002720355987548828
ell 127, elapsed: 0.0011861324310302734
ell 126, elapsed: 0.00026106834411621094
ell 125, elapsed: 0.00026297569274902344
ell 124, elapsed: 0.00029397010803222656
ell 123, elapsed: 0.00026297569274902344
ell 114, elapsed: 0.0006480216979980469
ell 113, elapsed: 0.0002601146697998047
ell 112, elapsed: 0.0002579689025878906
ell 111, elapsed: 0.0002579689025878906
ell 110, elapsed: 0.0002589225769042969
ell 102, elapsed: 0.0006089210510253906
ell 101, elapsed: 0.00026988983154296875
ell 100, elapsed: 0.0002689361572265625
ell 99, elapsed: 0.00026702880859375
ell 98, elapsed: 0.00029206275939941406
ell 97, elapsed: 0.0003120899200439453
ell 96, elapsed: 0.0003139972686767578
ell 95, elapsed: 0.00031495094299316406
ell 94, elapsed: 0.00030612945556640625
ell 93, elapsed: 0.00031495094299316406
ell 92, elapsed: 0.00030684471130371094
ell 91, elapsed: 0.000308990478515625
ell 90, elapsed: 0.00030612945556640625
ell 89, elapsed: 0.00030684471130371094
ell 88, elapsed: 0.0003039836883544922
ell 87, elapsed: 0.0002760887145996094
ell 86, elapsed: 0.0011470317840576172
ell 85, elapsed: 0.0005509853363037109
ell 84, elapsed: 0.0002970695495605469
ell 83, elapsed: 0.0002849102020263672
ell 82, elapsed: 0.00028395652770996094
ell 81, elapsed: 0.000286102294921875
ell 80, elapsed: 0.00028204917907714844
ell 79, elapsed: 0.0002830028533935547
ell 78, elapsed: 0.0002830028533935547
ell 77, elapsed: 0.0002849102020263672
ell 76, elapsed: 0.0003330707550048828
ell 75, elapsed: 0.0002949237823486328
ell 74, elapsed: 0.00028896331787109375
ell 73, elapsed: 0.00028014183044433594
ell 72, elapsed: 0.00028705596923828125
ell 71, elapsed: 0.0002951622009277344
ell 70, elapsed: 0.00028705596923828125
ell 69, elapsed: 0.0002779960632324219
ell 68, elapsed: 0.0002701282501220703
ell 67, elapsed: 0.00029587745666503906
ell 66, elapsed: 0.00029397010803222656
ell 65, elapsed: 0.00028204917907714844
ell 64, elapsed: 0.0002930164337158203
ell 63, elapsed: 0.00027108192443847656
ell 62, elapsed: 0.00024390220642089844
ell 61, elapsed: 0.0002460479736328125
ell 60, elapsed: 0.00024008750915527344
ell 59, elapsed: 0.000247955322265625
ell 58, elapsed: 0.00023889541625976562
ell 57, elapsed: 0.00024509429931640625
ell 56, elapsed: 0.00024318695068359375
ell 55, elapsed: 0.00024509429931640625
ell 54, elapsed: 0.0002741813659667969
ell 53, elapsed: 0.0002579689025878906
ell 52, elapsed: 0.00024199485778808594
ell 51, elapsed: 0.0002498626708984375
ell 50, elapsed: 0.0002429485321044922
ell 49, elapsed: 0.00025081634521484375
ell 48, elapsed: 0.00024318695068359375
ell 47, elapsed: 0.0002849102020263672
ell 46, elapsed: 0.00024199485778808594
ell 45, elapsed: 0.0002429485321044922
ell 44, elapsed: 0.00024390220642089844
ell 43, elapsed: 0.0002410411834716797
ell 42, elapsed: 0.000244140625
ell 41, elapsed: 0.0002448558807373047
ell 40, elapsed: 0.00024700164794921875
ell 39, elapsed: 0.0002460479736328125
ell 38, elapsed: 0.0002410411834716797
ell 37, elapsed: 0.0002460479736328125
ell 36, elapsed: 0.00024199485778808594
ell 35, elapsed: 0.0002410411834716797
ell 34, elapsed: 0.0002460479736328125
ell 33, elapsed: 0.0002429485321044922
ell 32, elapsed: 0.0002689361572265625
ell 31, elapsed: 0.00024390220642089844
ell 30, elapsed: 0.00024199485778808594
ell 29, elapsed: 0.00024700164794921875
ell 28, elapsed: 0.0002529621124267578
ell 27, elapsed: 0.00025081634521484375
ell 26, elapsed: 0.00024509429931640625
ell 25, elapsed: 0.0002410411834716797
ell 24, elapsed: 0.0002491474151611328
ell 23, elapsed: 0.00024509429931640625
ell 22, elapsed: 0.0002529621124267578
ell 21, elapsed: 0.00024509429931640625
ell 20, elapsed: 0.000247955322265625
ell 19, elapsed: 0.00024700164794921875
ell 18, elapsed: 0.0002460479736328125
ell 17, elapsed: 0.00029587745666503906
ell 16, elapsed: 0.00024700164794921875
ell 15, elapsed: 0.00024390220642089844
ell 14, elapsed: 0.0002739429473876953
ell 13, elapsed: 0.0003070831298828125
ell 12, elapsed: 0.0003039836883544922
ell 11, elapsed: 0.0002961158752441406
ell 10, elapsed: 0.0003039836883544922
ell 9, elapsed: 0.0003001689910888672
ell 8, elapsed: 0.0003008842468261719
ell 7, elapsed: 0.0003018379211425781
ell 6, elapsed: 0.0003018379211425781
ell 5, elapsed: 0.0002968311309814453
ell 4, elapsed: 0.0004830360412597656
ell 3, elapsed: 0.0003058910369873047
ell 2, elapsed: 0.00030517578125
ell 1, elapsed: 0.0002980232238769531
ell 0, elapsed: 0.00029921531677246094
  0.097528 seconds (11.51 k allocations: 719.594 KiB)
elapsed: 0.0003628730773925781
step:          0.050098 sec (0 allocations: 0 byte, 0.0% gc time)
swapping:      0.000272 sec (0 allocations: 0 byte, 0.0% gc time)
calc_Mellell!: 0.000597 sec (0 allocations: 0 byte, 0.0% gc time)
  t0 :  0.000216 sec (0 allocations: 0 byte, 0.0% gc time)
  tm2 : 0.009751 sec (0 allocations: 0 byte, 0.0% gc time)
  tm2s: 0.000172 sec (0 allocations: 0 byte, 0.0% gc time)
  tm4 : 0.021986 sec (0 allocations: 0 byte, 0.0% gc time)
  tp2 : 0.0 sec (0 allocations: 0 byte, 0.0% gc time)
  tp2s: 0.0 sec (0 allocations: 0 byte, 0.0% gc time)
  tp4 : 0.0 sec (0 allocations: 0 byte, 0.0% gc time)
calc_wtdll!:   0.032409 sec (1.344 k allocations: 147.0 KB, 0.0% gc time)
calc_wljj!:    0.001695 sec (6 allocations: 96 byte, 0.0% gc time)
mult_prefac!:  0.0 sec (0 allocations: 0 byte, 0.0% gc time)
convert:       0.0 sec (0 allocations: 0 byte, 0.0% gc time)
write:         0.002604 sec (0 allocations: 0 byte, 0.0% gc time)
test_rand_2f1: 0.0 sec (0 allocations: 0 byte, 0.0% gc time)
Closing outfile out/Ml21-cache.bin...   0.000004 seconds
  0.000258 seconds (36 allocations: 27.953 KiB)
make_phi():   0.001139 seconds (8.19 k allocations: 238.078 KiB)
  0.007620 seconds (11.65 k allocations: 308.688 KiB)
tskip:       1.2e-5 sec (0 allocations: 0 byte, 0.0% gc time)
tread:       0.00156 sec (17 allocations: 2.125 KB, 0.0% gc time)
tmultphi:    0.000549 sec (0 allocations: 0 byte, 0.0% gc time)
tbrfft:      0.002148 sec (0 allocations: 0 byte, 0.0% gc time)
tmultprefac: 0.001081 sec (0 allocations: 0 byte, 0.0% gc time)
toutfunc:    0.002115 sec (10.304 k allocations: 196.0 KB, 0.0% gc time)
Testing R=0.9 ... passed
Calculating fmax: 
  dlrec    = 4
  dlrecRg1 = -4
  q=1.1, R=0.8:	  0.185521 seconds (103.21 k allocations: 14.840 MiB)

  0.185695 seconds (103.26 k allocations: 14.874 MiB)
ℓ = 1202
Δℓ = 4
ΔℓRg1 = -4
N = 1600
q = 1.1
kmin = 1.0e-5
kmax = 100000.00000000004
χ0 = 0.023029999999999995
RR = RR.tsv
ℓmax = ℓmax.bin
f21 = f21.bin
kmin = 1.0e-5
kmax = 100000.0
dlrec    = 4
dlrecRg1 = -4
Output size: 5741568 bytes = 0.005347251892089844 GiB
Output size: 51264 bytes = 4.774332046508789e-5 GiB
Reading 'out/F21EllCache'...   0.021196 seconds (197 allocations: 84.203 KiB, 94.39% gc time)
ellmax: 1202
lmaxcache: 1202
fell[:,1,1] = ComplexF64[7.519068145690986e-120 - 1.8416405474382574e-135im, 7.541664537386155e-120 - 1.847175067190611e-135im]
ell 1202, elapsed: 1.5020370483398438e-5
ell 1201, elapsed: 0.00032210350036621094
ell 1200, elapsed: 0.0002949237823486328
ell 1199, elapsed: 0.00028586387634277344
ell 1198, elapsed: 0.00028514862060546875
ell 1002, elapsed: 0.008623838424682617
ell 1001, elapsed: 0.0002720355987548828
ell 1000, elapsed: 0.0002689361572265625
ell 999, elapsed: 0.0002701282501220703
ell 998, elapsed: 0.0002589225769042969
ell 902, elapsed: 0.004314899444580078
ell 901, elapsed: 0.0004649162292480469
ell 900, elapsed: 0.0002689361572265625
ell 899, elapsed: 0.0002579689025878906
ell 898, elapsed: 0.0003299713134765625
ell 802, elapsed: 0.004364967346191406
ell 801, elapsed: 0.00026798248291015625
ell 800, elapsed: 0.00039887428283691406
ell 799, elapsed: 0.0002639293670654297
ell 798, elapsed: 0.0002620220184326172
ell 702, elapsed: 0.00432586669921875
ell 701, elapsed: 0.0002617835998535156
ell 700, elapsed: 0.0002589225769042969
ell 699, elapsed: 0.00026488304138183594
ell 698, elapsed: 0.0002639293670654297
ell 602, elapsed: 0.004308938980102539
ell 601, elapsed: 0.000270843505859375
ell 600, elapsed: 0.00026679039001464844
ell 599, elapsed: 0.0002720355987548828
ell 598, elapsed: 0.0002639293670654297
ell 502, elapsed: 0.0044689178466796875
ell 501, elapsed: 0.0002741813659667969
ell 500, elapsed: 0.00026702880859375
ell 499, elapsed: 0.0002620220184326172
ell 498, elapsed: 0.00026106834411621094
ell 402, elapsed: 0.004164934158325195
ell 401, elapsed: 0.0002639293670654297
ell 400, elapsed: 0.0002567768096923828
ell 399, elapsed: 0.0002570152282714844
ell 398, elapsed: 0.0002570152282714844
ell 302, elapsed: 0.007280111312866211
ell 301, elapsed: 0.00026297569274902344
ell 300, elapsed: 0.0002429485321044922
ell 299, elapsed: 0.0002231597900390625
ell 298, elapsed: 0.0002200603485107422
ell 202, elapsed: 0.00412297248840332
ell 201, elapsed: 0.00024509429931640625
ell 200, elapsed: 0.00021600723266601562
ell 199, elapsed: 0.00025200843811035156
ell 198, elapsed: 0.0003249645233154297
ell 152, elapsed: 0.0027420520782470703
ell 151, elapsed: 0.00037980079650878906
ell 150, elapsed: 0.00037407875061035156
ell 149, elapsed: 0.0004088878631591797
ell 148, elapsed: 0.00036215782165527344
ell 127, elapsed: 0.0015969276428222656
ell 126, elapsed: 0.0003390312194824219
ell 125, elapsed: 0.0003800392150878906
ell 124, elapsed: 0.0003368854522705078
ell 123, elapsed: 0.0003371238708496094
ell 114, elapsed: 0.0009670257568359375
ell 113, elapsed: 0.00032591819763183594
ell 112, elapsed: 0.0003440380096435547
ell 111, elapsed: 0.0003800392150878906
ell 110, elapsed: 0.0003731250762939453
ell 102, elapsed: 0.0007901191711425781
ell 101, elapsed: 0.0003578662872314453
ell 100, elapsed: 0.0003781318664550781
ell 99, elapsed: 0.0004000663757324219
ell 98, elapsed: 0.0003941059112548828
ell 97, elapsed: 0.0003941059112548828
ell 96, elapsed: 0.0002880096435546875
ell 95, elapsed: 0.00029277801513671875
ell 94, elapsed: 0.00026702880859375
ell 93, elapsed: 0.00030493736267089844
ell 92, elapsed: 0.0003039836883544922
ell 91, elapsed: 0.00029397010803222656
ell 90, elapsed: 0.00030112266540527344
ell 89, elapsed: 0.00029087066650390625
ell 88, elapsed: 0.00029277801513671875
ell 87, elapsed: 0.0003209114074707031
ell 86, elapsed: 0.00029087066650390625
ell 85, elapsed: 0.0002980232238769531
ell 84, elapsed: 0.0002849102020263672
ell 83, elapsed: 0.0002892017364501953
ell 82, elapsed: 0.0002830028533935547
ell 81, elapsed: 0.0002830028533935547
ell 80, elapsed: 0.0002980232238769531
ell 79, elapsed: 0.0002911090850830078
ell 78, elapsed: 0.0002892017364501953
ell 77, elapsed: 0.0002911090850830078
ell 76, elapsed: 0.00028705596923828125
[...]
ell 618, elapsed: 0.0005710124969482422
ell 612, elapsed: 0.0009930133819580078
ell 611, elapsed: 0.0005578994750976562
ell 610, elapsed: 0.0005750656127929688
ell 609, elapsed: 0.0006029605865478516
ell 608, elapsed: 0.0005691051483154297
ell 602, elapsed: 0.0010480880737304688
ell 601, elapsed: 0.0005660057067871094
ell 600, elapsed: 0.0005741119384765625
ell 599, elapsed: 0.0005707740783691406
ell 598, elapsed: 0.0006780624389648438
ell 592, elapsed: 0.0010650157928466797
ell 591, elapsed: 0.00055694580078125
ell 590, elapsed: 0.0005710124969482422
ell 589, elapsed: 0.0005800724029541016
ell 588, elapsed: 0.0005841255187988281
ell 582, elapsed: 0.0011510848999023438
ell 581, elapsed: 0.0005660057067871094
ell 580, elapsed: 0.0005779266357421875
ell 579, elapsed: 0.0005781650543212891
ell 578, elapsed: 0.0005888938903808594
ell 572, elapsed: 0.0011219978332519531
ell 571, elapsed: 0.00057220458984375
ell 570, elapsed: 0.0005769729614257812
ell 569, elapsed: 0.0005850791931152344
ell 568, elapsed: 0.0005738735198974609
ell 562, elapsed: 0.0010619163513183594
ell 561, elapsed: 0.00061798095703125
ell 560, elapsed: 0.0005848407745361328
ell 559, elapsed: 0.0005791187286376953
ell 558, elapsed: 0.0005800724029541016
ell 552, elapsed: 0.0010600090026855469
ell 551, elapsed: 0.0005841255187988281
ell 550, elapsed: 0.0006229877471923828
ell 549, elapsed: 0.0005850791931152344
ell 548, elapsed: 0.0005810260772705078
ell 542, elapsed: 0.0010199546813964844
ell 541, elapsed: 0.0005879402160644531
ell 540, elapsed: 0.0006151199340820312
ell 539, elapsed: 0.0005800724029541016
ell 538, elapsed: 0.0005831718444824219
ell 532, elapsed: 0.0010061264038085938
ell 531, elapsed: 0.0005631446838378906
ell 530, elapsed: 0.0005750656127929688
ell 529, elapsed: 0.0006220340728759766
ell 528, elapsed: 0.0005919933319091797
ell 522, elapsed: 0.0009930133819580078
ell 521, elapsed: 0.0005660057067871094
ell 520, elapsed: 0.0005869865417480469
ell 519, elapsed: 0.0005788803100585938
ell 518, elapsed: 0.0006270408630371094
ell 512, elapsed: 0.0009920597076416016
ell 511, elapsed: 0.0005719661712646484
ell 510, elapsed: 0.0005800724029541016
ell 509, elapsed: 0.0005741119384765625
ell 508, elapsed: 0.000576019287109375
ell 502, elapsed: 0.0010349750518798828
ell 501, elapsed: 0.0005691051483154297
ell 500, elapsed: 0.0005919933319091797
ell 499, elapsed: 0.0005841255187988281
ell 498, elapsed: 0.0005948543548583984
ell 492, elapsed: 0.0010190010070800781
ell 491, elapsed: 0.0005910396575927734
ell 490, elapsed: 0.0005960464477539062
ell 489, elapsed: 0.0005829334259033203
ell 488, elapsed: 0.0005898475646972656
ell 482, elapsed: 0.0009889602661132812
ell 481, elapsed: 0.0006241798400878906
ell 480, elapsed: 0.0005910396575927734
ell 479, elapsed: 0.0005750656127929688
ell 478, elapsed: 0.0005879402160644531
ell 472, elapsed: 0.0009779930114746094
ell 471, elapsed: 0.0005738735198974609
ell 470, elapsed: 0.0006067752838134766
ell 469, elapsed: 0.0005810260772705078
ell 468, elapsed: 0.0005939006805419922
ell 462, elapsed: 0.0009732246398925781
ell 461, elapsed: 0.0005819797515869141
ell 460, elapsed: 0.0005910396575927734
ell 459, elapsed: 0.0006120204925537109
ell 458, elapsed: 0.0005910396575927734
ell 452, elapsed: 0.0009899139404296875
ell 451, elapsed: 0.0015330314636230469
ell 450, elapsed: 0.0010209083557128906
ell 449, elapsed: 0.0012919902801513672
ell 448, elapsed: 0.0013279914855957031
ell 442, elapsed: 0.001035928726196289
ell 441, elapsed: 0.00057220458984375
ell 440, elapsed: 0.0006029605865478516
ell 439, elapsed: 0.0005800724029541016
ell 438, elapsed: 0.0005950927734375
ell 432, elapsed: 0.0009851455688476562
ell 431, elapsed: 0.0006229877471923828
ell 430, elapsed: 0.0005898475646972656
ell 429, elapsed: 0.0005719661712646484
ell 428, elapsed: 0.0005719661712646484
ell 422, elapsed: 0.0009591579437255859
ell 421, elapsed: 0.0005688667297363281
ell 420, elapsed: 0.00061798095703125
ell 419, elapsed: 0.0005819797515869141
ell 418, elapsed: 0.0005888938903808594
ell 412, elapsed: 0.0009539127349853516
ell 411, elapsed: 0.0005679130554199219
ell 410, elapsed: 0.0005769729614257812
ell 409, elapsed: 0.0005819797515869141
ell 408, elapsed: 0.0005609989166259766
ell 402, elapsed: 0.0009620189666748047
ell 401, elapsed: 0.0005588531494140625
ell 400, elapsed: 0.0005621910095214844
ell 399, elapsed: 0.0005669593811035156
ell 398, elapsed: 0.0006139278411865234
ell 392, elapsed: 0.0009310245513916016
ell 391, elapsed: 0.0005459785461425781
ell 390, elapsed: 0.000576019287109375
ell 389, elapsed: 0.0005450248718261719
ell 388, elapsed: 0.0005638599395751953
ell 382, elapsed: 0.0010340213775634766
ell 381, elapsed: 0.000553131103515625
ell 380, elapsed: 0.0005700588226318359
ell 379, elapsed: 0.0005619525909423828
ell 378, elapsed: 0.0005781650543212891
ell 372, elapsed: 0.0009870529174804688
ell 371, elapsed: 0.0005869865417480469
ell 370, elapsed: 0.000576019287109375
ell 369, elapsed: 0.0005540847778320312
ell 368, elapsed: 0.0005779266357421875
ell 362, elapsed: 0.0009801387786865234
ell 361, elapsed: 0.0005688667297363281
ell 360, elapsed: 0.0006160736083984375
ell 359, elapsed: 0.0005719661712646484
ell 358, elapsed: 0.0005900859832763672
ell 352, elapsed: 0.000988006591796875
ell 351, elapsed: 0.0005750656127929688
ell 350, elapsed: 0.0005609989166259766
ell 349, elapsed: 0.0006101131439208984
ell 348, elapsed: 0.0005769729614257812
ell 342, elapsed: 0.0009870529174804688
ell 341, elapsed: 0.0005650520324707031
ell 340, elapsed: 0.0005879402160644531
ell 339, elapsed: 0.0005800724029541016
ell 338, elapsed: 0.0006248950958251953
ell 332, elapsed: 0.000988006591796875
ell 331, elapsed: 0.0005650520324707031
ell 330, elapsed: 0.0005688667297363281
ell 329, elapsed: 0.0005669593811035156
ell 328, elapsed: 0.0005691051483154297
ell 322, elapsed: 0.0009770393371582031
ell 321, elapsed: 0.0005669593811035156
ell 320, elapsed: 0.0005669593811035156
ell 319, elapsed: 0.0005609989166259766
ell 318, elapsed: 0.00057220458984375
ell 312, elapsed: 0.0009930133819580078
ell 311, elapsed: 0.0005609989166259766
ell 310, elapsed: 0.0005700588226318359
ell 309, elapsed: 0.000537872314453125
ell 308, elapsed: 0.000553131103515625
ell 302, elapsed: 0.0009329319000244141
ell 301, elapsed: 0.0005879402160644531
ell 300, elapsed: 0.0005609989166259766
ell 299, elapsed: 0.0005609989166259766
ell 298, elapsed: 0.0005619525909423828
ell 292, elapsed: 0.0009260177612304688
ell 291, elapsed: 0.0004987716674804688
ell 290, elapsed: 0.0005419254302978516
ell 289, elapsed: 0.0005719661712646484
ell 288, elapsed: 0.0005650520324707031
ell 282, elapsed: 0.0009529590606689453
ell 281, elapsed: 0.0005397796630859375
ell 280, elapsed: 0.0005581378936767578
ell 279, elapsed: 0.0005521774291992188
ell 278, elapsed: 0.0005970001220703125
ell 272, elapsed: 0.0009579658508300781
ell 271, elapsed: 0.0005521774291992188
ell 270, elapsed: 0.0005671977996826172
ell 269, elapsed: 0.0005540847778320312
ell 268, elapsed: 0.0005559921264648438
ell 262, elapsed: 0.0009729862213134766
ell 261, elapsed: 0.0005390644073486328
ell 260, elapsed: 0.0005519390106201172
ell 259, elapsed: 0.0005490779876708984
ell 258, elapsed: 0.0005459785461425781
ell 252, elapsed: 0.0009138584136962891
ell 251, elapsed: 0.0005791187286376953
ell 250, elapsed: 0.0005769729614257812
ell 249, elapsed: 0.0005030632019042969
ell 248, elapsed: 0.0004749298095703125
ell 242, elapsed: 0.0009250640869140625
ell 241, elapsed: 0.0004868507385253906
ell 240, elapsed: 0.0005650520324707031
ell 239, elapsed: 0.0004680156707763672
ell 238, elapsed: 0.0004999637603759766
ell 232, elapsed: 0.0008618831634521484
ell 231, elapsed: 0.00047397613525390625
ell 230, elapsed: 0.0005099773406982422
ell 229, elapsed: 0.0005030632019042969
ell 228, elapsed: 0.000576019287109375
ell 222, elapsed: 0.0008559226989746094
ell 221, elapsed: 0.0005319118499755859
ell 220, elapsed: 0.0005519390106201172
ell 219, elapsed: 0.0005521774291992188
ell 218, elapsed: 0.0005469322204589844
ell 212, elapsed: 0.0010030269622802734
ell 211, elapsed: 0.0005311965942382812
ell 210, elapsed: 0.0005459785461425781
ell 209, elapsed: 0.0005438327789306641
ell 208, elapsed: 0.0005540847778320312
ell 202, elapsed: 0.00096893310546875
ell 201, elapsed: 0.0006020069122314453
ell 200, elapsed: 0.0005497932434082031
ell 199, elapsed: 0.0005431175231933594
ell 198, elapsed: 0.0005519390106201172
ell 192, elapsed: 0.0009698867797851562
ell 191, elapsed: 0.0005490779876708984
ell 190, elapsed: 0.0005609989166259766
ell 189, elapsed: 0.0005679130554199219
ell 188, elapsed: 0.0005850791931152344
ell 182, elapsed: 0.0009951591491699219
ell 181, elapsed: 0.0005559921264648438
ell 180, elapsed: 0.0005791187286376953
ell 179, elapsed: 0.0005929470062255859
ell 178, elapsed: 0.0005629062652587891
ell 172, elapsed: 0.0010089874267578125
ell 171, elapsed: 0.0005631446838378906
ell 170, elapsed: 0.0005810260772705078
ell 169, elapsed: 0.0005691051483154297
ell 168, elapsed: 0.0006120204925537109
ell 162, elapsed: 0.001046895980834961
ell 161, elapsed: 0.0005729198455810547
ell 160, elapsed: 0.0005888938903808594
ell 159, elapsed: 0.0005850791931152344
ell 158, elapsed: 0.0005819797515869141
ell 152, elapsed: 0.0010519027709960938
ell 151, elapsed: 0.0005738735198974609
ell 150, elapsed: 0.0005729198455810547
ell 149, elapsed: 0.0005688667297363281
ell 148, elapsed: 0.0005838871002197266
ell 142, elapsed: 0.0010650157928466797
ell 141, elapsed: 0.0005681514739990234
ell 140, elapsed: 0.0005800724029541016
ell 139, elapsed: 0.0005640983581542969
ell 138, elapsed: 0.0005779266357421875
ell 132, elapsed: 0.0010030269622802734
ell 131, elapsed: 0.0005929470062255859
ell 130, elapsed: 0.0005688667297363281
ell 129, elapsed: 0.0005650520324707031
ell 128, elapsed: 0.0005729198455810547
ell 122, elapsed: 0.0010378360748291016
ell 121, elapsed: 0.00055694580078125
ell 120, elapsed: 0.0006120204925537109
ell 119, elapsed: 0.0005669593811035156
ell 118, elapsed: 0.0005738735198974609
ell 112, elapsed: 0.0010199546813964844
ell 111, elapsed: 0.000576019287109375
ell 110, elapsed: 0.000576019287109375
ell 109, elapsed: 0.0006389617919921875
ell 108, elapsed: 0.0005788803100585938
ell 102, elapsed: 0.0010058879852294922
ell 101, elapsed: 0.0023899078369140625
ell 100, elapsed: 0.002357006072998047
ell 99, elapsed: 0.002385854721069336
ell 98, elapsed: 0.0023751258850097656
ell 92, elapsed: 0.0047149658203125
ell 91, elapsed: 0.0023920536041259766
ell 90, elapsed: 0.002404928207397461
ell 89, elapsed: 0.0023839473724365234
ell 88, elapsed: 0.002407073974609375
ell 82, elapsed: 0.0046079158782958984
ell 81, elapsed: 0.0024268627166748047
ell 80, elapsed: 0.0023789405822753906
ell 79, elapsed: 0.002413034439086914
ell 78, elapsed: 0.0024309158325195312
ell 72, elapsed: 0.004629850387573242
ell 71, elapsed: 0.0023620128631591797
ell 70, elapsed: 0.002396821975708008
ell 69, elapsed: 0.002393007278442383
ell 68, elapsed: 0.0023148059844970703
ell 62, elapsed: 0.004539966583251953
ell 61, elapsed: 0.0023648738861083984
ell 60, elapsed: 0.0023310184478759766
ell 59, elapsed: 0.0024077892303466797
ell 58, elapsed: 0.002351999282836914
ell 52, elapsed: 0.004503011703491211
ell 51, elapsed: 0.0023310184478759766
ell 50, elapsed: 0.0023779869079589844
ell 49, elapsed: 0.0023381710052490234
ell 48, elapsed: 0.0023179054260253906
ell 42, elapsed: 0.004548072814941406
ell 41, elapsed: 0.002376079559326172
ell 40, elapsed: 0.002357006072998047
ell 39, elapsed: 0.002335071563720703
ell 38, elapsed: 0.002360105514526367
ell 32, elapsed: 0.004621028900146484
ell 31, elapsed: 0.002413034439086914
ell 30, elapsed: 0.0024080276489257812
ell 29, elapsed: 0.002393960952758789
ell 28, elapsed: 0.002307891845703125
ell 22, elapsed: 0.004230976104736328
ell 21, elapsed: 0.0023980140686035156
ell 20, elapsed: 0.00238800048828125
ell 19, elapsed: 0.002354860305786133
ell 18, elapsed: 0.0023870468139648438
ell 12, elapsed: 0.004575014114379883
ell 11, elapsed: 0.0023970603942871094
ell 10, elapsed: 0.0023491382598876953
ell 9, elapsed: 0.002376079559326172
ell 8, elapsed: 0.0023469924926757812
  0.515772 seconds (68.56 k allocations: 12.176 MiB)
elapsed: 0.0028519630432128906
step:          0.046222 sec (0 allocations: 0 byte, 0.0% gc time)
swapping:      0.000388 sec (0 allocations: 0 byte, 0.0% gc time)
calc_Mellell!: 0.018373 sec (0 allocations: 0 byte, 0.0% gc time)
  t0 :  0.007531 sec (0 allocations: 0 byte, 0.0% gc time)
  tm2 : 0.052638 sec (0 allocations: 0 byte, 0.0% gc time)
  tm2s: 0.006181 sec (0 allocations: 0 byte, 0.0% gc time)
  tm4 : 0.119232 sec (0 allocations: 0 byte, 0.0% gc time)
  tp2 : 0.0 sec (0 allocations: 0 byte, 0.0% gc time)
  tp2s: 0.0 sec (0 allocations: 0 byte, 0.0% gc time)
  tp4 : 0.0 sec (0 allocations: 0 byte, 0.0% gc time)
calc_wtdll!:   0.381385 sec (48.6 k allocations: 11.096 MB, 0.0% gc time)
calc_wljj!:    0.022236 sec (69 allocations: 1.078 KB, 0.0% gc time)
mult_prefac!:  0.0 sec (0 allocations: 0 byte, 0.0% gc time)
convert:       0.0 sec (0 allocations: 0 byte, 0.0% gc time)
write:         0.020843 sec (0 allocations: 0 byte, 0.0% gc time)
test_rand_2f1: 0.0 sec (0 allocations: 0 byte, 0.0% gc time)
Closing outfile out/MlCache/MlCache.bin...   0.000005 seconds
xi, l=0, nu=0:   0.373348 seconds (615.14 k allocations: 34.062 MiB, 7.00% gc time, 99.53% compilation time)
xi, l=0, nu=-2:  0.001523 seconds (114 allocations: 148.969 KiB)
Created 'out/xi.tsv'.
  q=1.1, R=0.6:	  0.458794 seconds (264.58 k allocations: 38.109 MiB, 3.87% gc time)
  q=1.1, R=0.7:	  0.464612 seconds (276.43 k allocations: 40.113 MiB, 2.77% gc time)
  q=1.1, R=0.8:	  0.475886 seconds (271.87 k allocations: 39.334 MiB, 1.41% gc time)
  q=1.1, R=0.9:	  0.535582 seconds (266.68 k allocations: 38.464 MiB)
  q=1.1, R=0.998:	 14.459333 seconds (126.20 k allocations: 8.290 MiB, 0.06% gc time, 0.13% compilation time)
  q=1.1, R=1.0:	  0.003043 seconds (8.20 k allocations: 704.344 KiB)

ℓ = 1000
Δℓ = 4
ΔℓRg1 = -4
N = 4096
q = 1.1
kmin = 1.0e-5
kmax = 1000.0
χ0 = 0.001
RR = RR.tsv
ℓmax = ℓmax.bin
f21 = f21.bin
kmin = 1.0e-5
kmax = 1000.0
dlrec    = 4
dlrecRg1 = -4
Output size: 1573632 bytes = 0.0014655590057373047 GiB
Output size: 786816 bytes = 0.0007327795028686523 GiB
Reading 'out/F21EllCache'...   0.001007 seconds (198 allocations: 533.078 KiB)
ellmax: 1002
lmaxcache: 1000
fell[:,1,1] = ComplexF64[1.726292812820208e-224 - 4.2281979352226965e-240im, 1.7282693092099638e-224 - 4.233038955177178e-240im]
ell 1002, elapsed: 1.0967254638671875e-5
ell 1001, elapsed: 0.0006191730499267578
ell 1000, elapsed: 0.0004968643188476562
ell 999, elapsed: 0.004043102264404297
ell 998, elapsed: 0.003983020782470703
ell 44, elapsed: 0.6142780780792236
ell 43, elapsed: 0.003947019577026367
ell 42, elapsed: 0.003960847854614258
ell 41, elapsed: 0.003935098648071289
ell 40, elapsed: 0.003909111022949219
  0.644082 seconds (4.59 k allocations: 322.266 KiB)
elapsed: 0.004702091217041016
step:          0.604754 sec (0 allocations: 0 byte, 0.0% gc time)
swapping:      0.000343 sec (0 allocations: 0 byte, 0.0% gc time)
calc_Mellell!: 0.000608 sec (0 allocations: 0 byte, 0.0% gc time)
  t0 :  0.000385 sec (0 allocations: 0 byte, 0.0% gc time)
  tm2 : 0.007516 sec (0 allocations: 0 byte, 0.0% gc time)
  tm2s: 0.00032 sec (0 allocations: 0 byte, 0.0% gc time)
  tm4 : 0.018559 sec (0 allocations: 0 byte, 0.0% gc time)
  tp2 : 0.0 sec (0 allocations: 0 byte, 0.0% gc time)
  tp2s: 0.0 sec (0 allocations: 0 byte, 0.0% gc time)
  tp4 : 0.0 sec (0 allocations: 0 byte, 0.0% gc time)
calc_wtdll!:   0.026897 sec (480 allocations: 52.5 KB, 0.0% gc time)
calc_wljj!:    0.000712 sec (1 allocations: 16 byte, 0.0% gc time)
mult_prefac!:  0.0 sec (0 allocations: 0 byte, 0.0% gc time)
convert:       0.0 sec (0 allocations: 0 byte, 0.0% gc time)
write:         0.000787 sec (0 allocations: 0 byte, 0.0% gc time)
test_rand_2f1: 0.0 sec (0 allocations: 0 byte, 0.0% gc time)
Closing outfile out/MlCache/MlCache.bin...   0.000007 seconds
  0.375961 seconds (38 allocations: 66.859 KiB)
make_phi():   0.006385 seconds (65 allocations: 275.984 KiB)
  0.040076 seconds (11.83 k allocations: 740.085 KiB, 92.18% compilation time)
tskip:       0.0 sec (0 allocations: 0 byte, 0.0% gc time)
tread:       0.000589 sec (17 allocations: 1.266 KB, 0.0% gc time)
tmultphi:    0.000228 sec (0 allocations: 0 byte, 0.0% gc time)
tbrfft:      0.000952 sec (0 allocations: 0 byte, 0.0% gc time)
tmultprefac: 0.000393 sec (0 allocations: 0 byte, 0.0% gc time)
toutfunc:    8.7e-5 sec (0 allocations: 0 byte, 0.0% gc time)
Created 'out/wl42_jj00.tsv'.
Created 'out/wl42_jj02.tsv'.
     Testing TwoFAST tests passed 

PkgEval succeeded


################################################################################
# PkgEval teardown: 2020-10-30T03:39:27.177
CPU usage: 124.20s (119.58s user, 4.65s kernel)

Network usage:
- eth0: 23.702 MiB received, 236.401 KiB sent

Raw statistics: {"blkio_stats":{"io_queue_recursive":[],"io_serviced_recursive":[{"major":259,"value":0,"op":"Read","minor":0},{"major":259,"value":13,"op":"Write","minor":0},{"major":259,"value":0,"op":"Sync","minor":0},{"major":259,"value":13,"op":"Async","minor":0},{"major":259,"value":13,"op":"Total","minor":0},{"major":253,"value":0,"op":"Read","minor":2},{"major":253,"value":13,"op":"Write","minor":2},{"major":253,"value":0,"op":"Sync","minor":2},{"major":253,"value":13,"op":"Async","minor":2},{"major":253,"value":13,"op":"Total","minor":2}],"io_time_recursive":[],"sectors_recursive":[],"io_service_bytes_recursive":[{"major":259,"value":0,"op":"Read","minor":0},{"major":259,"value":61440,"op":"Write","minor":0},{"major":259,"value":0,"op":"Sync","minor":0},{"major":259,"value":61440,"op":"Async","minor":0},{"major":259,"value":61440,"op":"Total","minor":0},{"major":253,"value":0,"op":"Read","minor":2},{"major":253,"value":61440,"op":"Write","minor":2},{"major":253,"value":0,"op":"Sync","minor":2},{"major":253,"value":61440,"op":"Async","minor":2},{"major":253,"value":61440,"op":"Total","minor":2}],"io_wait_time_recursive":[],"io_merged_recursive":[],"io_service_time_recursive":[]},"memory_stats":{"usage":311300096,"max_usage":946884608,"stats":{"hierarchical_memory_limit":9223372036854771712,"pgmajfault":0,"total_rss":199049216,"inactive_file":8192,"inactive_anon":49577984,"total_pgfault":1648011,"total_cache":105598976,"total_rss_huge":0,"total_active_anon":255053824,"total_pgmajfault":0,"pgpgin":1058251,"rss_huge":0,"mapped_file":0,"total_inactive_file":8192,"dirty":0,"total_unevictable":0,"total_dirty":0,"writeback":0,"pgpgout":983874,"hierarchical_memsw_limit":0,"cache":105598976,"active_file":8192,"pgfault":1648011,"total_mapped_file":0,"total_pgpgout":983874,"total_writeback":0,"rss":199049216,"unevictable":0,"total_inactive_anon":49577984,"total_pgpgin":1058251,"active_anon":255053824,"total_active_file":8192},"limit":540972998656},"name":"/TwoFAST-zxPx9VmP","networks":{"eth0":{"rx_bytes":24853150,"rx_packets":4922,"tx_packets":3211,"tx_bytes":242075,"tx_dropped":0,"rx_dropped":4,"tx_errors":0,"rx_errors":0}},"id":"c81de7218172f2e751d9fd52b037232b50fa69b95c530c39b09d715b0b85520b","preread":"0001-01-01T00:00:00Z","storage_stats":{},"precpu_stats":{"throttling_data":{"throttled_periods":0,"throttled_time":0,"periods":0},"cpu_usage":{"usage_in_usermode":0,"usage_in_kernelmode":0,"total_usage":0}},"pids_stats":{"current":38},"num_procs":0,"cpu_stats":{"throttling_data":{"throttled_periods":0,"throttled_time":0,"periods":0},"system_cpu_usage":112483928230000000,"online_cpus":128,"cpu_usage":{"usage_in_usermode":119580000000,"usage_in_kernelmode":4650000000,"total_usage":124198888216,"percpu_usage":[0,0,0,0,0,0,0,0,0,0,124198888216,0,0,0,0,0,0,0,0,0,0,0,0,0,0,0,0,0,0,0,0,0,0,0,0,0,0,0,0,0,0,0,0,0,0,0,0,0,0,0,0,0,0,0,0,0,0,0,0,0,0,0,0,0,0,0,0,0,0,0,0,0,0,0,0,0,0,0,0,0,0,0,0,0,0,0,0,0,0,0,0,0,0,0,0,0,0,0,0,0,0,0,0,0,0,0,0,0,0,0,0,0,0,0,0,0,0,0,0,0,0,0,0,0,0,0,0,0]}},"read":"2020-10-30T03:39:27.6765958Z"}