################################################################################
# PkgEval set-up: 2020-10-30T05:07:14.870
#

Julia Version 1.6.0-DEV.1380
Commit 300e34cf74 (2020-10-30 02:28 UTC)
Platform Info:
  OS: Linux (x86_64-linux-gnu)
  CPU: AMD EPYC 7502 32-Core Processor
  WORD_SIZE: 64
  LIBM: libopenlibm
  LLVM: libLLVM-11.0.0 (ORCJIT, znver2)
Environment:
  JULIA_DEPOT_PATH = ::/usr/local/share/julia
  JULIA_MAX_NUM_PRECOMPILE_FILES = 9223372036854775807



################################################################################
# Installation: 2020-10-30T05:07:16.262
#

   Resolving package versions...
   Installed CompilerSupportLibraries_jll ─ v0.3.4+0
   Installed AbstractFFTs ───────────────── v0.5.0
   Installed FFTW ───────────────────────── v1.2.4
   Installed GenericSchur ───────────────── v0.4.0
   Installed JLLWrappers ────────────────── v1.1.3
   Installed MKL_jll ────────────────────── v2020.2.254+0
   Installed ArbNumerics ────────────────── v1.2.1
   Installed Readables ──────────────────── v0.3.3
   Installed OpenSpecFun_jll ────────────── v0.5.3+4
   Installed SpecialFunctions ───────────── v0.10.3
   Installed BinaryProvider ─────────────── v0.5.10
   Installed GenericSVD ─────────────────── v0.3.0
   Installed Reexport ───────────────────── v0.2.0
   Installed FFTW_jll ───────────────────── v3.3.9+6
   Installed IntelOpenMP_jll ────────────── v2018.0.3+0
   Installed TwoFAST ────────────────────── v0.1.3
Updating `~/.julia/environments/v1.6/Project.toml`
  [0dd23c3e] + TwoFAST v0.1.3
Updating `~/.julia/environments/v1.6/Manifest.toml`
  [621f4979] + AbstractFFTs v0.5.0
  [7e558dbc] + ArbNumerics v1.2.1
  [b99e7846] + BinaryProvider v0.5.10
  [7a1cc6ca] + FFTW v1.2.4
  [01680d73] + GenericSVD v0.3.0
  [c145ed77] + GenericSchur v0.4.0
  [692b3bcd] + JLLWrappers v1.1.3
  [0d4725de] + Readables v0.3.3
  [189a3867] + Reexport v0.2.0
  [276daf66] + SpecialFunctions v0.10.3
  [0dd23c3e] + TwoFAST v0.1.3
  [e66e0078] + CompilerSupportLibraries_jll v0.3.4+0
  [f5851436] + FFTW_jll v3.3.9+6
  [1d5cc7b8] + IntelOpenMP_jll v2018.0.3+0
  [856f044c] + MKL_jll v2020.2.254+0
  [efe28fd5] + OpenSpecFun_jll v0.5.3+4
  [0dad84c5] + ArgTools
  [56f22d72] + Artifacts
  [2a0f44e3] + Base64
  [ade2ca70] + Dates
  [8bb1440f] + DelimitedFiles
  [f43a241f] + Downloads
  [b77e0a4c] + InteractiveUtils
  [b27032c2] + LibCURL
  [76f85450] + LibGit2
  [8f399da3] + Libdl
  [37e2e46d] + LinearAlgebra
  [56ddb016] + Logging
  [d6f4376e] + Markdown
  [a63ad114] + Mmap
  [44cfe95a] + Pkg
  [de0858da] + Printf
  [3fa0cd96] + REPL
  [9a3f8284] + Random
  [ea8e919c] + SHA
  [9e88b42a] + Serialization
  [6462fe0b] + Sockets
  [fa267f1f] + TOML
  [8dfed614] + Test
  [cf7118a7] + UUIDs
  [4ec0a83e] + Unicode
  [deac9b47] + LibCURL_jll
  [14a3606d] + MozillaCACerts_jll
    Building FFTW ───────→ `~/.julia/scratchspaces/44cfe95a-1eb2-52ea-b672-e2afdf69b78f/8b7c16b56936047ca41bf25effa137ae0b381ae8/build.log`
    Building ArbNumerics → `~/.julia/scratchspaces/44cfe95a-1eb2-52ea-b672-e2afdf69b78f/329a81d67c64e3a51c176a243b6424fbe39213d0/build.log`


################################################################################
# Testing: 2020-10-30T05:07:39.128
#


     Testing TwoFAST
Status `/tmp/jl_o2zUp2/Project.toml`
  [7e558dbc] ArbNumerics v1.2.1
  [39dd38d3] Dierckx v0.5.0
  [7a1cc6ca] FFTW v1.2.4
  [276daf66] SpecialFunctions v0.10.3
  [0dd23c3e] TwoFAST v0.1.3
  [8bb1440f] DelimitedFiles
  [37e2e46d] LinearAlgebra
  [56ddb016] Logging
  [8dfed614] Test
Status `/tmp/jl_o2zUp2/Manifest.toml`
  [621f4979] AbstractFFTs v0.5.0
  [7e558dbc] ArbNumerics v1.2.1
  [b99e7846] BinaryProvider v0.5.10
  [39dd38d3] Dierckx v0.5.0
  [7a1cc6ca] FFTW v1.2.4
  [01680d73] GenericSVD v0.3.0
  [c145ed77] GenericSchur v0.4.0
  [692b3bcd] JLLWrappers v1.1.3
  [0d4725de] Readables v0.3.3
  [189a3867] Reexport v0.2.0
  [276daf66] SpecialFunctions v0.10.3
  [0dd23c3e] TwoFAST v0.1.3
  [e66e0078] CompilerSupportLibraries_jll v0.3.4+0
  [cd4c43a9] Dierckx_jll v0.0.1+0
  [f5851436] FFTW_jll v3.3.9+6
  [1d5cc7b8] IntelOpenMP_jll v2018.0.3+0
  [856f044c] MKL_jll v2020.2.254+0
  [efe28fd5] OpenSpecFun_jll v0.5.3+4
  [0dad84c5] ArgTools
  [56f22d72] Artifacts
  [2a0f44e3] Base64
  [ade2ca70] Dates
  [8bb1440f] DelimitedFiles
  [f43a241f] Downloads
  [b77e0a4c] InteractiveUtils
  [b27032c2] LibCURL
  [76f85450] LibGit2
  [8f399da3] Libdl
  [37e2e46d] LinearAlgebra
  [56ddb016] Logging
  [d6f4376e] Markdown
  [a63ad114] Mmap
  [44cfe95a] Pkg
  [de0858da] Printf
  [3fa0cd96] REPL
  [9a3f8284] Random
  [ea8e919c] SHA
  [9e88b42a] Serialization
  [6462fe0b] Sockets
  [fa267f1f] TOML
  [8dfed614] Test
  [cf7118a7] UUIDs
  [4ec0a83e] Unicode
  [deac9b47] LibCURL_jll
  [14a3606d] MozillaCACerts_jll
     Testing Running tests...
WARNING: could not import Printf.ini_hex into ArbNumerics
WARNING: could not import Printf.ini_HEX into ArbNumerics
t = 0.0 sec (0 allocations: 0 byte, 0.0% gc time)
typeof(t) = NamedTuple{(:value, :time, :bytes, :gctime, :gcstats), Tuple{DataType, Float64, Int64, Float64, Base.GC_Diff}}
TwoFAST.PerformanceStats.TimedType = Union{NamedTuple{(:value, :time, :bytes, :gctime, :gcstats), Tuple{T, Float64, Int64, Float64, Base.GC_Diff}}, Tuple{Any, Float64, Int64, Float64, Base.GC_Diff}} where T
t = 0.0 sec (0 allocations: 0 byte, 0.0% gc time)
t: 0.0 sec (0 allocations: 0 byte, 0.0% gc time)
Testing ξ(r), ℓ=0, ν=-1 ... passed
Testing ξ(r), ℓ=0, ν=0 ... passed
Testing ξ(r), ℓ=0, ν=1 ... passed
Testing ξ(r), ℓ=0, ν=2 ... passed
Testing ξ(r), ℓ=0, ν=3 ... passed
Testing ξ(r), ℓ=1, ν=0 ... passed
Testing ξ(r), ℓ=1, ν=1 ... passed
Testing ξ(r), ℓ=1, ν=2 ... passed
Testing ξ(r), ℓ=1, ν=3 ... passed
Testing ξ(r), ℓ=2, ν=-1 ... passed
Testing ξ(r), ℓ=2, ν=0 ... passed
Testing ξ(r), ℓ=2, ν=1 ... passed
Testing ξ(r), ℓ=2, ν=2 ... passed
Testing ξ(r), ℓ=2, ν=3 ... passed
Testing ξ(r), ℓ=3, ν=-1 ... passed
Testing ξ(r), ℓ=3, ν=0 ... passed
Testing ξ(r), ℓ=3, ν=1 ... passed
Testing ξ(r), ℓ=3, ν=2 ... passed
Testing ξ(r), ℓ=3, ν=3 ... passed
Testing ξ(r), ℓ=4, ν=-1 ... passed
Testing ξ(r), ℓ=4, ν=0 ... passed
Testing ξ(r), ℓ=4, ν=1 ... passed
Testing ξ(r), ℓ=4, ν=2 ... passed
Testing ξ(r), ℓ=4, ν=3 ... passed
Testing ξ(r) ... passed
Testing ξ′(r) ... passed
Testing ξ″(r) ... passed
Calculating fmax: 
  dlrec    = 4
  dlrecRg1 = -4
  q=1.1, R=1.1:	  3.463202 seconds (860.45 k allocations: 55.188 MiB, 0.85% gc time, 92.01% compilation time)

  3.464320 seconds (860.51 k allocations: 55.224 MiB, 0.85% gc time, 91.98% compilation time)
ℓ = 1202
Δℓ = 4
ΔℓRg1 = -4
N = 1600
q = 1.1
kmin = 1.0e-5
kmax = 100000.00000000004
χ0 = 0.023029999999999995
RR = RR.tsv
ℓmax = ℓmax.bin
f21 = f21.bin
kmin = 1.0e-5
kmax = 100000.0
dlrec    = 4
dlrecRg1 = -4
Output size: 5741568 bytes = 0.005347251892089844 GiB
Output size: 51264 bytes = 4.774332046508789e-5 GiB
Reading 'out/F21EllCache'...   0.593527 seconds (433.74 k allocations: 25.621 MiB, 99.57% compilation time)
ellmax: 1202
lmaxcache: 1202
fell[:,1,1] = ComplexF64[3.9583795592771634e-52 - 9.695233714158177e-68im, 3.990121772925759e-52 - 9.772979714843386e-68im]
ell 1202, elapsed: 6.985664367675781e-5
ell 1201, elapsed: 1.063194990158081
ell 1200, elapsed: 0.0004448890686035156
ell 1199, elapsed: 0.0004138946533203125
ell 1198, elapsed: 0.0004169940948486328
ell 1002, elapsed: 0.009057998657226562
ell 1001, elapsed: 0.0004229545593261719
ell 1000, elapsed: 0.0004608631134033203
ell 999, elapsed: 0.00040912628173828125
ell 998, elapsed: 0.00040793418884277344
ell 902, elapsed: 0.004675149917602539
ell 901, elapsed: 0.0004279613494873047
ell 900, elapsed: 0.00041413307189941406
ell 899, elapsed: 0.0004169940948486328
ell 898, elapsed: 0.0004138946533203125
ell 802, elapsed: 0.004734992980957031
ell 801, elapsed: 0.0004210472106933594
ell 800, elapsed: 0.0004138946533203125
ell 799, elapsed: 0.000408172607421875
ell 798, elapsed: 0.0004100799560546875
ell 702, elapsed: 0.004654884338378906
ell 701, elapsed: 0.0004241466522216797
ell 700, elapsed: 0.00041103363037109375
ell 699, elapsed: 0.0004138946533203125
ell 698, elapsed: 0.0004391670227050781
ell 602, elapsed: 0.004759788513183594
ell 601, elapsed: 0.0004169940948486328
ell 600, elapsed: 0.00041294097900390625
ell 599, elapsed: 0.00040912628173828125
ell 598, elapsed: 0.0004050731658935547
ell 502, elapsed: 0.0046939849853515625
ell 501, elapsed: 0.00045490264892578125
ell 500, elapsed: 0.0004050731658935547
ell 499, elapsed: 0.0004088878631591797
ell 498, elapsed: 0.0004100799560546875
ell 402, elapsed: 0.0046689510345458984
ell 401, elapsed: 0.0004220008850097656
ell 400, elapsed: 0.00041103363037109375
ell 399, elapsed: 0.0004119873046875
ell 398, elapsed: 0.00040984153747558594
ell 302, elapsed: 0.004698038101196289
ell 301, elapsed: 0.0004220008850097656
ell 300, elapsed: 0.0004050731658935547
ell 299, elapsed: 0.0004050731658935547
ell 298, elapsed: 0.00041103363037109375
ell 202, elapsed: 0.004705905914306641
ell 201, elapsed: 0.0004241466522216797
ell 200, elapsed: 0.0004119873046875
ell 199, elapsed: 0.0004341602325439453
ell 198, elapsed: 0.00040984153747558594
ell 152, elapsed: 0.00244903564453125
ell 151, elapsed: 0.00042700767517089844
ell 150, elapsed: 0.0004661083221435547
ell 149, elapsed: 0.00040984153747558594
ell 148, elapsed: 0.0004100799560546875
ell 127, elapsed: 0.0013399124145507812
ell 126, elapsed: 0.00041294097900390625
ell 125, elapsed: 0.0004150867462158203
ell 124, elapsed: 0.0004131793975830078
ell 123, elapsed: 0.0004391670227050781
ell 114, elapsed: 0.000820159912109375
ell 113, elapsed: 0.0004010200500488281
ell 112, elapsed: 0.0004010200500488281
ell 111, elapsed: 0.0004131793975830078
ell 110, elapsed: 0.00040984153747558594
ell 102, elapsed: 0.0007588863372802734
ell 101, elapsed: 0.0004050731658935547
ell 100, elapsed: 0.0004410743713378906
ell 99, elapsed: 0.0004107952117919922
ell 98, elapsed: 0.0004119873046875
ell 97, elapsed: 0.00047516822814941406
ell 96, elapsed: 0.0004551410675048828
ell 95, elapsed: 0.0004818439483642578
ell 94, elapsed: 0.0004589557647705078
ell 93, elapsed: 0.0004570484161376953
ell 92, elapsed: 0.0004508495330810547
ell 91, elapsed: 0.0004971027374267578
ell 90, elapsed: 0.0004589557647705078
ell 89, elapsed: 0.000453948974609375
ell 88, elapsed: 0.0004489421844482422
ell 87, elapsed: 0.00045180320739746094
ell 86, elapsed: 0.00044798851013183594
ell 85, elapsed: 0.0004620552062988281
ell 84, elapsed: 0.0004420280456542969
ell 83, elapsed: 0.0004870891571044922
ell 82, elapsed: 0.0004489421844482422
ell 81, elapsed: 0.00044989585876464844
ell 80, elapsed: 0.00045490264892578125
ell 79, elapsed: 0.00045013427734375
ell 78, elapsed: 0.00044083595275878906
ell 77, elapsed: 0.00045108795166015625
ell 76, elapsed: 0.00044798851013183594
ell 75, elapsed: 0.0004520416259765625
ell 74, elapsed: 0.0005140304565429688
ell 73, elapsed: 0.00044989585876464844
ell 72, elapsed: 0.00045490264892578125
ell 71, elapsed: 0.0004420280456542969
ell 70, elapsed: 0.0004520416259765625
ell 69, elapsed: 0.00044608116149902344
ell 68, elapsed: 0.0004489421844482422
ell 67, elapsed: 0.00045299530029296875
ell 66, elapsed: 0.0004990100860595703
ell 65, elapsed: 0.00045990943908691406
ell 64, elapsed: 0.00044798851013183594
ell 63, elapsed: 0.00044608116149902344
ell 62, elapsed: 0.00045609474182128906
ell 61, elapsed: 0.0004448890686035156
ell 60, elapsed: 0.0004611015319824219
ell 59, elapsed: 0.00044989585876464844
ell 58, elapsed: 0.00045013427734375
ell 57, elapsed: 0.0004870891571044922
ell 56, elapsed: 0.0004489421844482422
ell 55, elapsed: 0.0004611015319824219
ell 54, elapsed: 0.000453948974609375
ell 53, elapsed: 0.00043582916259765625
ell 52, elapsed: 0.00045609474182128906
ell 51, elapsed: 0.00045490264892578125
ell 50, elapsed: 0.0004589557647705078
ell 49, elapsed: 0.0005068778991699219
ell 48, elapsed: 0.000453948974609375
ell 47, elapsed: 0.00046706199645996094
ell 46, elapsed: 0.0004489421844482422
ell 45, elapsed: 0.00047206878662109375
ell 44, elapsed: 0.0004601478576660156
ell 43, elapsed: 0.00047516822814941406
ell 42, elapsed: 0.0004558563232421875
ell 41, elapsed: 0.0004940032958984375
ell 40, elapsed: 0.00046896934509277344
ell 39, elapsed: 0.00046181678771972656
ell 38, elapsed: 0.00046706199645996094
ell 37, elapsed: 0.00045800209045410156
ell 36, elapsed: 0.00045299530029296875
ell 35, elapsed: 0.0004658699035644531
ell 34, elapsed: 0.0004601478576660156
ell 33, elapsed: 0.0004668235778808594
ell 32, elapsed: 0.0004940032958984375
ell 31, elapsed: 0.0004589557647705078
ell 30, elapsed: 0.0004649162292480469
ell 29, elapsed: 0.0004620552062988281
ell 28, elapsed: 0.00047707557678222656
ell 27, elapsed: 0.00045609474182128906
ell 26, elapsed: 0.0004630088806152344
ell 25, elapsed: 0.0004649162292480469
ell 24, elapsed: 0.0005121231079101562
ell 23, elapsed: 0.00045609474182128906
ell 22, elapsed: 0.0004508495330810547
ell 21, elapsed: 0.0004420280456542969
ell 20, elapsed: 0.0004570484161376953
ell 19, elapsed: 0.00045299530029296875
ell 18, elapsed: 0.0004649162292480469
ell 17, elapsed: 0.00045180320739746094
ell 16, elapsed: 0.0004999637603759766
ell 15, elapsed: 0.0004611015319824219
ell 14, elapsed: 0.0004489421844482422
ell 13, elapsed: 0.00047206878662109375
ell 12, elapsed: 0.000453948974609375
ell 11, elapsed: 0.0004439353942871094
ell 10, elapsed: 0.0004570484161376953
ell 9, elapsed: 0.00045180320739746094
ell 8, elapsed: 0.0004668235778808594
ell 7, elapsed: 0.0004889965057373047
ell 6, elapsed: 0.0004570484161376953
ell 5, elapsed: 0.0004570484161376953
ell 4, elapsed: 0.0004520416259765625
ell 3, elapsed: 0.0004630088806152344
ell 2, elapsed: 0.0004489421844482422
ell 1, elapsed: 0.0004589557647705078
ell 0, elapsed: 0.0004630088806152344
  1.512401 seconds (1.40 M allocations: 76.282 MiB, 1.70% gc time, 91.78% compilation time)
elapsed: 0.0005819797515869141
step:          0.314733 sec (315.761 k allocations: 17.395 MB, 8.17% gc time)
swapping:      0.00031 sec (0 allocations: 0 byte, 0.0% gc time)
calc_Mellell!: 0.114239 sec (137.693 k allocations: 7.624 MB, 0.0% gc time)
  t0 :  0.0 sec (0 allocations: 0 byte, 0.0% gc time)
  tm2 : 0.0 sec (0 allocations: 0 byte, 0.0% gc time)
  tm2s: 0.0 sec (0 allocations: 0 byte, 0.0% gc time)
  tm4 : 0.0 sec (0 allocations: 0 byte, 0.0% gc time)
  tp2 : 0.0 sec (0 allocations: 0 byte, 0.0% gc time)
  tp2s: 0.0 sec (0 allocations: 0 byte, 0.0% gc time)
  tp4 : 0.0 sec (0 allocations: 0 byte, 0.0% gc time)
calc_wtdll!:   0.745538 sec (514.999 k allocations: 28.645 MB, 0.0% gc time)
calc_wljj!:    0.00209 sec (6 allocations: 96 byte, 0.0% gc time)
mult_prefac!:  0.0 sec (0 allocations: 0 byte, 0.0% gc time)
convert:       0.0 sec (0 allocations: 0 byte, 0.0% gc time)
write:         0.003169 sec (0 allocations: 0 byte, 0.0% gc time)
test_rand_2f1: 0.0 sec (0 allocations: 0 byte, 0.0% gc time)
Closing outfile out/Ml21-cache.bin...   0.000009 seconds
  0.894233 seconds (251.66 k allocations: 14.631 MiB, 38.01% compilation time)
make_phi():   0.008213 seconds (8.19 k allocations: 238.078 KiB)
  0.220448 seconds (89.37 k allocations: 4.884 MiB, 94.69% compilation time)
tskip:       1.8e-5 sec (0 allocations: 0 byte, 0.0% gc time)
tread:       0.00209 sec (17 allocations: 2.125 KB, 0.0% gc time)
tmultphi:    0.035839 sec (22.005 k allocations: 1.33 MB, 0.0% gc time)
tbrfft:      0.003516 sec (0 allocations: 0 byte, 0.0% gc time)
tmultprefac: 0.001456 sec (0 allocations: 0 byte, 0.0% gc time)
toutfunc:    0.138595 sec (65.706 k allocations: 3.423 MB, 0.0% gc time)
Testing R=1.1 ... passed
Calculating fmax: 
  dlrec    = 4
  dlrecRg1 = -4
  q=1.1, R=1.0:	  0.001252 seconds (3.20 k allocations: 275.344 KiB)

  0.001546 seconds (3.25 k allocations: 309.922 KiB)
ℓ = 1202
Δℓ = 4
ΔℓRg1 = -4
N = 1600
q = 1.1
kmin = 1.0e-5
kmax = 100000.00000000004
χ0 = 0.023029999999999995
RR = RR.tsv
ℓmax = ℓmax.bin
f21 = f21.bin
kmin = 1.0e-5
kmax = 100000.0
dlrec    = 4
dlrecRg1 = -4
Output size: 61465536 bytes = 0.05724424123764038 GiB
Output size: 51264 bytes = 4.774332046508789e-5 GiB
Reading 'out/F21EllCache'...   0.000768 seconds (197 allocations: 84.203 KiB)
ellmax: 1202
lmaxcache: 1202
fell[:,1,1] = ComplexF64[809.6031528389767 - 1.9829558194077161e-13im, 0.0 + 0.0im]
ell 1202, elapsed: 2.7894973754882812e-5
ell 1201, elapsed: 0.014909029006958008
ell 1200, elapsed: 0.014976978302001953
ell 1199, elapsed: 0.00028896331787109375
ell 1198, elapsed: 0.0002818107604980469
ell 1197, elapsed: 0.00035309791564941406
ell 1196, elapsed: 0.0003199577331542969
ell 1195, elapsed: 0.00031685829162597656
ell 1194, elapsed: 0.0003180503845214844
ell 1193, elapsed: 0.0003199577331542969
ell 1192, elapsed: 0.0003478527069091797
ell 1191, elapsed: 0.000308990478515625
ell 1190, elapsed: 0.00031304359436035156
ell 1189, elapsed: 0.00031304359436035156
ell 1188, elapsed: 0.0003170967102050781
ell 1187, elapsed: 0.0003190040588378906
ell 1186, elapsed: 0.0003120899200439453
ell 1185, elapsed: 0.0003101825714111328
ell 1184, elapsed: 0.0003101825714111328
ell 1183, elapsed: 0.0003120899200439453
ell 1182, elapsed: 0.00031304359436035156
ell 1181, elapsed: 0.0003190040588378906
ell 1180, elapsed: 0.0003669261932373047
ell 1179, elapsed: 0.0003151893615722656
ell 1178, elapsed: 0.00031495094299316406
ell 1177, elapsed: 0.0003170967102050781
ell 1176, elapsed: 0.0003139972686767578
ell 1175, elapsed: 0.0003139972686767578
ell 1174, elapsed: 0.0003120899200439453
ell 1173, elapsed: 0.0003178119659423828
ell 1172, elapsed: 0.0003139972686767578
ell 1171, elapsed: 0.00030994415283203125
ell 1170, elapsed: 0.00030994415283203125
ell 1169, elapsed: 0.00031185150146484375
ell 1168, elapsed: 0.00035881996154785156
ell 1167, elapsed: 0.00031280517578125
ell 1166, elapsed: 0.00032019615173339844
ell 1165, elapsed: 0.00030994415283203125
ell 1164, elapsed: 0.0003101825714111328
ell 1163, elapsed: 0.0003199577331542969
ell 1162, elapsed: 0.0003190040588378906
ell 1161, elapsed: 0.0003178119659423828
ell 1160, elapsed: 0.00031304359436035156
ell 1159, elapsed: 0.00032591819763183594
ell 1158, elapsed: 0.00031304359436035156
ell 1157, elapsed: 0.0003159046173095703
ell 1156, elapsed: 0.00036597251892089844
ell 1155, elapsed: 0.00031304359436035156
ell 1154, elapsed: 0.0003230571746826172
ell 1153, elapsed: 0.0003139972686767578
ell 1152, elapsed: 0.0003178119659423828
ell 1151, elapsed: 0.0003211498260498047
ell 1150, elapsed: 0.0003170967102050781
ell 1149, elapsed: 0.0003190040588378906
ell 1148, elapsed: 0.0003218650817871094
ell 1147, elapsed: 0.00031495094299316406
ell 1146, elapsed: 0.0003209114074707031
ell 1145, elapsed: 0.00031304359436035156
ell 1144, elapsed: 0.00032401084899902344
ell 1143, elapsed: 0.0003151893615722656
ell 1142, elapsed: 0.0003151893615722656
ell 1141, elapsed: 0.00032591819763183594
ell 1140, elapsed: 0.0003139972686767578
ell 1139, elapsed: 0.0003190040588378906
ell 1138, elapsed: 0.0003190040588378906
ell 1137, elapsed: 0.0003139972686767578
ell 1136, elapsed: 0.00032401084899902344
ell 1135, elapsed: 0.0003120899200439453
ell 1134, elapsed: 0.0003161430358886719
ell 1133, elapsed: 0.00035881996154785156
ell 1132, elapsed: 0.0003101825714111328
ell 1131, elapsed: 0.0003199577331542969
ell 1130, elapsed: 0.00031304359436035156
ell 1129, elapsed: 0.00031495094299316406
ell 1128, elapsed: 0.0003139972686767578
ell 1127, elapsed: 0.0003199577331542969
ell 1126, elapsed: 0.00032401084899902344
ell 1125, elapsed: 0.0003161430358886719
ell 1124, elapsed: 0.0003230571746826172
ell 1123, elapsed: 0.0003170967102050781
ell 1122, elapsed: 0.0003180503845214844
ell 1121, elapsed: 0.0003459453582763672
ell 1120, elapsed: 0.0003139972686767578
ell 1119, elapsed: 0.0003180503845214844
ell 1118, elapsed: 0.0003161430358886719
ell 1117, elapsed: 0.00031185150146484375
ell 1116, elapsed: 0.00032210350036621094
ell 1115, elapsed: 0.0003211498260498047
ell 1114, elapsed: 0.0003211498260498047
ell 1113, elapsed: 0.00031495094299316406
ell 1112, elapsed: 0.0003108978271484375
ell 1111, elapsed: 0.0003230571746826172
ell 1110, elapsed: 0.0003108978271484375
ell 1109, elapsed: 0.0003409385681152344
ell 1108, elapsed: 0.0003139972686767578
ell 1107, elapsed: 0.0003190040588378906
ell 1106, elapsed: 0.00031113624572753906
ell 1105, elapsed: 0.0003139972686767578
ell 1104, elapsed: 0.0003139972686767578
ell 1103, elapsed: 0.0003209114074707031
ell 1102, elapsed: 0.0003180503845214844
ell 1101, elapsed: 0.0003139972686767578
ell 1100, elapsed: 0.0003120899200439453
ell 1099, elapsed: 0.0003159046173095703
ell 1098, elapsed: 0.000308990478515625
ell 1097, elapsed: 0.00039887428283691406
ell 1096, elapsed: 0.000308990478515625
ell 1095, elapsed: 0.0003180503845214844
ell 1094, elapsed: 0.0003180503845214844
ell 1093, elapsed: 0.00031185150146484375
ell 1092, elapsed: 0.0003159046173095703
ell 1091, elapsed: 0.0003070831298828125
ell 1090, elapsed: 0.00031685829162597656
ell 1089, elapsed: 0.0003211498260498047
ell 1088, elapsed: 0.00031280517578125
ell 1087, elapsed: 0.0003190040588378906
ell 1086, elapsed: 0.0003108978271484375
ell 1085, elapsed: 0.0003490447998046875
ell 1084, elapsed: 0.0003209114074707031
ell 1083, elapsed: 0.00031280517578125
ell 1082, elapsed: 0.0003199577331542969
ell 1081, elapsed: 0.00031495094299316406
ell 1080, elapsed: 0.0003170967102050781
ell 1079, elapsed: 0.0003190040588378906
ell 1078, elapsed: 0.0003170967102050781
ell 1077, elapsed: 0.0003170967102050781
ell 1076, elapsed: 0.0003180503845214844
ell 1075, elapsed: 0.00031495094299316406
ell 1074, elapsed: 0.0003161430358886719
ell 1073, elapsed: 0.0003600120544433594
ell 1072, elapsed: 0.0003211498260498047
ell 1071, elapsed: 0.00031185150146484375
ell 1070, elapsed: 0.0003180503845214844
ell 1069, elapsed: 0.00031280517578125
ell 1068, elapsed: 0.00031113624572753906
ell 1067, elapsed: 0.00032401084899902344
ell 1066, elapsed: 0.0003139972686767578
ell 1065, elapsed: 0.0003101825714111328
ell 1064, elapsed: 0.00032019615173339844
ell 1063, elapsed: 0.0003101825714111328
ell 1062, elapsed: 0.0003139972686767578
ell 1061, elapsed: 0.00034499168395996094
ell 1060, elapsed: 0.0003151893615722656
ell 1059, elapsed: 0.0003349781036376953
ell 1058, elapsed: 0.0003170967102050781
ell 1057, elapsed: 0.00031280517578125
ell 1056, elapsed: 0.0003120899200439453
ell 1055, elapsed: 0.0003249645233154297
ell 1054, elapsed: 0.000308990478515625
ell 1053, elapsed: 0.0003120899200439453
ell 1052, elapsed: 0.0003159046173095703
ell 1051, elapsed: 0.0003139972686767578
ell 1050, elapsed: 0.0003190040588378906
ell 1049, elapsed: 0.00034689903259277344
ell 1048, elapsed: 0.00031304359436035156
ell 1047, elapsed: 0.0003190040588378906
ell 1046, elapsed: 0.00030994415283203125
ell 1045, elapsed: 0.00031685829162597656
ell 1044, elapsed: 0.00031113624572753906
ell 1043, elapsed: 0.00031304359436035156
ell 1042, elapsed: 0.0003170967102050781
ell 1041, elapsed: 0.00030994415283203125
ell 1040, elapsed: 0.00031495094299316406
ell 1039, elapsed: 0.0003161430358886719
ell 1038, elapsed: 0.0003120899200439453
ell 1037, elapsed: 0.0004000663757324219
ell 1036, elapsed: 0.0003151893615722656
ell 1035, elapsed: 0.0003180503845214844
ell 1034, elapsed: 0.0003190040588378906
ell 1033, elapsed: 0.00031304359436035156
ell 1032, elapsed: 0.0003209114074707031
ell 1031, elapsed: 0.0003120899200439453
ell 1030, elapsed: 0.00031876564025878906
ell 1029, elapsed: 0.0003139972686767578
ell 1028, elapsed: 0.0003151893615722656
ell 1027, elapsed: 0.00032019615173339844
ell 1026, elapsed: 0.0003209114074707031
ell 1025, elapsed: 0.00034999847412109375
ell 1024, elapsed: 0.0003190040588378906
ell 1023, elapsed: 0.0003139972686767578
ell 1022, elapsed: 0.0003249645233154297
ell 1021, elapsed: 0.00031304359436035156
ell 1020, elapsed: 0.0003209114074707031
ell 1019, elapsed: 0.00031113624572753906
ell 1018, elapsed: 0.0003139972686767578
ell 1017, elapsed: 0.0003180503845214844
ell 1016, elapsed: 0.00031185150146484375
ell 1015, elapsed: 0.0003190040588378906
ell 1014, elapsed: 0.0003159046173095703
ell 1013, elapsed: 0.0003631114959716797
ell 1012, elapsed: 0.0003180503845214844
ell 1011, elapsed: 0.00031113624572753906
ell 1010, elapsed: 0.0003159046173095703
ell 1009, elapsed: 0.00031185150146484375
ell 1008, elapsed: 0.0003139972686767578
ell 1007, elapsed: 0.00031495094299316406
ell 1006, elapsed: 0.0003139972686767578
ell 1005, elapsed: 0.0003159046173095703
ell 1004, elapsed: 0.0003139972686767578
ell 1003, elapsed: 0.00030994415283203125
ell 1002, elapsed: 0.0003190040588378906
ell 1001, elapsed: 0.0003561973571777344
ell 1000, elapsed: 0.0003199577331542969
ell 999, elapsed: 0.0003101825714111328
ell 998, elapsed: 0.0003178119659423828
ell 997, elapsed: 0.000308990478515625
ell 996, elapsed: 0.00030994415283203125
ell 995, elapsed: 0.0003180503845214844
ell 994, elapsed: 0.0003139972686767578
ell 993, elapsed: 0.0003161430358886719
ell 992, elapsed: 0.00030994415283203125
ell 991, elapsed: 0.00031685829162597656
ell 990, elapsed: 0.0003139972686767578
ell 989, elapsed: 0.0003669261932373047
ell 988, elapsed: 0.00031495094299316406
ell 987, elapsed: 0.0003161430358886719
ell 986, elapsed: 0.0003058910369873047
ell 985, elapsed: 0.0003159046173095703
ell 984, elapsed: 0.000308990478515625
ell 983, elapsed: 0.0003170967102050781
ell 982, elapsed: 0.00030994415283203125
ell 981, elapsed: 0.00030493736267089844
ell 980, elapsed: 0.00030684471130371094
ell 979, elapsed: 0.00031304359436035156
ell 978, elapsed: 0.0003209114074707031
ell 977, elapsed: 0.00035881996154785156
ell 976, elapsed: 0.00032019615173339844
ell 975, elapsed: 0.00032806396484375
ell 974, elapsed: 0.0003159046173095703
ell 973, elapsed: 0.0003230571746826172
ell 972, elapsed: 0.0003108978271484375
ell 971, elapsed: 0.00030994415283203125
ell 970, elapsed: 0.0003218650817871094
ell 969, elapsed: 0.00031495094299316406
ell 968, elapsed: 0.0003380775451660156
ell 967, elapsed: 0.0003170967102050781
ell 966, elapsed: 0.0003170967102050781
ell 965, elapsed: 0.00038909912109375
ell 964, elapsed: 0.0003170967102050781
ell 963, elapsed: 0.0003249645233154297
ell 962, elapsed: 0.0003199577331542969
ell 961, elapsed: 0.0003139972686767578
ell 960, elapsed: 0.00032401084899902344
ell 959, elapsed: 0.0003159046173095703
ell 958, elapsed: 0.0003230571746826172
ell 957, elapsed: 0.0003159046173095703
ell 956, elapsed: 0.00032401084899902344
ell 955, elapsed: 0.0003249645233154297
ell 954, elapsed: 0.00031304359436035156
ell 953, elapsed: 0.00037407875061035156
ell 952, elapsed: 0.0003199577331542969
ell 951, elapsed: 0.0003180503845214844
ell 950, elapsed: 0.0003249645233154297
ell 949, elapsed: 0.0003139972686767578
ell 948, elapsed: 0.0003268718719482422
ell 947, elapsed: 0.00032711029052734375
ell 946, elapsed: 0.00033092498779296875
ell 945, elapsed: 0.0003180503845214844
ell 944, elapsed: 0.0003199577331542969
ell 943, elapsed: 0.00032520294189453125
ell 942, elapsed: 0.0003228187561035156
ell 941, elapsed: 0.00032806396484375
ell 940, elapsed: 0.0003170967102050781
ell 939, elapsed: 0.0003211498260498047
ell 938, elapsed: 0.00032401084899902344
ell 937, elapsed: 0.00031495094299316406
ell 936, elapsed: 0.00032711029052734375
ell 935, elapsed: 0.00031304359436035156
ell 934, elapsed: 0.00031685829162597656
ell 933, elapsed: 0.0003209114074707031
ell 932, elapsed: 0.0003180503845214844
ell 931, elapsed: 0.0003190040588378906
ell 930, elapsed: 0.00034499168395996094
ell 929, elapsed: 0.0003190040588378906
ell 928, elapsed: 0.00032782554626464844
ell 927, elapsed: 0.00032210350036621094
ell 926, elapsed: 0.0003178119659423828
ell 925, elapsed: 0.0003161430358886719
ell 924, elapsed: 0.00031113624572753906
ell 923, elapsed: 0.00031280517578125
ell 922, elapsed: 0.0003120899200439453
ell 921, elapsed: 0.00032019615173339844
ell 920, elapsed: 0.00031304359436035156
ell 919, elapsed: 0.0003159046173095703
ell 918, elapsed: 0.0003590583801269531
ell 917, elapsed: 0.0003159046173095703
ell 916, elapsed: 0.0003199577331542969
ell 915, elapsed: 0.00031304359436035156
ell 914, elapsed: 0.0003108978271484375
ell 913, elapsed: 0.0003180503845214844
ell 912, elapsed: 0.0003070831298828125
ell 911, elapsed: 0.0003180503845214844
ell 910, elapsed: 0.0003108978271484375
ell 909, elapsed: 0.000308990478515625
ell 908, elapsed: 0.00031495094299316406
ell 907, elapsed: 0.00030803680419921875
ell 906, elapsed: 0.00034809112548828125
ell 905, elapsed: 0.0003120899200439453
ell 904, elapsed: 0.00030994415283203125
ell 903, elapsed: 0.00031495094299316406
ell 902, elapsed: 0.00031280517578125
ell 901, elapsed: 0.0003180503845214844
ell 900, elapsed: 0.00030684471130371094
ell 899, elapsed: 0.0003070831298828125
ell 898, elapsed: 0.0003180503845214844
ell 897, elapsed: 0.0003120899200439453
ell 896, elapsed: 0.00033211708068847656
ell 895, elapsed: 0.0003101825714111328
ell 894, elapsed: 0.00032401084899902344
ell 893, elapsed: 0.00031304359436035156
ell 892, elapsed: 0.00031304359436035156
ell 891, elapsed: 0.00032806396484375
ell 890, elapsed: 0.0003120899200439453
ell 889, elapsed: 0.00031304359436035156
ell 888, elapsed: 0.0003170967102050781
ell 887, elapsed: 0.00031495094299316406
ell 886, elapsed: 0.00032591819763183594
ell 885, elapsed: 0.0003139972686767578
ell 884, elapsed: 0.00031304359436035156
ell 883, elapsed: 0.00030803680419921875
ell 882, elapsed: 0.0003829002380371094
ell 881, elapsed: 0.0003268718719482422
ell 880, elapsed: 0.00031495094299316406
ell 879, elapsed: 0.0003190040588378906
ell 878, elapsed: 0.00030994415283203125
ell 877, elapsed: 0.0003108978271484375
ell 876, elapsed: 0.0003209114074707031
ell 875, elapsed: 0.00030803680419921875
ell 874, elapsed: 0.00031685829162597656
ell 873, elapsed: 0.00030994415283203125
ell 872, elapsed: 0.00030994415283203125
ell 871, elapsed: 0.0003159046173095703
ell 870, elapsed: 0.0003509521484375
ell 869, elapsed: 0.0003159046173095703
ell 868, elapsed: 0.00032019615173339844
ell 867, elapsed: 0.0003809928894042969
ell 866, elapsed: 0.0003249645233154297
ell 865, elapsed: 0.0003108978271484375
ell 864, elapsed: 0.0003120899200439453
ell 863, elapsed: 0.0003120899200439453
ell 862, elapsed: 0.0003077983856201172
ell 861, elapsed: 0.0003180503845214844
ell 860, elapsed: 0.00031495094299316406
ell 859, elapsed: 0.00031304359436035156
ell 858, elapsed: 0.0004551410675048828
ell 857, elapsed: 0.0003151893615722656
ell 856, elapsed: 0.00031495094299316406
ell 855, elapsed: 0.0003108978271484375
ell 854, elapsed: 0.0003159046173095703
ell 853, elapsed: 0.0003108978271484375
ell 852, elapsed: 0.0003151893615722656
ell 851, elapsed: 0.0003151893615722656
ell 850, elapsed: 0.0003170967102050781
ell 849, elapsed: 0.0003199577331542969
ell 848, elapsed: 0.00031304359436035156
ell 847, elapsed: 0.0003070831298828125
ell 846, elapsed: 0.0003490447998046875
ell 845, elapsed: 0.0003120899200439453
ell 844, elapsed: 0.0003139972686767578
ell 843, elapsed: 0.0003161430358886719
ell 842, elapsed: 0.00030803680419921875
ell 841, elapsed: 0.0003170967102050781
ell 840, elapsed: 0.00030994415283203125
ell 839, elapsed: 0.0003180503845214844
ell 838, elapsed: 0.00031185150146484375
ell 837, elapsed: 0.0003161430358886719
ell 836, elapsed: 0.0003108978271484375
ell 835, elapsed: 0.0003120899200439453
ell 834, elapsed: 0.0003719329833984375
ell 833, elapsed: 0.00031185150146484375
ell 832, elapsed: 0.0003180503845214844
ell 831, elapsed: 0.00031495094299316406
ell 830, elapsed: 0.00031185150146484375
ell 829, elapsed: 0.00031685829162597656
ell 828, elapsed: 0.0003230571746826172
ell 827, elapsed: 0.0003190040588378906
ell 826, elapsed: 0.0003159046173095703
ell 825, elapsed: 0.0003170967102050781
ell 824, elapsed: 0.0003180503845214844
ell 823, elapsed: 0.0003070831298828125
ell 822, elapsed: 0.00035500526428222656
ell 821, elapsed: 0.0003139972686767578
ell 820, elapsed: 0.00031495094299316406
ell 819, elapsed: 0.0003211498260498047
ell 818, elapsed: 0.0003070831298828125
ell 817, elapsed: 0.0003190040588378906
ell 816, elapsed: 0.0003230571746826172
ell 815, elapsed: 0.0003161430358886719
ell 814, elapsed: 0.0003299713134765625
ell 813, elapsed: 0.0003170967102050781
ell 812, elapsed: 0.0003230571746826172
ell 811, elapsed: 0.0003178119659423828
ell 810, elapsed: 0.0003521442413330078
ell 809, elapsed: 0.0003218650817871094
ell 808, elapsed: 0.0003209114074707031
ell 807, elapsed: 0.0003249645233154297
ell 806, elapsed: 0.0003161430358886719
ell 805, elapsed: 0.0003159046173095703
ell 804, elapsed: 0.00032210350036621094
ell 803, elapsed: 0.0003139972686767578
ell 802, elapsed: 0.0003161430358886719
ell 801, elapsed: 0.00031185150146484375
ell 800, elapsed: 0.0003139972686767578
ell 799, elapsed: 0.0003199577331542969
ell 798, elapsed: 0.0003669261932373047
ell 797, elapsed: 0.0003178119659423828
ell 796, elapsed: 0.00031495094299316406
ell 795, elapsed: 0.0003159046173095703
ell 794, elapsed: 0.0003178119659423828
ell 793, elapsed: 0.00031113624572753906
ell 792, elapsed: 0.0003139972686767578
ell 791, elapsed: 0.00031280517578125
ell 790, elapsed: 0.0003101825714111328
ell 789, elapsed: 0.0003299713134765625
ell 788, elapsed: 0.0003199577331542969
ell 787, elapsed: 0.0003211498260498047
ell 786, elapsed: 0.00033593177795410156
ell 785, elapsed: 0.00031685829162597656
ell 784, elapsed: 0.0003108978271484375
ell 783, elapsed: 0.00031495094299316406
ell 782, elapsed: 0.0003161430358886719
ell 781, elapsed: 0.00031304359436035156
ell 780, elapsed: 0.00030994415283203125
ell 779, elapsed: 0.0003120899200439453
ell 778, elapsed: 0.0003178119659423828
ell 777, elapsed: 0.0003199577331542969
ell 776, elapsed: 0.00031304359436035156
ell 775, elapsed: 0.0003159046173095703
ell 774, elapsed: 0.0003609657287597656
ell 773, elapsed: 0.0003180503845214844
ell 772, elapsed: 0.0003190040588378906
ell 771, elapsed: 0.00031185150146484375
ell 770, elapsed: 0.00031113624572753906
ell 769, elapsed: 0.00030612945556640625
ell 768, elapsed: 0.0003190040588378906
ell 767, elapsed: 0.0003151893615722656
ell 766, elapsed: 0.0003077983856201172
ell 765, elapsed: 0.00031113624572753906
ell 764, elapsed: 0.0003058910369873047
ell 763, elapsed: 0.00030493736267089844
ell 762, elapsed: 0.00035691261291503906
ell 761, elapsed: 0.0003170967102050781
ell 760, elapsed: 0.0003190040588378906
ell 759, elapsed: 0.0003159046173095703
ell 758, elapsed: 0.0003159046173095703
ell 757, elapsed: 0.00031113624572753906
ell 756, elapsed: 0.0003228187561035156
ell 755, elapsed: 0.0003139972686767578
ell 754, elapsed: 0.00031304359436035156
ell 753, elapsed: 0.0003120899200439453
ell 752, elapsed: 0.0003170967102050781
ell 751, elapsed: 0.0003077983856201172
ell 750, elapsed: 0.00036406517028808594
ell 749, elapsed: 0.00031495094299316406
ell 748, elapsed: 0.0003159046173095703
ell 747, elapsed: 0.0003170967102050781
ell 746, elapsed: 0.0003139972686767578
ell 745, elapsed: 0.0003120899200439453
ell 744, elapsed: 0.00031495094299316406
ell 743, elapsed: 0.0003077983856201172
ell 742, elapsed: 0.0003101825714111328
ell 741, elapsed: 0.0003001689910888672
ell 740, elapsed: 0.0003120899200439453
ell 739, elapsed: 0.00030803680419921875
ell 738, elapsed: 0.000370025634765625
ell 737, elapsed: 0.00030994415283203125
ell 736, elapsed: 0.0003070831298828125
ell 735, elapsed: 0.00030803680419921875
ell 734, elapsed: 0.0003077983856201172
ell 733, elapsed: 0.0003139972686767578
ell 732, elapsed: 0.00030994415283203125
ell 731, elapsed: 0.00031113624572753906
ell 730, elapsed: 0.0003161430358886719
ell 729, elapsed: 0.0003211498260498047
ell 728, elapsed: 0.00031185150146484375
ell 727, elapsed: 0.0003159046173095703
ell 726, elapsed: 0.0003650188446044922
ell 725, elapsed: 0.0003120899200439453
ell 724, elapsed: 0.00030517578125
ell 723, elapsed: 0.00030612945556640625
ell 722, elapsed: 0.00030803680419921875
ell 721, elapsed: 0.0003070831298828125
ell 720, elapsed: 0.0003161430358886719
ell 719, elapsed: 0.0003108978271484375
ell 718, elapsed: 0.0003139972686767578
ell 717, elapsed: 0.00031113624572753906
ell 716, elapsed: 0.00030994415283203125
ell 715, elapsed: 0.00031685829162597656
ell 714, elapsed: 0.0003421306610107422
ell 713, elapsed: 0.00031304359436035156
ell 712, elapsed: 0.00031185150146484375
ell 711, elapsed: 0.00031113624572753906
ell 710, elapsed: 0.0003180503845214844
ell 709, elapsed: 0.000308990478515625
ell 708, elapsed: 0.0003120899200439453
ell 707, elapsed: 0.000308990478515625
ell 706, elapsed: 0.0003108978271484375
ell 705, elapsed: 0.00031185150146484375
ell 704, elapsed: 0.000308990478515625
ell 703, elapsed: 0.0003108978271484375
ell 702, elapsed: 0.00033211708068847656
ell 701, elapsed: 0.0003058910369873047
ell 700, elapsed: 0.00031495094299316406
ell 699, elapsed: 0.00030994415283203125
ell 698, elapsed: 0.0003139972686767578
ell 697, elapsed: 0.00030493736267089844
ell 696, elapsed: 0.0003108978271484375
ell 695, elapsed: 0.0003108978271484375
ell 694, elapsed: 0.0003108978271484375
ell 693, elapsed: 0.00031304359436035156
ell 692, elapsed: 0.00031185150146484375
ell 691, elapsed: 0.0003108978271484375
ell 690, elapsed: 0.0003161430358886719
ell 689, elapsed: 0.00031495094299316406
ell 688, elapsed: 0.0003108978271484375
ell 687, elapsed: 0.00031113624572753906
ell 686, elapsed: 0.0003139972686767578
ell 685, elapsed: 0.00030612945556640625
ell 684, elapsed: 0.0003070831298828125
ell 683, elapsed: 0.0003108978271484375
ell 682, elapsed: 0.0003008842468261719
ell 681, elapsed: 0.00031495094299316406
ell 680, elapsed: 0.000308990478515625
ell 679, elapsed: 0.0003108978271484375
ell 678, elapsed: 0.00031113624572753906
ell 677, elapsed: 0.0003418922424316406
ell 676, elapsed: 0.0003139972686767578
ell 675, elapsed: 0.00030684471130371094
ell 674, elapsed: 0.00030994415283203125
ell 673, elapsed: 0.00030994415283203125
ell 672, elapsed: 0.00030493736267089844
ell 671, elapsed: 0.00031685829162597656
ell 670, elapsed: 0.00030994415283203125
ell 669, elapsed: 0.000308990478515625
ell 668, elapsed: 0.0003209114074707031
ell 667, elapsed: 0.0002999305725097656
ell 666, elapsed: 0.00031685829162597656
ell 665, elapsed: 0.0003571510314941406
ell 664, elapsed: 0.00031113624572753906
ell 663, elapsed: 0.0003139972686767578
ell 662, elapsed: 0.0003151893615722656
ell 661, elapsed: 0.0003180503845214844
ell 660, elapsed: 0.0003058910369873047
ell 659, elapsed: 0.00030994415283203125
ell 658, elapsed: 0.0003120899200439453
ell 657, elapsed: 0.00030803680419921875
ell 656, elapsed: 0.0003139972686767578
ell 655, elapsed: 0.00030803680419921875
ell 654, elapsed: 0.0003159046173095703
ell 653, elapsed: 0.00035190582275390625
ell 652, elapsed: 0.0003139972686767578
ell 651, elapsed: 0.0003180503845214844
ell 650, elapsed: 0.0003108978271484375
ell 649, elapsed: 0.0003159046173095703
ell 648, elapsed: 0.0003108978271484375
ell 647, elapsed: 0.0003139972686767578
ell 646, elapsed: 0.0003178119659423828
ell 645, elapsed: 0.0003108978271484375
ell 644, elapsed: 0.00031495094299316406
ell 643, elapsed: 0.00031185150146484375
ell 642, elapsed: 0.0003139972686767578
ell 641, elapsed: 0.0003509521484375
ell 640, elapsed: 0.0003180503845214844
ell 639, elapsed: 0.0003170967102050781
ell 638, elapsed: 0.0003170967102050781
ell 637, elapsed: 0.000308990478515625
ell 636, elapsed: 0.0003139972686767578
ell 635, elapsed: 0.0003139972686767578
ell 634, elapsed: 0.0003159046173095703
ell 633, elapsed: 0.00030803680419921875
ell 632, elapsed: 0.0003180503845214844
ell 631, elapsed: 0.00031495094299316406
ell 630, elapsed: 0.0003120899200439453
ell 629, elapsed: 0.0003688335418701172
ell 628, elapsed: 0.0003139972686767578
ell 627, elapsed: 0.0003108978271484375
ell 626, elapsed: 0.0003190040588378906
ell 625, elapsed: 0.00030803680419921875
ell 624, elapsed: 0.00031495094299316406
ell 623, elapsed: 0.0003159046173095703
ell 622, elapsed: 0.0003139972686767578
ell 621, elapsed: 0.0003120899200439453
ell 620, elapsed: 0.0003368854522705078
ell 619, elapsed: 0.0003161430358886719
ell 618, elapsed: 0.0003139972686767578
ell 617, elapsed: 0.00034117698669433594
ell 616, elapsed: 0.0003161430358886719
ell 615, elapsed: 0.00030994415283203125
ell 614, elapsed: 0.00031685829162597656
ell 613, elapsed: 0.000308990478515625
ell 612, elapsed: 0.0003170967102050781
ell 611, elapsed: 0.00030994415283203125
ell 610, elapsed: 0.0003108978271484375
ell 609, elapsed: 0.00031304359436035156
ell 608, elapsed: 0.0003058910369873047
ell 607, elapsed: 0.000308990478515625
ell 606, elapsed: 0.000308990478515625
ell 605, elapsed: 0.0003428459167480469
ell 604, elapsed: 0.00032711029052734375
ell 603, elapsed: 0.0003159046173095703
ell 602, elapsed: 0.00032210350036621094
ell 601, elapsed: 0.0003139972686767578
ell 600, elapsed: 0.00030994415283203125
ell 599, elapsed: 0.0003199577331542969
ell 598, elapsed: 0.00030994415283203125
ell 597, elapsed: 0.0003139972686767578
ell 596, elapsed: 0.00031304359436035156
ell 595, elapsed: 0.0003159046173095703
ell 594, elapsed: 0.0003139972686767578
ell 593, elapsed: 0.00041294097900390625
ell 592, elapsed: 0.00032210350036621094
ell 591, elapsed: 0.0003161430358886719
ell 590, elapsed: 0.00031685829162597656
ell 589, elapsed: 0.0003120899200439453
ell 588, elapsed: 0.00030803680419921875
ell 587, elapsed: 0.00031113624572753906
ell 586, elapsed: 0.000308990478515625
ell 585, elapsed: 0.0003209114074707031
ell 584, elapsed: 0.00031113624572753906
ell 583, elapsed: 0.00031304359436035156
ell 582, elapsed: 0.0003139972686767578
ell 581, elapsed: 0.00034499168395996094
ell 580, elapsed: 0.0003178119659423828
ell 579, elapsed: 0.00031185150146484375
ell 578, elapsed: 0.00030803680419921875
ell 577, elapsed: 0.00031495094299316406
ell 576, elapsed: 0.000308990478515625
ell 575, elapsed: 0.0003190040588378906
ell 574, elapsed: 0.00031185150146484375
ell 573, elapsed: 0.00031185150146484375
ell 572, elapsed: 0.0003199577331542969
ell 571, elapsed: 0.0003070831298828125
ell 570, elapsed: 0.0003170967102050781
ell 569, elapsed: 0.0003578662872314453
ell 568, elapsed: 0.0003070831298828125
ell 567, elapsed: 0.0003039836883544922
ell 566, elapsed: 0.0003039836883544922
ell 565, elapsed: 0.00030684471130371094
ell 564, elapsed: 0.0003070831298828125
ell 563, elapsed: 0.00031495094299316406
ell 562, elapsed: 0.000308990478515625
ell 561, elapsed: 0.00030303001403808594
ell 560, elapsed: 0.00031304359436035156
ell 559, elapsed: 0.0002999305725097656
ell 558, elapsed: 0.0003139972686767578
ell 557, elapsed: 0.0003349781036376953
ell 556, elapsed: 0.0003108978271484375
ell 555, elapsed: 0.00030803680419921875
ell 554, elapsed: 0.0003101825714111328
ell 553, elapsed: 0.0003120899200439453
ell 552, elapsed: 0.00030493736267089844
ell 551, elapsed: 0.0003139972686767578
ell 550, elapsed: 0.00031185150146484375
ell 549, elapsed: 0.0003039836883544922
ell 548, elapsed: 0.00031495094299316406
ell 547, elapsed: 0.000308990478515625
ell 546, elapsed: 0.00030803680419921875
ell 545, elapsed: 0.0003159046173095703
ell 544, elapsed: 0.0003600120544433594
ell 543, elapsed: 0.0003209114074707031
ell 542, elapsed: 0.000308990478515625
ell 541, elapsed: 0.0003101825714111328
ell 540, elapsed: 0.00031280517578125
ell 539, elapsed: 0.00030994415283203125
ell 538, elapsed: 0.00031304359436035156
ell 537, elapsed: 0.0003108978271484375
ell 536, elapsed: 0.0003058910369873047
ell 535, elapsed: 0.0003170967102050781
ell 534, elapsed: 0.0003120899200439453
ell 533, elapsed: 0.00031685829162597656
ell 532, elapsed: 0.0003380775451660156
ell 531, elapsed: 0.0003211498260498047
ell 530, elapsed: 0.00030803680419921875
ell 529, elapsed: 0.0003108978271484375
ell 528, elapsed: 0.0003170967102050781
ell 527, elapsed: 0.00030994415283203125
ell 526, elapsed: 0.00032591819763183594
ell 525, elapsed: 0.00031495094299316406
ell 524, elapsed: 0.00030994415283203125
ell 523, elapsed: 0.0003209114074707031
ell 522, elapsed: 0.0003159046173095703
ell 521, elapsed: 0.0003218650817871094
ell 520, elapsed: 0.0003879070281982422
ell 519, elapsed: 0.0003180503845214844
ell 518, elapsed: 0.0003190040588378906
ell 517, elapsed: 0.0003139972686767578
ell 516, elapsed: 0.0003180503845214844
ell 515, elapsed: 0.00031280517578125
ell 514, elapsed: 0.0003120899200439453
ell 513, elapsed: 0.0003151893615722656
ell 512, elapsed: 0.0003159046173095703
ell 511, elapsed: 0.0003159046173095703
ell 510, elapsed: 0.00031113624572753906
ell 509, elapsed: 0.00030994415283203125
ell 508, elapsed: 0.00036597251892089844
ell 507, elapsed: 0.00031304359436035156
ell 506, elapsed: 0.0003230571746826172
ell 505, elapsed: 0.000308990478515625
ell 504, elapsed: 0.0003180503845214844
ell 503, elapsed: 0.00031280517578125
ell 502, elapsed: 0.0003170967102050781
ell 501, elapsed: 0.0003180503845214844
ell 500, elapsed: 0.00030803680419921875
ell 499, elapsed: 0.0003180503845214844
ell 498, elapsed: 0.0003159046173095703
ell 497, elapsed: 0.0003139972686767578
ell 496, elapsed: 0.0003409385681152344
ell 495, elapsed: 0.0003139972686767578
ell 494, elapsed: 0.0003218650817871094
ell 493, elapsed: 0.0003108978271484375
ell 492, elapsed: 0.00030994415283203125
ell 491, elapsed: 0.0003180503845214844
ell 490, elapsed: 0.0003120899200439453
ell 489, elapsed: 0.0007040500640869141
ell 488, elapsed: 0.0003139972686767578
ell 487, elapsed: 0.001004934310913086
ell 486, elapsed: 0.00032210350036621094
ell 485, elapsed: 0.00031495094299316406
ell 484, elapsed: 0.0003199577331542969
ell 483, elapsed: 0.00031495094299316406
ell 482, elapsed: 0.0003199577331542969
ell 481, elapsed: 0.0003249645233154297
ell 480, elapsed: 0.00030994415283203125
ell 479, elapsed: 0.0003230571746826172
ell 478, elapsed: 0.00031304359436035156
ell 477, elapsed: 0.0003228187561035156
ell 476, elapsed: 0.0003490447998046875
ell 475, elapsed: 0.0003108978271484375
ell 474, elapsed: 0.0003159046173095703
ell 473, elapsed: 0.0003120899200439453
ell 472, elapsed: 0.0003199577331542969
ell 471, elapsed: 0.0003161430358886719
ell 470, elapsed: 0.0003139972686767578
ell 469, elapsed: 0.0003199577331542969
ell 468, elapsed: 0.0003108978271484375
ell 467, elapsed: 0.0003230571746826172
ell 466, elapsed: 0.0003139972686767578
ell 465, elapsed: 0.00031113624572753906
ell 464, elapsed: 0.0004181861877441406
ell 463, elapsed: 0.00031304359436035156
ell 462, elapsed: 0.0003170967102050781
ell 461, elapsed: 0.00033283233642578125
ell 460, elapsed: 0.00031495094299316406
ell 459, elapsed: 0.0003199577331542969
ell 458, elapsed: 0.0003199577331542969
ell 457, elapsed: 0.0003161430358886719
ell 456, elapsed: 0.0003139972686767578
ell 455, elapsed: 0.0003211498260498047
ell 454, elapsed: 0.0003151893615722656
ell 453, elapsed: 0.0003139972686767578
ell 452, elapsed: 0.00035691261291503906
ell 451, elapsed: 0.0003139972686767578
ell 450, elapsed: 0.0003159046173095703
ell 449, elapsed: 0.0003190040588378906
ell 448, elapsed: 0.00031495094299316406
ell 447, elapsed: 0.00031685829162597656
ell 446, elapsed: 0.00031495094299316406
ell 445, elapsed: 0.0003139972686767578
ell 444, elapsed: 0.00030803680419921875
ell 443, elapsed: 0.0003108978271484375
ell 442, elapsed: 0.0003170967102050781
ell 441, elapsed: 0.000308990478515625
ell 440, elapsed: 0.0003540515899658203
ell 439, elapsed: 0.00031113624572753906
ell 438, elapsed: 0.00031304359436035156
ell 437, elapsed: 0.00032591819763183594
ell 436, elapsed: 0.0003190040588378906
ell 435, elapsed: 0.0003151893615722656
ell 434, elapsed: 0.00031185150146484375
ell 433, elapsed: 0.00031185150146484375
ell 432, elapsed: 0.00032210350036621094
ell 431, elapsed: 0.0003161430358886719
ell 430, elapsed: 0.0003190040588378906
ell 429, elapsed: 0.0003120899200439453
ell 428, elapsed: 0.0003600120544433594
ell 427, elapsed: 0.00031185150146484375
ell 426, elapsed: 0.00031113624572753906
ell 425, elapsed: 0.0003058910369873047
ell 424, elapsed: 0.00031304359436035156
ell 423, elapsed: 0.00030994415283203125
ell 422, elapsed: 0.00031495094299316406
ell 421, elapsed: 0.0003108978271484375
ell 420, elapsed: 0.0003180503845214844
ell 419, elapsed: 0.0003108978271484375
ell 418, elapsed: 0.0003120899200439453
ell 417, elapsed: 0.0003101825714111328
ell 416, elapsed: 0.0003390312194824219
ell 415, elapsed: 0.0003209114074707031
ell 414, elapsed: 0.00030803680419921875
ell 413, elapsed: 0.00031304359436035156
ell 412, elapsed: 0.00030994415283203125
ell 411, elapsed: 0.000308990478515625
ell 410, elapsed: 0.0003139972686767578
ell 409, elapsed: 0.00031113624572753906
ell 408, elapsed: 0.000308990478515625
ell 407, elapsed: 0.00031304359436035156
ell 406, elapsed: 0.0003058910369873047
ell 405, elapsed: 0.0003180503845214844
ell 404, elapsed: 0.0003409385681152344
ell 403, elapsed: 0.00031280517578125
ell 402, elapsed: 0.0003108978271484375
ell 401, elapsed: 0.0003139972686767578
ell 400, elapsed: 0.0003120899200439453
ell 399, elapsed: 0.00030803680419921875
ell 398, elapsed: 0.00031304359436035156
ell 397, elapsed: 0.00030493736267089844
ell 396, elapsed: 0.0003039836883544922
ell 395, elapsed: 0.0003077983856201172
ell 394, elapsed: 0.00031113624572753906
ell 393, elapsed: 0.0003120899200439453
ell 392, elapsed: 0.0003018379211425781
ell 391, elapsed: 0.00035500526428222656
ell 390, elapsed: 0.00031495094299316406
ell 389, elapsed: 0.0003159046173095703
ell 388, elapsed: 0.0003180503845214844
ell 387, elapsed: 0.000308990478515625
ell 386, elapsed: 0.00032210350036621094
ell 385, elapsed: 0.00031495094299316406
ell 384, elapsed: 0.0003139972686767578
ell 383, elapsed: 0.00031685829162597656
ell 382, elapsed: 0.0003178119659423828
ell 381, elapsed: 0.0003190040588378906
ell 380, elapsed: 0.0003571510314941406
ell 379, elapsed: 0.00031304359436035156
ell 378, elapsed: 0.0003159046173095703
ell 377, elapsed: 0.0003190040588378906
ell 376, elapsed: 0.0003199577331542969
ell 375, elapsed: 0.00030803680419921875
ell 374, elapsed: 0.00031185150146484375
ell 373, elapsed: 0.00031495094299316406
ell 372, elapsed: 0.000308990478515625
ell 371, elapsed: 0.00031495094299316406
ell 370, elapsed: 0.000308990478515625
ell 369, elapsed: 0.00030994415283203125
ell 368, elapsed: 0.0003108978271484375
ell 367, elapsed: 0.00033593177795410156
ell 366, elapsed: 0.0003101825714111328
ell 365, elapsed: 0.0003070831298828125
ell 364, elapsed: 0.00030684471130371094
ell 363, elapsed: 0.0003139972686767578
ell 362, elapsed: 0.00030803680419921875
ell 361, elapsed: 0.00031304359436035156
ell 360, elapsed: 0.00030803680419921875
ell 359, elapsed: 0.00031113624572753906
ell 358, elapsed: 0.0003159046173095703
ell 357, elapsed: 0.00030493736267089844
ell 356, elapsed: 0.000308990478515625
ell 355, elapsed: 0.00037407875061035156
ell 354, elapsed: 0.0003139972686767578
ell 353, elapsed: 0.0003151893615722656
ell 352, elapsed: 0.00031113624572753906
ell 351, elapsed: 0.0003139972686767578
ell 350, elapsed: 0.00030803680419921875
ell 349, elapsed: 0.0003139972686767578
ell 348, elapsed: 0.0003108978271484375
ell 347, elapsed: 0.00030994415283203125
ell 346, elapsed: 0.0003139972686767578
ell 345, elapsed: 0.00031113624572753906
ell 344, elapsed: 0.000308990478515625
ell 343, elapsed: 0.0003898143768310547
ell 342, elapsed: 0.00030803680419921875
ell 341, elapsed: 0.0003120899200439453
ell 340, elapsed: 0.0003070831298828125
ell 339, elapsed: 0.00032901763916015625
ell 338, elapsed: 0.000308990478515625
ell 337, elapsed: 0.000308990478515625
ell 336, elapsed: 0.00030994415283203125
ell 335, elapsed: 0.00030803680419921875
ell 334, elapsed: 0.00031113624572753906
ell 333, elapsed: 0.000308990478515625
ell 332, elapsed: 0.0003039836883544922
ell 331, elapsed: 0.0003459453582763672
ell 330, elapsed: 0.000308990478515625
ell 329, elapsed: 0.00030994415283203125
ell 328, elapsed: 0.00030994415283203125
ell 327, elapsed: 0.0003070831298828125
ell 326, elapsed: 0.00030612945556640625
ell 325, elapsed: 0.00031280517578125
ell 324, elapsed: 0.00031304359436035156
ell 323, elapsed: 0.00030684471130371094
ell 322, elapsed: 0.00031304359436035156
ell 321, elapsed: 0.00030493736267089844
ell 320, elapsed: 0.000308990478515625
ell 319, elapsed: 0.00035691261291503906
ell 318, elapsed: 0.000308990478515625
ell 317, elapsed: 0.0003159046173095703
ell 316, elapsed: 0.00030803680419921875
ell 315, elapsed: 0.00030612945556640625
ell 314, elapsed: 0.00031304359436035156
ell 313, elapsed: 0.00031113624572753906
ell 312, elapsed: 0.00031304359436035156
ell 311, elapsed: 0.000308990478515625
ell 310, elapsed: 0.00030684471130371094
ell 309, elapsed: 0.00031113624572753906
ell 308, elapsed: 0.00031113624572753906
ell 307, elapsed: 0.000347137451171875
ell 306, elapsed: 0.0003101825714111328
ell 305, elapsed: 0.000308990478515625
ell 304, elapsed: 0.0003230571746826172
ell 303, elapsed: 0.00031304359436035156
ell 302, elapsed: 0.0003139972686767578
ell 301, elapsed: 0.000308990478515625
ell 300, elapsed: 0.00031685829162597656
ell 299, elapsed: 0.0003170967102050781
ell 298, elapsed: 0.0003209114074707031
ell 297, elapsed: 0.0003159046173095703
ell 296, elapsed: 0.00030803680419921875
ell 295, elapsed: 0.0003650188446044922
ell 294, elapsed: 0.0003170967102050781
ell 293, elapsed: 0.0003120899200439453
ell 292, elapsed: 0.0003170967102050781
ell 291, elapsed: 0.000308990478515625
ell 290, elapsed: 0.0003170967102050781
ell 289, elapsed: 0.00031304359436035156
ell 288, elapsed: 0.0003120899200439453
ell 287, elapsed: 0.0003218650817871094
ell 286, elapsed: 0.00031304359436035156
ell 285, elapsed: 0.0003159046173095703
ell 284, elapsed: 0.00030803680419921875
ell 283, elapsed: 0.0003459453582763672
ell 282, elapsed: 0.00030994415283203125
ell 281, elapsed: 0.00030612945556640625
ell 280, elapsed: 0.0003161430358886719
ell 279, elapsed: 0.00030803680419921875
ell 278, elapsed: 0.000308990478515625
ell 277, elapsed: 0.0003151893615722656
ell 276, elapsed: 0.00030803680419921875
ell 275, elapsed: 0.00031495094299316406
ell 274, elapsed: 0.00030803680419921875
ell 273, elapsed: 0.00031280517578125
ell 272, elapsed: 0.0003159046173095703
ell 271, elapsed: 0.0003349781036376953
ell 270, elapsed: 0.0003108978271484375
ell 269, elapsed: 0.00030803680419921875
ell 268, elapsed: 0.00030612945556640625
ell 267, elapsed: 0.00031685829162597656
ell 266, elapsed: 0.0003027915954589844
ell 265, elapsed: 0.00030994415283203125
ell 264, elapsed: 0.0003020763397216797
ell 263, elapsed: 0.00030922889709472656
ell 262, elapsed: 0.0003108978271484375
ell 261, elapsed: 0.00031304359436035156
ell 260, elapsed: 0.0003120899200439453
ell 259, elapsed: 0.00030803680419921875
ell 258, elapsed: 0.00035691261291503906
ell 257, elapsed: 0.000308990478515625
ell 256, elapsed: 0.0003139972686767578
ell 255, elapsed: 0.000308990478515625
ell 254, elapsed: 0.0003039836883544922
ell 253, elapsed: 0.00030517578125
ell 252, elapsed: 0.0003039836883544922
ell 251, elapsed: 0.00030612945556640625
ell 250, elapsed: 0.0003139972686767578
ell 249, elapsed: 0.00031495094299316406
ell 248, elapsed: 0.00031304359436035156
ell 247, elapsed: 0.00030994415283203125
ell 246, elapsed: 0.00034308433532714844
ell 245, elapsed: 0.0003151893615722656
ell 244, elapsed: 0.00030994415283203125
ell 243, elapsed: 0.0003070831298828125
ell 242, elapsed: 0.0003008842468261719
ell 241, elapsed: 0.00030493736267089844
ell 240, elapsed: 0.0003139972686767578
ell 239, elapsed: 0.0003058910369873047
ell 238, elapsed: 0.00031113624572753906
ell 237, elapsed: 0.0003139972686767578
ell 236, elapsed: 0.000308990478515625
ell 235, elapsed: 0.000308990478515625
ell 234, elapsed: 0.00035500526428222656
ell 233, elapsed: 0.00031113624572753906
ell 232, elapsed: 0.00030517578125
ell 231, elapsed: 0.0003199577331542969
ell 230, elapsed: 0.000308990478515625
ell 229, elapsed: 0.00030684471130371094
ell 228, elapsed: 0.0003199577331542969
ell 227, elapsed: 0.0003101825714111328
ell 226, elapsed: 0.0003161430358886719
ell 225, elapsed: 0.0003151893615722656
ell 224, elapsed: 0.0002980232238769531
ell 223, elapsed: 0.00030684471130371094
ell 222, elapsed: 0.0003390312194824219
ell 221, elapsed: 0.00030803680419921875
ell 220, elapsed: 0.00030517578125
ell 219, elapsed: 0.00031113624572753906
ell 218, elapsed: 0.00031113624572753906
ell 217, elapsed: 0.0003058910369873047
ell 216, elapsed: 0.00031185150146484375
ell 215, elapsed: 0.0003039836883544922
ell 214, elapsed: 0.00030493736267089844
ell 213, elapsed: 0.00031685829162597656
ell 212, elapsed: 0.00030493736267089844
ell 211, elapsed: 0.0003070831298828125
ell 210, elapsed: 0.0003459453582763672
ell 209, elapsed: 0.0003070831298828125
ell 208, elapsed: 0.0003058910369873047
ell 207, elapsed: 0.00030493736267089844
ell 206, elapsed: 0.0003058910369873047
ell 205, elapsed: 0.0003020763397216797
ell 204, elapsed: 0.00030493736267089844
ell 203, elapsed: 0.0003020763397216797
ell 202, elapsed: 0.00032210350036621094
ell 201, elapsed: 0.00031185150146484375
ell 200, elapsed: 0.00030517578125
ell 199, elapsed: 0.0003120899200439453
ell 198, elapsed: 0.0003058910369873047
ell 197, elapsed: 0.00037384033203125
ell 196, elapsed: 0.0003039836883544922
ell 195, elapsed: 0.0003020763397216797
ell 194, elapsed: 0.00031113624572753906
ell 193, elapsed: 0.00030303001403808594
ell 192, elapsed: 0.0003039836883544922
ell 191, elapsed: 0.00030803680419921875
ell 190, elapsed: 0.00030612945556640625
ell 189, elapsed: 0.0003039836883544922
ell 188, elapsed: 0.00030803680419921875
ell 187, elapsed: 0.0003020763397216797
ell 186, elapsed: 0.00030994415283203125
ell 185, elapsed: 0.0003521442413330078
ell 184, elapsed: 0.00030922889709472656
ell 183, elapsed: 0.00030612945556640625
ell 182, elapsed: 0.00030493736267089844
ell 181, elapsed: 0.00030994415283203125
ell 180, elapsed: 0.0003058910369873047
ell 179, elapsed: 0.000308990478515625
ell 178, elapsed: 0.00030112266540527344
ell 177, elapsed: 0.00030422210693359375
ell 176, elapsed: 0.000308990478515625
ell 175, elapsed: 0.0003058910369873047
ell 174, elapsed: 0.000308990478515625
ell 173, elapsed: 0.00033402442932128906
ell 172, elapsed: 0.0003139972686767578
ell 171, elapsed: 0.00030303001403808594
ell 170, elapsed: 0.00031304359436035156
ell 169, elapsed: 0.00031495094299316406
ell 168, elapsed: 0.000308990478515625
ell 167, elapsed: 0.0003199577331542969
ell 166, elapsed: 0.0003120899200439453
ell 165, elapsed: 0.00030803680419921875
ell 164, elapsed: 0.0003151893615722656
ell 163, elapsed: 0.000308990478515625
ell 162, elapsed: 0.00031113624572753906
ell 161, elapsed: 0.0002961158752441406
ell 160, elapsed: 0.0003380775451660156
ell 159, elapsed: 0.00031685829162597656
ell 158, elapsed: 0.00031304359436035156
ell 157, elapsed: 0.00031495094299316406
ell 156, elapsed: 0.00030994415283203125
ell 155, elapsed: 0.000308990478515625
ell 154, elapsed: 0.0003199577331542969
ell 153, elapsed: 0.000308990478515625
ell 152, elapsed: 0.00031185150146484375
ell 151, elapsed: 0.00031113624572753906
ell 150, elapsed: 0.00030612945556640625
ell 149, elapsed: 0.00031304359436035156
ell 148, elapsed: 0.0003459453582763672
ell 147, elapsed: 0.00031495094299316406
ell 146, elapsed: 0.00030803680419921875
ell 145, elapsed: 0.00031495094299316406
ell 144, elapsed: 0.00031113624572753906
ell 143, elapsed: 0.00030493736267089844
ell 142, elapsed: 0.0003209114074707031
ell 141, elapsed: 0.000308990478515625
ell 140, elapsed: 0.00031304359436035156
ell 139, elapsed: 0.00031113624572753906
ell 138, elapsed: 0.00030612945556640625
ell 137, elapsed: 0.0003209114074707031
ell 136, elapsed: 0.000431060791015625
ell 135, elapsed: 0.0003139972686767578
ell 134, elapsed: 0.0003070831298828125
ell 133, elapsed: 0.0003058910369873047
ell 132, elapsed: 0.00031185150146484375
ell 131, elapsed: 0.000308990478515625
ell 130, elapsed: 0.0003139972686767578
ell 129, elapsed: 0.00030684471130371094
ell 128, elapsed: 0.000308990478515625
ell 127, elapsed: 0.0003108978271484375
ell 126, elapsed: 0.0003070831298828125
ell 125, elapsed: 0.000308990478515625
ell 124, elapsed: 0.0004429817199707031
ell 123, elapsed: 0.0003077983856201172
ell 122, elapsed: 0.00031495094299316406
ell 121, elapsed: 0.00030493736267089844
ell 120, elapsed: 0.00031113624572753906
ell 119, elapsed: 0.00030803680419921875
ell 118, elapsed: 0.000308990478515625
ell 117, elapsed: 0.000308990478515625
ell 116, elapsed: 0.0003058910369873047
ell 115, elapsed: 0.000308990478515625
ell 114, elapsed: 0.0003058910369873047
ell 113, elapsed: 0.0003058910369873047
ell 112, elapsed: 0.0004620552062988281
ell 111, elapsed: 0.00030994415283203125
ell 110, elapsed: 0.0003161430358886719
ell 109, elapsed: 0.0003070831298828125
ell 108, elapsed: 0.00031280517578125
ell 107, elapsed: 0.0003039836883544922
ell 106, elapsed: 0.0003070831298828125
ell 105, elapsed: 0.00031113624572753906
ell 104, elapsed: 0.0003120899200439453
ell 103, elapsed: 0.000308990478515625
ell 102, elapsed: 0.0003070831298828125
ell 101, elapsed: 0.0002989768981933594
ell 100, elapsed: 0.0003330707550048828
ell 99, elapsed: 0.00030994415283203125
ell 98, elapsed: 0.0003178119659423828
ell 97, elapsed: 0.0003120899200439453
ell 96, elapsed: 0.00030684471130371094
ell 95, elapsed: 0.0003218650817871094
ell 94, elapsed: 0.0003180503845214844
ell 93, elapsed: 0.0003230571746826172
ell 92, elapsed: 0.0003120899200439453
ell 91, elapsed: 0.00031304359436035156
ell 90, elapsed: 0.0003159046173095703
ell 89, elapsed: 0.0003120899200439453
ell 88, elapsed: 0.00034809112548828125
ell 87, elapsed: 0.0003159046173095703
ell 86, elapsed: 0.0003800392150878906
ell 85, elapsed: 0.0003249645233154297
ell 84, elapsed: 0.0003108978271484375
ell 83, elapsed: 0.00032591819763183594
ell 82, elapsed: 0.00030922889709472656
ell 81, elapsed: 0.0003199577331542969
ell 80, elapsed: 0.00030994415283203125
ell 79, elapsed: 0.0003070831298828125
ell 78, elapsed: 0.0003161430358886719
ell 77, elapsed: 0.00031495094299316406
ell 76, elapsed: 0.0003299713134765625
ell 75, elapsed: 0.00031495094299316406
ell 74, elapsed: 0.0003108978271484375
ell 73, elapsed: 0.00032711029052734375
ell 72, elapsed: 0.0003070831298828125
ell 71, elapsed: 0.0003211498260498047
ell 70, elapsed: 0.00031113624572753906
ell 69, elapsed: 0.0003077983856201172
ell 68, elapsed: 0.00032806396484375
ell 67, elapsed: 0.0003108978271484375
ell 66, elapsed: 0.0003209114074707031
ell 65, elapsed: 0.0003490447998046875
ell 64, elapsed: 0.00031304359436035156
ell 63, elapsed: 0.0003161430358886719
ell 62, elapsed: 0.00031280517578125
ell 61, elapsed: 0.0003159046173095703
ell 60, elapsed: 0.00030803680419921875
ell 59, elapsed: 0.0003058910369873047
ell 58, elapsed: 0.00031304359436035156
ell 57, elapsed: 0.0003261566162109375
ell 56, elapsed: 0.0003237724304199219
ell 55, elapsed: 0.000308990478515625
ell 54, elapsed: 0.0003161430358886719
ell 53, elapsed: 0.0003540515899658203
ell 52, elapsed: 0.00030994415283203125
ell 51, elapsed: 0.0003139972686767578
ell 50, elapsed: 0.000308990478515625
ell 49, elapsed: 0.00031304359436035156
ell 48, elapsed: 0.00030493736267089844
ell 47, elapsed: 0.00031495094299316406
ell 46, elapsed: 0.00030994415283203125
ell 45, elapsed: 0.00030303001403808594
ell 44, elapsed: 0.0003170967102050781
ell 43, elapsed: 0.000308990478515625
ell 42, elapsed: 0.00030994415283203125
ell 41, elapsed: 0.00035691261291503906
ell 40, elapsed: 0.0003139972686767578
ell 39, elapsed: 0.0003209114074707031
ell 38, elapsed: 0.0003139972686767578
ell 37, elapsed: 0.00030803680419921875
ell 36, elapsed: 0.0003190040588378906
ell 35, elapsed: 0.00030803680419921875
ell 34, elapsed: 0.0003190040588378906
ell 33, elapsed: 0.0003101825714111328
ell 32, elapsed: 0.0003151893615722656
ell 31, elapsed: 0.0003190040588378906
ell 30, elapsed: 0.000308990478515625
ell 29, elapsed: 0.0003669261932373047
ell 28, elapsed: 0.00031304359436035156
ell 27, elapsed: 0.0003170967102050781
ell 26, elapsed: 0.00030994415283203125
ell 25, elapsed: 0.0003108978271484375
ell 24, elapsed: 0.0003159046173095703
ell 23, elapsed: 0.00030803680419921875
ell 22, elapsed: 0.00031495094299316406
ell 21, elapsed: 0.000308990478515625
ell 20, elapsed: 0.0003070831298828125
ell 19, elapsed: 0.0003139972686767578
ell 18, elapsed: 0.000308990478515625
ell 17, elapsed: 0.0003209114074707031
ell 16, elapsed: 0.0003170967102050781
ell 15, elapsed: 0.00031113624572753906
ell 14, elapsed: 0.0003211498260498047
ell 13, elapsed: 0.00030803680419921875
ell 12, elapsed: 0.0003139972686767578
ell 11, elapsed: 0.0003199577331542969
ell 10, elapsed: 0.00031495094299316406
ell 9, elapsed: 0.00032210350036621094
ell 8, elapsed: 0.00031685829162597656
ell 7, elapsed: 0.0003190040588378906
ell 6, elapsed: 0.0003108978271484375
ell 5, elapsed: 0.00030803680419921875
ell 4, elapsed: 0.0003159046173095703
ell 3, elapsed: 0.00030803680419921875
ell 2, elapsed: 0.00031495094299316406
ell 1, elapsed: 0.00030994415283203125
ell 0, elapsed: 0.000308990478515625
  0.430313 seconds (46.03 k allocations: 3.091 MiB, 6.76% compilation time)
elapsed: 0.00038504600524902344
step:          0.052254 sec (0 allocations: 0 byte, 0.0% gc time)
swapping:      0.000396 sec (0 allocations: 0 byte, 0.0% gc time)
calc_Mellell!: 0.004697 sec (0 allocations: 0 byte, 0.0% gc time)
  t0 :  0.001433 sec (0 allocations: 0 byte, 0.0% gc time)
  tm2 : 0.075135 sec (0 allocations: 0 byte, 0.0% gc time)
  tm2s: 0.001395 sec (0 allocations: 0 byte, 0.0% gc time)
  tm4 : 0.180784 sec (0 allocations: 0 byte, 0.0% gc time)
  tp2 : 0.0 sec (0 allocations: 0 byte, 0.0% gc time)
  tp2s: 0.0 sec (0 allocations: 0 byte, 0.0% gc time)
  tp4 : 0.0 sec (0 allocations: 0 byte, 0.0% gc time)
calc_wtdll!:   0.290245 sec (9.9 k allocations: 1.047 MB, 0.0% gc time)
calc_wljj!:    0.020716 sec (689 allocations: 10.766 KB, 0.0% gc time)
mult_prefac!:  0.0 sec (0 allocations: 0 byte, 0.0% gc time)
convert:       0.0 sec (0 allocations: 0 byte, 0.0% gc time)
write:         0.027016 sec (0 allocations: 0 byte, 0.0% gc time)
test_rand_2f1: 0.0 sec (0 allocations: 0 byte, 0.0% gc time)
Closing outfile out/Ml21-cache.bin...   0.000009 seconds
  0.000405 seconds (36 allocations: 27.953 KiB)
make_phi():   0.001439 seconds (8.19 k allocations: 238.078 KiB)
  0.116277 seconds (141.90 k allocations: 3.483 MiB)
tskip:       0.001023 sec (0 allocations: 0 byte, 0.0% gc time)
tread:       0.020285 sec (17 allocations: 10.641 KB, 0.0% gc time)
tmultphi:    0.009281 sec (0 allocations: 0 byte, 0.0% gc time)
tbrfft:      0.036842 sec (0 allocations: 0 byte, 0.0% gc time)
tmultprefac: 0.01544 sec (0 allocations: 0 byte, 0.0% gc time)
toutfunc:    0.030297 sec (127.507 k allocations: 2.312 MB, 0.0% gc time)
Testing R=1.0 ... passed
Calculating fmax: 
  dlrec    = 4
  dlrecRg1 = -4
  q=1.1, R=0.9:	  0.273287 seconds (105.72 k allocations: 15.273 MiB, 5.99% gc time)

  0.273524 seconds (105.78 k allocations: 15.307 MiB, 5.99% gc time)
ℓ = 1202
Δℓ = 4
ΔℓRg1 = -4
N = 1600
q = 1.1
kmin = 1.0e-5
kmax = 100000.00000000004
χ0 = 0.023029999999999995
RR = RR.tsv
ℓmax = ℓmax.bin
f21 = f21.bin
kmin = 1.0e-5
kmax = 100000.0
dlrec    = 4
dlrecRg1 = -4
Output size: 5741568 bytes = 0.005347251892089844 GiB
Output size: 51264 bytes = 4.774332046508789e-5 GiB
Reading 'out/F21EllCache'...   0.000907 seconds (197 allocations: 84.203 KiB)
ellmax: 1202
lmaxcache: 1202
fell[:,1,1] = ComplexF64[1.3482014726274674e-57 - 3.302141236118086e-73im, 1.357860004724329e-57 - 3.3257978169518355e-73im]
ell 1202, elapsed: 1.811981201171875e-5
ell 1201, elapsed: 0.00030517578125
ell 1200, elapsed: 0.0002810955047607422
ell 1199, elapsed: 0.0002760887145996094
ell 1198, elapsed: 0.00027298927307128906
ell 1002, elapsed: 0.008907079696655273
ell 1001, elapsed: 0.00032401084899902344
ell 1000, elapsed: 0.0002789497375488281
ell 999, elapsed: 0.0002789497375488281
ell 998, elapsed: 0.0002799034118652344
ell 902, elapsed: 0.004603862762451172
ell 901, elapsed: 0.00028896331787109375
ell 900, elapsed: 0.0002799034118652344
ell 899, elapsed: 0.0002779960632324219
ell 898, elapsed: 0.0002751350402832031
ell 802, elapsed: 0.004601955413818359
ell 801, elapsed: 0.00028896331787109375
ell 800, elapsed: 0.000308990478515625
ell 799, elapsed: 0.0002739429473876953
ell 798, elapsed: 0.0002720355987548828
ell 702, elapsed: 0.004572868347167969
ell 701, elapsed: 0.00028395652770996094
ell 700, elapsed: 0.0002701282501220703
ell 699, elapsed: 0.0002758502960205078
ell 698, elapsed: 0.0002770423889160156
ell 602, elapsed: 0.00457310676574707
ell 601, elapsed: 0.00029206275939941406
ell 600, elapsed: 0.0002779960632324219
ell 599, elapsed: 0.0002779960632324219
ell 598, elapsed: 0.00041794776916503906
ell 502, elapsed: 0.004584074020385742
ell 501, elapsed: 0.0002830028533935547
ell 500, elapsed: 0.0002760887145996094
ell 499, elapsed: 0.0002758502960205078
ell 498, elapsed: 0.0002741813659667969
ell 402, elapsed: 0.004530191421508789
ell 401, elapsed: 0.00028395652770996094
ell 400, elapsed: 0.0002720355987548828
ell 399, elapsed: 0.0002751350402832031
ell 398, elapsed: 0.0002741813659667969
ell 302, elapsed: 0.004606008529663086
ell 301, elapsed: 0.00028395652770996094
ell 300, elapsed: 0.0002779960632324219
ell 299, elapsed: 0.0002739429473876953
ell 298, elapsed: 0.00027489662170410156
ell 202, elapsed: 0.0045740604400634766
ell 201, elapsed: 0.00028705596923828125
ell 200, elapsed: 0.00027680397033691406
ell 199, elapsed: 0.0002770423889160156
ell 198, elapsed: 0.0002799034118652344
ell 152, elapsed: 0.0024008750915527344
ell 151, elapsed: 0.00028586387634277344
ell 150, elapsed: 0.0002810955047607422
ell 149, elapsed: 0.00027680397033691406
ell 148, elapsed: 0.0002760887145996094
ell 127, elapsed: 0.0013699531555175781
ell 126, elapsed: 0.0002779960632324219
ell 125, elapsed: 0.00027489662170410156
ell 124, elapsed: 0.00027298927307128906
ell 123, elapsed: 0.0002760887145996094
ell 114, elapsed: 0.0006849765777587891
ell 113, elapsed: 0.0002751350402832031
ell 112, elapsed: 0.00027298927307128906
ell 111, elapsed: 0.0002720355987548828
ell 110, elapsed: 0.00027298927307128906
ell 102, elapsed: 0.0006859302520751953
ell 101, elapsed: 0.00026607513427734375
ell 100, elapsed: 0.0002739429473876953
ell 99, elapsed: 0.0002739429473876953
ell 98, elapsed: 0.0002770423889160156
ell 97, elapsed: 0.00033783912658691406
ell 96, elapsed: 0.00031304359436035156
ell 95, elapsed: 0.00031495094299316406
ell 94, elapsed: 0.0003159046173095703
ell 93, elapsed: 0.0003170967102050781
ell 92, elapsed: 0.0003139972686767578
ell 91, elapsed: 0.00030493736267089844
ell 90, elapsed: 0.0003139972686767578
ell 89, elapsed: 0.00033593177795410156
ell 88, elapsed: 0.0003058910369873047
ell 87, elapsed: 0.00031304359436035156
ell 86, elapsed: 0.0003058910369873047
ell 85, elapsed: 0.000308990478515625
ell 84, elapsed: 0.0003139972686767578
ell 83, elapsed: 0.0003151893615722656
ell 82, elapsed: 0.0003170967102050781
ell 81, elapsed: 0.0003058910369873047
ell 80, elapsed: 0.00031495094299316406
ell 79, elapsed: 0.0003120899200439453
ell 78, elapsed: 0.0003058910369873047
ell 77, elapsed: 0.00036406517028808594
ell 76, elapsed: 0.00030803680419921875
ell 75, elapsed: 0.000308990478515625
ell 74, elapsed: 0.0003228187561035156
ell 73, elapsed: 0.000308990478515625
ell 72, elapsed: 0.0003139972686767578
ell 71, elapsed: 0.000308990478515625
ell 70, elapsed: 0.00030994415283203125
ell 69, elapsed: 0.00031304359436035156
ell 68, elapsed: 0.0003108978271484375
ell 67, elapsed: 0.0003159046173095703
ell 66, elapsed: 0.0003120899200439453
ell 65, elapsed: 0.00034499168395996094
ell 64, elapsed: 0.00031495094299316406
ell 63, elapsed: 0.0003039836883544922
ell 62, elapsed: 0.000308990478515625
ell 61, elapsed: 0.0003058910369873047
ell 60, elapsed: 0.0003039836883544922
ell 59, elapsed: 0.00031304359436035156
ell 58, elapsed: 0.0003020763397216797
ell 57, elapsed: 0.000308990478515625
ell 56, elapsed: 0.0003039836883544922
ell 55, elapsed: 0.0003008842468261719
ell 54, elapsed: 0.00030994415283203125
ell 53, elapsed: 0.00033402442932128906
ell 52, elapsed: 0.00030803680419921875
ell 51, elapsed: 0.00030303001403808594
ell 50, elapsed: 0.0003058910369873047
ell 49, elapsed: 0.00030994415283203125
ell 48, elapsed: 0.00030303001403808594
ell 47, elapsed: 0.00030803680419921875
ell 46, elapsed: 0.0003039836883544922
ell 45, elapsed: 0.000308990478515625
ell 44, elapsed: 0.0003070831298828125
ell 43, elapsed: 0.0003027915954589844
ell 42, elapsed: 0.00030803680419921875
ell 41, elapsed: 0.00030303001403808594
ell 40, elapsed: 0.00039505958557128906
ell 39, elapsed: 0.0003039836883544922
ell 38, elapsed: 0.00031185150146484375
ell 37, elapsed: 0.000308990478515625
ell 36, elapsed: 0.00030493736267089844
ell 35, elapsed: 0.00030994415283203125
ell 34, elapsed: 0.00030493736267089844
ell 33, elapsed: 0.00030493736267089844
ell 32, elapsed: 0.000308990478515625
ell 31, elapsed: 0.0003070831298828125
ell 30, elapsed: 0.0003120899200439453
ell 29, elapsed: 0.00030803680419921875
ell 28, elapsed: 0.00033593177795410156
ell 27, elapsed: 0.00031113624572753906
ell 26, elapsed: 0.000308990478515625
ell 25, elapsed: 0.0003190040588378906
ell 24, elapsed: 0.00030684471130371094
ell 23, elapsed: 0.00030612945556640625
ell 22, elapsed: 0.00031304359436035156
ell 21, elapsed: 0.00030803680419921875
ell 20, elapsed: 0.0003151893615722656
ell 19, elapsed: 0.00030493736267089844
ell 18, elapsed: 0.00030684471130371094
ell 17, elapsed: 0.00030803680419921875
ell 16, elapsed: 0.0003540515899658203
ell 15, elapsed: 0.000308990478515625
ell 14, elapsed: 0.0003070831298828125
ell 13, elapsed: 0.00031113624572753906
ell 12, elapsed: 0.0003058910369873047
ell 11, elapsed: 0.00030303001403808594
ell 10, elapsed: 0.00031185150146484375
ell 9, elapsed: 0.0003020763397216797
ell 8, elapsed: 0.00030803680419921875
ell 7, elapsed: 0.0003170967102050781
ell 6, elapsed: 0.00030612945556640625
ell 5, elapsed: 0.000308990478515625
ell 4, elapsed: 0.0003368854522705078
ell 3, elapsed: 0.0003120899200439453
ell 2, elapsed: 0.00031304359436035156
ell 1, elapsed: 0.00030493736267089844
ell 0, elapsed: 0.0003120899200439453
  0.100135 seconds (11.51 k allocations: 719.594 KiB)
elapsed: 0.00034999847412109375
step:          0.051687 sec (0 allocations: 0 byte, 0.0% gc time)
swapping:      0.000306 sec (0 allocations: 0 byte, 0.0% gc time)
calc_Mellell!: 0.00067 sec (0 allocations: 0 byte, 0.0% gc time)
  t0 :  0.000237 sec (0 allocations: 0 byte, 0.0% gc time)
  tm2 : 0.010483 sec (0 allocations: 0 byte, 0.0% gc time)
  tm2s: 0.000236 sec (0 allocations: 0 byte, 0.0% gc time)
  tm4 : 0.025203 sec (0 allocations: 0 byte, 0.0% gc time)
  tp2 : 0.0 sec (0 allocations: 0 byte, 0.0% gc time)
  tp2s: 0.0 sec (0 allocations: 0 byte, 0.0% gc time)
  tp4 : 0.0 sec (0 allocations: 0 byte, 0.0% gc time)
calc_wtdll!:   0.036542 sec (1.344 k allocations: 147.0 KB, 0.0% gc time)
calc_wljj!:    0.001969 sec (6 allocations: 96 byte, 0.0% gc time)
mult_prefac!:  0.0 sec (0 allocations: 0 byte, 0.0% gc time)
convert:       0.0 sec (0 allocations: 0 byte, 0.0% gc time)
write:         0.002565 sec (0 allocations: 0 byte, 0.0% gc time)
test_rand_2f1: 0.0 sec (0 allocations: 0 byte, 0.0% gc time)
Closing outfile out/Ml21-cache.bin...   0.000008 seconds
  0.000413 seconds (36 allocations: 27.953 KiB)
make_phi():   0.001465 seconds (8.19 k allocations: 238.078 KiB)
  0.010551 seconds (11.65 k allocations: 308.688 KiB)
tskip:       1.6e-5 sec (0 allocations: 0 byte, 0.0% gc time)
tread:       0.001824 sec (17 allocations: 2.125 KB, 0.0% gc time)
tmultphi:    0.000848 sec (0 allocations: 0 byte, 0.0% gc time)
tbrfft:      0.003329 sec (0 allocations: 0 byte, 0.0% gc time)
tmultprefac: 0.00147 sec (0 allocations: 0 byte, 0.0% gc time)
toutfunc:    0.002827 sec (10.304 k allocations: 196.0 KB, 0.0% gc time)
Testing R=0.9 ... passed
Calculating fmax: 
  dlrec    = 4
  dlrecRg1 = -4
  q=1.1, R=0.8:	  0.203116 seconds (103.21 k allocations: 14.840 MiB)

  0.203365 seconds (103.26 k allocations: 14.874 MiB)
ℓ = 1202
Δℓ = 4
ΔℓRg1 = -4
N = 1600
q = 1.1
kmin = 1.0e-5
kmax = 100000.00000000004
χ0 = 0.023029999999999995
RR = RR.tsv
ℓmax = ℓmax.bin
f21 = f21.bin
kmin = 1.0e-5
kmax = 100000.0
dlrec    = 4
dlrecRg1 = -4
Output size: 5741568 bytes = 0.005347251892089844 GiB
Output size: 51264 bytes = 4.774332046508789e-5 GiB
Reading 'out/F21EllCache'...   0.000816 seconds (197 allocations: 84.203 KiB)
ellmax: 1202
lmaxcache: 1202
fell[:,1,1] = ComplexF64[7.519068145690986e-120 - 1.8416405474382574e-135im, 7.541664537386155e-120 - 1.847175067190611e-135im]
ell 1202, elapsed: 1.8835067749023438e-5
ell 1201, elapsed: 0.000331878662109375
ell 1200, elapsed: 0.0002989768981933594
ell 1199, elapsed: 0.0002930164337158203
ell 1198, elapsed: 0.0002899169921875
ell 1002, elapsed: 0.009103059768676758
ell 1001, elapsed: 0.00028896331787109375
ell 1000, elapsed: 0.0002799034118652344
ell 999, elapsed: 0.0002760887145996094
ell 998, elapsed: 0.0002880096435546875
ell 902, elapsed: 0.004564046859741211
ell 901, elapsed: 0.0002830028533935547
ell 900, elapsed: 0.0002751350402832031
ell 899, elapsed: 0.0002751350402832031
ell 898, elapsed: 0.00027489662170410156
ell 802, elapsed: 0.004567861557006836
ell 801, elapsed: 0.0002841949462890625
ell 800, elapsed: 0.00032401084899902344
ell 799, elapsed: 0.000286102294921875
ell 798, elapsed: 0.0002760887145996094
ell 702, elapsed: 0.004542112350463867
ell 701, elapsed: 0.0002849102020263672
ell 700, elapsed: 0.0002760887145996094
ell 699, elapsed: 0.00027489662170410156
ell 698, elapsed: 0.0002720355987548828
ell 602, elapsed: 0.0046100616455078125
ell 601, elapsed: 0.00028896331787109375
ell 600, elapsed: 0.00033092498779296875
ell 599, elapsed: 0.00028014183044433594
ell 598, elapsed: 0.0002770423889160156
ell 502, elapsed: 0.004606008529663086
ell 501, elapsed: 0.00028514862060546875
ell 500, elapsed: 0.0002799034118652344
ell 499, elapsed: 0.0002760887145996094
ell 498, elapsed: 0.00027298927307128906
ell 402, elapsed: 0.004528045654296875
ell 401, elapsed: 0.0002808570861816406
ell 400, elapsed: 0.00027298927307128906
ell 399, elapsed: 0.0002779960632324219
ell 398, elapsed: 0.0003139972686767578
ell 302, elapsed: 0.004542827606201172
ell 301, elapsed: 0.0002980232238769531
ell 300, elapsed: 0.0002770423889160156
ell 299, elapsed: 0.00027108192443847656
ell 298, elapsed: 0.0002741813659667969
ell 202, elapsed: 0.004565000534057617
ell 201, elapsed: 0.00028896331787109375
ell 200, elapsed: 0.00027489662170410156
ell 199, elapsed: 0.0002720355987548828
ell 198, elapsed: 0.0002720355987548828
ell 152, elapsed: 0.0023479461669921875
ell 151, elapsed: 0.0002830028533935547
ell 150, elapsed: 0.0002701282501220703
ell 149, elapsed: 0.0002751350402832031
ell 148, elapsed: 0.000270843505859375
ell 127, elapsed: 0.0012221336364746094
ell 126, elapsed: 0.00026488304138183594
ell 125, elapsed: 0.0002689361572265625
ell 124, elapsed: 0.00026702880859375
ell 123, elapsed: 0.0006668567657470703
ell 114, elapsed: 0.0017170906066894531
ell 113, elapsed: 0.0002999305725097656
ell 112, elapsed: 0.00026488304138183594
ell 111, elapsed: 0.00026798248291015625
ell 110, elapsed: 0.00026798248291015625
ell 102, elapsed: 0.0006120204925537109
ell 101, elapsed: 0.00026702880859375
ell 100, elapsed: 0.00026607513427734375
ell 99, elapsed: 0.00026679039001464844
ell 98, elapsed: 0.00026798248291015625
ell 97, elapsed: 0.0003299713134765625
ell 96, elapsed: 0.00030493736267089844
ell 95, elapsed: 0.0003058910369873047
ell 94, elapsed: 0.0003490447998046875
ell 93, elapsed: 0.00030493736267089844
ell 92, elapsed: 0.000308990478515625
ell 91, elapsed: 0.00030517578125
ell 90, elapsed: 0.00030303001403808594
ell 89, elapsed: 0.0003039836883544922
ell 88, elapsed: 0.0003020763397216797
ell 87, elapsed: 0.0003070831298828125
ell 86, elapsed: 0.00030303001403808594
ell 85, elapsed: 0.00030303001403808594
ell 84, elapsed: 0.0003070831298828125
ell 83, elapsed: 0.00030493736267089844
ell 82, elapsed: 0.00031113624572753906
ell 81, elapsed: 0.0003578662872314453
ell 80, elapsed: 0.0003180503845214844
ell 79, elapsed: 0.00030303001403808594
ell 78, elapsed: 0.00030422210693359375
ell 77, elapsed: 0.00030612945556640625
ell 76, elapsed: 0.00030303001403808594
[...]
ell 612, elapsed: 0.0010018348693847656
ell 611, elapsed: 0.0005700588226318359
ell 610, elapsed: 0.0006151199340820312
ell 609, elapsed: 0.000576019287109375
ell 608, elapsed: 0.0005810260772705078
ell 602, elapsed: 0.0010101795196533203
ell 601, elapsed: 0.0005710124969482422
ell 600, elapsed: 0.0005831718444824219
ell 599, elapsed: 0.00061798095703125
ell 598, elapsed: 0.0005838871002197266
ell 592, elapsed: 0.0010128021240234375
ell 591, elapsed: 0.0005748271942138672
ell 590, elapsed: 0.0005850791931152344
ell 589, elapsed: 0.0005729198455810547
ell 588, elapsed: 0.0006041526794433594
ell 582, elapsed: 0.001010894775390625
ell 581, elapsed: 0.0005710124969482422
ell 580, elapsed: 0.0005788803100585938
ell 579, elapsed: 0.0005831718444824219
ell 578, elapsed: 0.0005779266357421875
ell 572, elapsed: 0.0010290145874023438
ell 571, elapsed: 0.0005650520324707031
ell 570, elapsed: 0.0005841255187988281
ell 569, elapsed: 0.0005741119384765625
ell 568, elapsed: 0.0005838871002197266
ell 562, elapsed: 0.0010569095611572266
ell 561, elapsed: 0.0005669593811035156
ell 560, elapsed: 0.0005731582641601562
ell 559, elapsed: 0.0005710124969482422
ell 558, elapsed: 0.000576019287109375
ell 552, elapsed: 0.000997781753540039
ell 551, elapsed: 0.0005970001220703125
ell 550, elapsed: 0.0005691051483154297
ell 549, elapsed: 0.0005671977996826172
ell 548, elapsed: 0.0005738735198974609
ell 542, elapsed: 0.0009758472442626953
ell 541, elapsed: 0.0005691051483154297
ell 540, elapsed: 0.0006098747253417969
ell 539, elapsed: 0.0005810260772705078
ell 538, elapsed: 0.0005810260772705078
ell 532, elapsed: 0.0010120868682861328
ell 531, elapsed: 0.0005791187286376953
ell 530, elapsed: 0.0005860328674316406
ell 529, elapsed: 0.0006148815155029297
ell 528, elapsed: 0.0005748271942138672
ell 522, elapsed: 0.0010139942169189453
ell 521, elapsed: 0.0005700588226318359
ell 520, elapsed: 0.0005869865417480469
ell 519, elapsed: 0.000576019287109375
ell 518, elapsed: 0.0006079673767089844
ell 512, elapsed: 0.0010180473327636719
ell 511, elapsed: 0.0005729198455810547
ell 510, elapsed: 0.0005819797515869141
ell 509, elapsed: 0.0005769729614257812
ell 508, elapsed: 0.0005748271942138672
ell 502, elapsed: 0.0010349750518798828
ell 501, elapsed: 0.000576019287109375
ell 500, elapsed: 0.000579833984375
ell 499, elapsed: 0.0005769729614257812
ell 498, elapsed: 0.0005900859832763672
ell 492, elapsed: 0.0010600090026855469
ell 491, elapsed: 0.0005769729614257812
ell 490, elapsed: 0.0005691051483154297
ell 489, elapsed: 0.0005829334259033203
ell 488, elapsed: 0.0005831718444824219
ell 482, elapsed: 0.0010221004486083984
ell 481, elapsed: 0.0006000995635986328
ell 480, elapsed: 0.0005779266357421875
ell 479, elapsed: 0.0005738735198974609
ell 478, elapsed: 0.0005781650543212891
ell 472, elapsed: 0.0010209083557128906
ell 471, elapsed: 0.0005779266357421875
ell 470, elapsed: 0.0006239414215087891
ell 469, elapsed: 0.0005788803100585938
ell 468, elapsed: 0.0005700588226318359
ell 462, elapsed: 0.0009999275207519531
ell 461, elapsed: 0.0005719661712646484
ell 460, elapsed: 0.0005822181701660156
ell 459, elapsed: 0.0006151199340820312
ell 458, elapsed: 0.0005848407745361328
ell 452, elapsed: 0.001010894775390625
ell 451, elapsed: 0.0005741119384765625
ell 450, elapsed: 0.0005819797515869141
ell 449, elapsed: 0.0005769729614257812
ell 448, elapsed: 0.0006089210510253906
ell 442, elapsed: 0.001016855239868164
ell 441, elapsed: 0.0005791187286376953
ell 440, elapsed: 0.0005800724029541016
ell 439, elapsed: 0.0005829334259033203
ell 438, elapsed: 0.0005860328674316406
ell 432, elapsed: 0.0010390281677246094
ell 431, elapsed: 0.0005741119384765625
ell 430, elapsed: 0.0005779266357421875
ell 429, elapsed: 0.0005741119384765625
ell 428, elapsed: 0.0005950927734375
ell 422, elapsed: 0.0010280609130859375
ell 421, elapsed: 0.0005738735198974609
ell 420, elapsed: 0.0005850791931152344
ell 419, elapsed: 0.000576019287109375
ell 418, elapsed: 0.0005800724029541016
ell 412, elapsed: 0.0010151863098144531
ell 411, elapsed: 0.0005929470062255859
ell 410, elapsed: 0.0005819797515869141
ell 409, elapsed: 0.0005719661712646484
ell 408, elapsed: 0.0005900859832763672
ell 402, elapsed: 0.001010894775390625
ell 401, elapsed: 0.000579833984375
ell 400, elapsed: 0.0006279945373535156
ell 399, elapsed: 0.0005800724029541016
ell 398, elapsed: 0.0005850791931152344
ell 392, elapsed: 0.0010190010070800781
ell 391, elapsed: 0.0005779266357421875
ell 390, elapsed: 0.0005891323089599609
ell 389, elapsed: 0.0006020069122314453
ell 388, elapsed: 0.0005850791931152344
ell 382, elapsed: 0.0010180473327636719
ell 381, elapsed: 0.000576019287109375
ell 380, elapsed: 0.0005731582641601562
ell 379, elapsed: 0.000576019287109375
ell 378, elapsed: 0.0006029605865478516
ell 372, elapsed: 0.0010068416595458984
ell 371, elapsed: 0.000576019287109375
ell 370, elapsed: 0.000579833984375
ell 369, elapsed: 0.0005707740783691406
ell 368, elapsed: 0.000579833984375
ell 362, elapsed: 0.0010559558868408203
ell 361, elapsed: 0.0005719661712646484
ell 360, elapsed: 0.0005941390991210938
ell 359, elapsed: 0.0005829334259033203
ell 358, elapsed: 0.0005769729614257812
ell 352, elapsed: 0.0010600090026855469
ell 351, elapsed: 0.0005829334259033203
ell 350, elapsed: 0.0005841255187988281
ell 349, elapsed: 0.0005810260772705078
ell 348, elapsed: 0.0005829334259033203
ell 342, elapsed: 0.0010280609130859375
ell 341, elapsed: 0.0006070137023925781
ell 340, elapsed: 0.0005788803100585938
ell 339, elapsed: 0.0005700588226318359
ell 338, elapsed: 0.0005729198455810547
ell 332, elapsed: 0.0010149478912353516
ell 331, elapsed: 0.0005879402160644531
ell 330, elapsed: 0.0008561611175537109
ell 329, elapsed: 0.0005719661712646484
ell 328, elapsed: 0.0007441043853759766
ell 322, elapsed: 0.0009989738464355469
ell 321, elapsed: 0.0008111000061035156
ell 320, elapsed: 0.0005848407745361328
ell 319, elapsed: 0.0005857944488525391
ell 318, elapsed: 0.0005819797515869141
ell 312, elapsed: 0.0010018348693847656
ell 311, elapsed: 0.0005638599395751953
ell 310, elapsed: 0.0006129741668701172
ell 309, elapsed: 0.0005810260772705078
ell 308, elapsed: 0.0005810260772705078
ell 302, elapsed: 0.0009989738464355469
ell 301, elapsed: 0.0005650520324707031
ell 300, elapsed: 0.0005810260772705078
ell 299, elapsed: 0.0006089210510253906
ell 298, elapsed: 0.0005779266357421875
ell 292, elapsed: 0.0010058879852294922
ell 291, elapsed: 0.0005669593811035156
ell 290, elapsed: 0.0005779266357421875
ell 289, elapsed: 0.0005691051483154297
ell 288, elapsed: 0.0006031990051269531
ell 282, elapsed: 0.0009949207305908203
ell 281, elapsed: 0.000576019287109375
ell 280, elapsed: 0.0005910396575927734
ell 279, elapsed: 0.0005838871002197266
ell 278, elapsed: 0.0005791187286376953
ell 272, elapsed: 0.0010390281677246094
ell 271, elapsed: 0.0005729198455810547
ell 270, elapsed: 0.0005769729614257812
ell 269, elapsed: 0.0005669593811035156
ell 268, elapsed: 0.0005800724029541016
ell 262, elapsed: 0.0009958744049072266
ell 261, elapsed: 0.0006239414215087891
ell 260, elapsed: 0.0005769729614257812
ell 259, elapsed: 0.0005660057067871094
ell 258, elapsed: 0.0005750656127929688
ell 252, elapsed: 0.0009849071502685547
ell 251, elapsed: 0.0005638599395751953
ell 250, elapsed: 0.0006008148193359375
ell 249, elapsed: 0.0005700588226318359
ell 248, elapsed: 0.0005788803100585938
ell 242, elapsed: 0.0010030269622802734
ell 241, elapsed: 0.0005688667297363281
ell 240, elapsed: 0.0005869865417480469
ell 239, elapsed: 0.0005829334259033203
ell 238, elapsed: 0.0005800724029541016
ell 232, elapsed: 0.0010271072387695312
ell 231, elapsed: 0.000576019287109375
ell 230, elapsed: 0.0005791187286376953
ell 229, elapsed: 0.0006029605865478516
ell 228, elapsed: 0.000579833984375
ell 222, elapsed: 0.0009899139404296875
ell 221, elapsed: 0.0005779266357421875
ell 220, elapsed: 0.000579833984375
ell 219, elapsed: 0.0005650520324707031
ell 218, elapsed: 0.0006258487701416016
ell 212, elapsed: 0.0010061264038085938
ell 211, elapsed: 0.00057220458984375
ell 210, elapsed: 0.0005829334259033203
ell 209, elapsed: 0.0005731582641601562
ell 208, elapsed: 0.0005769729614257812
ell 202, elapsed: 0.0010709762573242188
ell 201, elapsed: 0.000576019287109375
ell 200, elapsed: 0.0005729198455810547
ell 199, elapsed: 0.0005748271942138672
ell 198, elapsed: 0.0005800724029541016
ell 192, elapsed: 0.0010728836059570312
ell 191, elapsed: 0.0005829334259033203
ell 190, elapsed: 0.0005810260772705078
ell 189, elapsed: 0.000576019287109375
ell 188, elapsed: 0.0005819797515869141
ell 182, elapsed: 0.0010271072387695312
ell 181, elapsed: 0.0005981922149658203
ell 180, elapsed: 0.0005810260772705078
ell 179, elapsed: 0.0005791187286376953
ell 178, elapsed: 0.0005819797515869141
ell 172, elapsed: 0.0010120868682861328
ell 171, elapsed: 0.0005719661712646484
ell 170, elapsed: 0.0006189346313476562
ell 169, elapsed: 0.0005769729614257812
ell 168, elapsed: 0.0005800724029541016
ell 162, elapsed: 0.001004934310913086
ell 161, elapsed: 0.0005700588226318359
ell 160, elapsed: 0.0005769729614257812
ell 159, elapsed: 0.000598907470703125
ell 158, elapsed: 0.0005788803100585938
ell 152, elapsed: 0.0010271072387695312
ell 151, elapsed: 0.0005729198455810547
ell 150, elapsed: 0.0005791187286376953
ell 149, elapsed: 0.0005750656127929688
ell 148, elapsed: 0.0006151199340820312
ell 142, elapsed: 0.0010709762573242188
ell 141, elapsed: 0.0005850791931152344
ell 140, elapsed: 0.0005919933319091797
ell 139, elapsed: 0.0005829334259033203
ell 138, elapsed: 0.0005829334259033203
ell 132, elapsed: 0.0011398792266845703
ell 131, elapsed: 0.0005688667297363281
ell 130, elapsed: 0.0005729198455810547
ell 129, elapsed: 0.0005648136138916016
ell 128, elapsed: 0.0005698204040527344
ell 122, elapsed: 0.0010290145874023438
ell 121, elapsed: 0.00057220458984375
ell 120, elapsed: 0.0005729198455810547
ell 119, elapsed: 0.0005681514739990234
ell 118, elapsed: 0.0005691051483154297
ell 112, elapsed: 0.0010080337524414062
ell 111, elapsed: 0.0006029605865478516
ell 110, elapsed: 0.0005822181701660156
ell 109, elapsed: 0.0005700588226318359
ell 108, elapsed: 0.0005700588226318359
ell 102, elapsed: 0.0010139942169189453
ell 101, elapsed: 0.002471923828125
ell 100, elapsed: 0.0024771690368652344
ell 99, elapsed: 0.002444028854370117
ell 98, elapsed: 0.002413034439086914
ell 92, elapsed: 0.006398916244506836
ell 91, elapsed: 0.002476930618286133
ell 90, elapsed: 0.0025131702423095703
ell 89, elapsed: 0.0024771690368652344
ell 88, elapsed: 0.0025129318237304688
ell 82, elapsed: 0.004797935485839844
ell 81, elapsed: 0.0025300979614257812
ell 80, elapsed: 0.0024940967559814453
ell 79, elapsed: 0.002537965774536133
ell 78, elapsed: 0.0025300979614257812
ell 72, elapsed: 0.0048198699951171875
ell 71, elapsed: 0.002513885498046875
ell 70, elapsed: 0.002479076385498047
ell 69, elapsed: 0.0025091171264648438
ell 68, elapsed: 0.0024819374084472656
ell 62, elapsed: 0.0048558712005615234
ell 61, elapsed: 0.002519845962524414
ell 60, elapsed: 0.002527952194213867
ell 59, elapsed: 0.0025360584259033203
ell 58, elapsed: 0.002496957778930664
ell 52, elapsed: 0.004826784133911133
ell 51, elapsed: 0.002482891082763672
ell 50, elapsed: 0.002493143081665039
ell 49, elapsed: 0.0024919509887695312
ell 48, elapsed: 0.002477884292602539
ell 42, elapsed: 0.004830121994018555
ell 41, elapsed: 0.0025200843811035156
ell 40, elapsed: 0.0025539398193359375
ell 39, elapsed: 0.0025110244750976562
ell 38, elapsed: 0.002519845962524414
ell 32, elapsed: 0.004806995391845703
ell 31, elapsed: 0.0025429725646972656
ell 30, elapsed: 0.002505064010620117
ell 29, elapsed: 0.0025441646575927734
ell 28, elapsed: 0.0025310516357421875
ell 22, elapsed: 0.004817962646484375
ell 21, elapsed: 0.002507925033569336
ell 20, elapsed: 0.0024890899658203125
ell 19, elapsed: 0.0025281906127929688
ell 18, elapsed: 0.0024781227111816406
ell 12, elapsed: 0.004851102828979492
ell 11, elapsed: 0.0025110244750976562
ell 10, elapsed: 0.0025072097778320312
ell 9, elapsed: 0.002496957778930664
ell 8, elapsed: 0.002476930618286133
  0.529342 seconds (68.56 k allocations: 12.176 MiB)
elapsed: 0.0030410289764404297
step:          0.046878 sec (0 allocations: 0 byte, 0.0% gc time)
swapping:      0.000364 sec (0 allocations: 0 byte, 0.0% gc time)
calc_Mellell!: 0.01818 sec (0 allocations: 0 byte, 0.0% gc time)
  t0 :  0.007161 sec (0 allocations: 0 byte, 0.0% gc time)
  tm2 : 0.053203 sec (0 allocations: 0 byte, 0.0% gc time)
  tm2s: 0.007143 sec (0 allocations: 0 byte, 0.0% gc time)
  tm4 : 0.122019 sec (0 allocations: 0 byte, 0.0% gc time)
  tp2 : 0.0 sec (0 allocations: 0 byte, 0.0% gc time)
  tp2s: 0.0 sec (0 allocations: 0 byte, 0.0% gc time)
  tp4 : 0.0 sec (0 allocations: 0 byte, 0.0% gc time)
calc_wtdll!:   0.392336 sec (48.6 k allocations: 11.096 MB, 0.0% gc time)
calc_wljj!:    0.020312 sec (69 allocations: 1.078 KB, 0.0% gc time)
mult_prefac!:  0.0 sec (0 allocations: 0 byte, 0.0% gc time)
convert:       0.0 sec (0 allocations: 0 byte, 0.0% gc time)
write:         0.025359 sec (0 allocations: 0 byte, 0.0% gc time)
test_rand_2f1: 0.0 sec (0 allocations: 0 byte, 0.0% gc time)
Closing outfile out/MlCache/MlCache.bin...   0.000006 seconds
xi, l=0, nu=0:   0.286301 seconds (615.17 k allocations: 34.064 MiB, 7.90% gc time, 99.37% compilation time)
xi, l=0, nu=-2:  0.001532 seconds (114 allocations: 148.969 KiB)
Created 'out/xi.tsv'.
  q=1.1, R=0.6:	  0.436795 seconds (264.58 k allocations: 38.109 MiB, 4.31% gc time)
  q=1.1, R=0.7:	  0.496898 seconds (276.43 k allocations: 40.113 MiB, 2.55% gc time)
  q=1.1, R=0.8:	  0.509603 seconds (271.87 k allocations: 39.334 MiB, 1.30% gc time)
  q=1.1, R=0.9:	  0.568593 seconds (266.68 k allocations: 38.464 MiB)
  q=1.1, R=0.998:	 12.780831 seconds (126.20 k allocations: 8.290 MiB, 0.06% gc time, 0.15% compilation time)
  q=1.1, R=1.0:	  0.003060 seconds (8.20 k allocations: 704.344 KiB)

ℓ = 1000
Δℓ = 4
ΔℓRg1 = -4
N = 4096
q = 1.1
kmin = 1.0e-5
kmax = 1000.0
χ0 = 0.001
RR = RR.tsv
ℓmax = ℓmax.bin
f21 = f21.bin
kmin = 1.0e-5
kmax = 1000.0
dlrec    = 4
dlrecRg1 = -4
Output size: 1573632 bytes = 0.0014655590057373047 GiB
Output size: 786816 bytes = 0.0007327795028686523 GiB
Reading 'out/F21EllCache'...   0.001021 seconds (198 allocations: 533.078 KiB)
ellmax: 1002
lmaxcache: 1000
fell[:,1,1] = ComplexF64[1.726292812820208e-224 - 4.2281979352226965e-240im, 1.7282693092099638e-224 - 4.233038955177178e-240im]
ell 1002, elapsed: 1.7881393432617188e-5
ell 1001, elapsed: 0.00044417381286621094
ell 1000, elapsed: 0.00045180320739746094
ell 999, elapsed: 0.004161834716796875
ell 998, elapsed: 0.004142045974731445
ell 44, elapsed: 0.6355159282684326
ell 43, elapsed: 0.004110097885131836
ell 42, elapsed: 0.004129171371459961
ell 41, elapsed: 0.004168033599853516
ell 40, elapsed: 0.004144906997680664
  0.666583 seconds (4.59 k allocations: 322.266 KiB)
elapsed: 0.0049397945404052734
step:          0.634314 sec (0 allocations: 0 byte, 0.0% gc time)
swapping:      0.000328 sec (0 allocations: 0 byte, 0.0% gc time)
calc_Mellell!: 0.00058 sec (0 allocations: 0 byte, 0.0% gc time)
  t0 :  0.000247 sec (0 allocations: 0 byte, 0.0% gc time)
  tm2 : 0.007924 sec (0 allocations: 0 byte, 0.0% gc time)
  tm2s: 0.000213 sec (0 allocations: 0 byte, 0.0% gc time)
  tm4 : 0.01905 sec (0 allocations: 0 byte, 0.0% gc time)
  tp2 : 0.0 sec (0 allocations: 0 byte, 0.0% gc time)
  tp2s: 0.0 sec (0 allocations: 0 byte, 0.0% gc time)
  tp4 : 0.0 sec (0 allocations: 0 byte, 0.0% gc time)
calc_wtdll!:   0.027554 sec (480 allocations: 52.5 KB, 0.0% gc time)
calc_wljj!:    0.000632 sec (1 allocations: 16 byte, 0.0% gc time)
mult_prefac!:  0.0 sec (0 allocations: 0 byte, 0.0% gc time)
convert:       0.0 sec (0 allocations: 0 byte, 0.0% gc time)
write:         0.000682 sec (0 allocations: 0 byte, 0.0% gc time)
test_rand_2f1: 0.0 sec (0 allocations: 0 byte, 0.0% gc time)
Closing outfile out/MlCache/MlCache.bin...   0.000006 seconds
  0.379083 seconds (38 allocations: 66.859 KiB)
make_phi():   0.006225 seconds (65 allocations: 275.984 KiB)
  0.041866 seconds (11.83 k allocations: 740.085 KiB, 92.37% compilation time)
tskip:       1.0e-6 sec (0 allocations: 0 byte, 0.0% gc time)
tread:       0.000599 sec (17 allocations: 1.266 KB, 0.0% gc time)
tmultphi:    0.000243 sec (0 allocations: 0 byte, 0.0% gc time)
tbrfft:      0.000996 sec (0 allocations: 0 byte, 0.0% gc time)
tmultprefac: 0.0004 sec (0 allocations: 0 byte, 0.0% gc time)
toutfunc:    9.7e-5 sec (0 allocations: 0 byte, 0.0% gc time)
Created 'out/wl42_jj00.tsv'.
Created 'out/wl42_jj02.tsv'.
     Testing TwoFAST tests passed 

PkgEval succeeded


################################################################################
# PkgEval teardown: 2020-10-30T05:09:32.872
CPU usage: 133.68s (127.85s user, 6.09s kernel)

Network usage:
- eth0: 23.830 MiB received, 292.795 KiB sent

Raw statistics: {"blkio_stats":{"io_queue_recursive":[],"io_serviced_recursive":[{"major":259,"value":16,"op":"Read","minor":0},{"major":259,"value":13,"op":"Write","minor":0},{"major":259,"value":16,"op":"Sync","minor":0},{"major":259,"value":13,"op":"Async","minor":0},{"major":259,"value":29,"op":"Total","minor":0},{"major":253,"value":16,"op":"Read","minor":2},{"major":253,"value":13,"op":"Write","minor":2},{"major":253,"value":16,"op":"Sync","minor":2},{"major":253,"value":13,"op":"Async","minor":2},{"major":253,"value":29,"op":"Total","minor":2}],"io_time_recursive":[],"sectors_recursive":[],"io_service_bytes_recursive":[{"major":259,"value":65536,"op":"Read","minor":0},{"major":259,"value":61440,"op":"Write","minor":0},{"major":259,"value":65536,"op":"Sync","minor":0},{"major":259,"value":61440,"op":"Async","minor":0},{"major":259,"value":126976,"op":"Total","minor":0},{"major":253,"value":65536,"op":"Read","minor":2},{"major":253,"value":61440,"op":"Write","minor":2},{"major":253,"value":65536,"op":"Sync","minor":2},{"major":253,"value":61440,"op":"Async","minor":2},{"major":253,"value":126976,"op":"Total","minor":2}],"io_wait_time_recursive":[],"io_merged_recursive":[],"io_service_time_recursive":[]},"memory_stats":{"usage":308273152,"max_usage":915656704,"stats":{"hierarchical_memory_limit":9223372036854771712,"pgmajfault":0,"total_rss":193789952,"inactive_file":8192,"inactive_anon":49598464,"total_pgfault":1662994,"total_cache":105861120,"total_rss_huge":0,"total_active_anon":249769984,"total_pgmajfault":0,"pgpgin":1051019,"rss_huge":0,"mapped_file":0,"total_inactive_file":8192,"dirty":4096,"total_unevictable":0,"total_dirty":4096,"writeback":0,"pgpgout":977862,"hierarchical_memsw_limit":0,"cache":105861120,"active_file":258048,"pgfault":1662994,"total_mapped_file":0,"total_pgpgout":977862,"total_writeback":0,"rss":193789952,"unevictable":0,"total_inactive_anon":49598464,"total_pgpgin":1051019,"active_anon":249769984,"total_active_file":258048},"limit":540972998656},"name":"/TwoFAST-2yw2v1zY","networks":{"eth0":{"rx_bytes":24987121,"rx_packets":7019,"tx_packets":4228,"tx_bytes":299822,"tx_dropped":0,"rx_dropped":5,"tx_errors":0,"rx_errors":0}},"id":"ceb9bccad349396919e4b9ef7920d2f5297c5499e771d6c9f1c30e77c69ace8e","preread":"0001-01-01T00:00:00Z","storage_stats":{},"precpu_stats":{"throttling_data":{"throttled_periods":0,"throttled_time":0,"periods":0},"cpu_usage":{"usage_in_usermode":0,"usage_in_kernelmode":0,"total_usage":0}},"pids_stats":{"current":38},"num_procs":0,"cpu_stats":{"throttling_data":{"throttled_periods":0,"throttled_time":0,"periods":0},"system_cpu_usage":113172982700000000,"online_cpus":128,"cpu_usage":{"usage_in_usermode":127850000000,"usage_in_kernelmode":6090000000,"total_usage":133680691398,"percpu_usage":[0,0,0,0,0,0,0,0,0,0,0,0,0,0,0,0,0,0,0,0,0,0,0,0,0,0,0,0,0,0,0,0,0,0,0,0,0,0,0,0,0,0,0,0,0,0,0,0,0,0,0,0,0,0,0,0,0,0,0,0,0,0,0,0,0,0,0,0,0,0,0,0,0,0,0,0,0,0,0,0,0,0,0,0,0,0,0,0,0,0,0,0,0,0,0,0,0,0,133680691398,0,0,0,0,0,0,0,0,0,0,0,0,0,0,0,0,0,0,0,0,0,0,0,0,0,0,0,0,0]}},"read":"2020-10-30T05:09:32.87412544Z"}