Julia Version 1.6.0-DEV.1110
Commit 7344d19e6f (2020-10-02 14:43 UTC)
Platform Info:
  OS: Linux (x86_64-linux-gnu)
  CPU: AMD EPYC 7502 32-Core Processor
  WORD_SIZE: 64
  LIBM: libopenlibm
  LLVM: libLLVM-10.0.1 (ORCJIT, znver2)
Environment:
  JULIA_DEPOT_PATH = ::/usr/local/share/julia
  JULIA_NUM_THREADS = 2

  Resolving package versions...
  Installed IntelOpenMP_jll ────────────── v2018.0.3+0
  Installed Readables ──────────────────── v0.3.3
  Installed CompilerSupportLibraries_jll ─ v0.3.3+0
  Installed Reexport ───────────────────── v0.2.0
  Installed GenericSVD ─────────────────── v0.3.0
  Installed BinaryProvider ─────────────── v0.5.10
  Installed ArbNumerics ────────────────── v1.2.1
  Installed MKL_jll ────────────────────── v2020.2.254+0
  Installed AbstractFFTs ───────────────── v0.5.0
  Installed FFTW_jll ───────────────────── v3.3.9+5
  Installed FFTW ───────────────────────── v1.2.4
  Installed GenericSchur ───────────────── v0.4.0
  Installed OpenSpecFun_jll ────────────── v0.5.3+3
  Installed TwoFAST ────────────────────── v0.1.3
  Installed SpecialFunctions ───────────── v0.10.3
Updating `~/.julia/environments/v1.6/Project.toml`
  [0dd23c3e] + TwoFAST v0.1.3
Updating `~/.julia/environments/v1.6/Manifest.toml`
  [621f4979] + AbstractFFTs v0.5.0
  [7e558dbc] + ArbNumerics v1.2.1
  [b99e7846] + BinaryProvider v0.5.10
  [e66e0078] + CompilerSupportLibraries_jll v0.3.3+0
  [7a1cc6ca] + FFTW v1.2.4
  [f5851436] + FFTW_jll v3.3.9+5
  [01680d73] + GenericSVD v0.3.0
  [c145ed77] + GenericSchur v0.4.0
  [1d5cc7b8] + IntelOpenMP_jll v2018.0.3+0
  [856f044c] + MKL_jll v2020.2.254+0
  [efe28fd5] + OpenSpecFun_jll v0.5.3+3
  [0d4725de] + Readables v0.3.3
  [189a3867] + Reexport v0.2.0
  [276daf66] + SpecialFunctions v0.10.3
  [0dd23c3e] + TwoFAST v0.1.3
  [56f22d72] + Artifacts
  [2a0f44e3] + Base64
  [ade2ca70] + Dates
  [8bb1440f] + DelimitedFiles
  [8ba89e20] + Distributed
  [b77e0a4c] + InteractiveUtils
  [76f85450] + LibGit2
  [8f399da3] + Libdl
  [37e2e46d] + LinearAlgebra
  [56ddb016] + Logging
  [d6f4376e] + Markdown
  [a63ad114] + Mmap
  [44cfe95a] + Pkg
  [de0858da] + Printf
  [3fa0cd96] + REPL
  [9a3f8284] + Random
  [ea8e919c] + SHA
  [9e88b42a] + Serialization
  [6462fe0b] + Sockets
  [fa267f1f] + TOML
  [8dfed614] + Test
  [cf7118a7] + UUIDs
  [4ec0a83e] + Unicode
   Building ArbNumerics → `~/.julia/scratchspaces/44cfe95a-1eb2-52ea-b672-e2afdf69b78f/329a81d67c64e3a51c176a243b6424fbe39213d0/build.log`
   Building FFTW ───────→ `~/.julia/scratchspaces/44cfe95a-1eb2-52ea-b672-e2afdf69b78f/8b7c16b56936047ca41bf25effa137ae0b381ae8/build.log`
    Testing TwoFAST
Status `/tmp/jl_4jU8h3/Project.toml`
  [7e558dbc] ArbNumerics v1.2.1
  [39dd38d3] Dierckx v0.5.0
  [7a1cc6ca] FFTW v1.2.4
  [276daf66] SpecialFunctions v0.10.3
  [0dd23c3e] TwoFAST v0.1.3
  [8bb1440f] DelimitedFiles
  [37e2e46d] LinearAlgebra
  [56ddb016] Logging
  [8dfed614] Test
Status `/tmp/jl_4jU8h3/Manifest.toml`
  [621f4979] AbstractFFTs v0.5.0
  [7e558dbc] ArbNumerics v1.2.1
  [b99e7846] BinaryProvider v0.5.10
  [e66e0078] CompilerSupportLibraries_jll v0.3.3+0
  [39dd38d3] Dierckx v0.5.0
  [cd4c43a9] Dierckx_jll v0.0.1+0
  [7a1cc6ca] FFTW v1.2.4
  [f5851436] FFTW_jll v3.3.9+5
  [01680d73] GenericSVD v0.3.0
  [c145ed77] GenericSchur v0.4.0
  [1d5cc7b8] IntelOpenMP_jll v2018.0.3+0
  [856f044c] MKL_jll v2020.2.254+0
  [efe28fd5] OpenSpecFun_jll v0.5.3+3
  [0d4725de] Readables v0.3.3
  [189a3867] Reexport v0.2.0
  [276daf66] SpecialFunctions v0.10.3
  [0dd23c3e] TwoFAST v0.1.3
  [56f22d72] Artifacts
  [2a0f44e3] Base64
  [ade2ca70] Dates
  [8bb1440f] DelimitedFiles
  [8ba89e20] Distributed
  [b77e0a4c] InteractiveUtils
  [76f85450] LibGit2
  [8f399da3] Libdl
  [37e2e46d] LinearAlgebra
  [56ddb016] Logging
  [d6f4376e] Markdown
  [a63ad114] Mmap
  [44cfe95a] Pkg
  [de0858da] Printf
  [3fa0cd96] REPL
  [9a3f8284] Random
  [ea8e919c] SHA
  [9e88b42a] Serialization
  [6462fe0b] Sockets
  [fa267f1f] TOML
  [8dfed614] Test
  [cf7118a7] UUIDs
  [4ec0a83e] Unicode
    Testing Running tests...
WARNING: could not import Printf.ini_hex into ArbNumerics
WARNING: could not import Printf.ini_HEX into ArbNumerics
t = 0.0 sec (0 allocations: 0 byte, 0.0% gc time)
typeof(t) = NamedTuple{(:value, :time, :bytes, :gctime, :gcstats), Tuple{DataType, Float64, Int64, Float64, Base.GC_Diff}}
TwoFAST.PerformanceStats.TimedType = Union{NamedTuple{(:value, :time, :bytes, :gctime, :gcstats), Tuple{T, Float64, Int64, Float64, Base.GC_Diff}}, Tuple{Any, Float64, Int64, Float64, Base.GC_Diff}} where T
t = 0.0 sec (0 allocations: 0 byte, 0.0% gc time)
t: 0.0 sec (0 allocations: 0 byte, 0.0% gc time)
Testing ξ(r), ℓ=0, ν=-1 ... passed
Testing ξ(r), ℓ=0, ν=0 ... passed
Testing ξ(r), ℓ=0, ν=1 ... passed
Testing ξ(r), ℓ=0, ν=2 ... passed
Testing ξ(r), ℓ=0, ν=3 ... passed
Testing ξ(r), ℓ=1, ν=0 ... passed
Testing ξ(r), ℓ=1, ν=1 ... passed
Testing ξ(r), ℓ=1, ν=2 ... passed
Testing ξ(r), ℓ=1, ν=3 ... passed
Testing ξ(r), ℓ=2, ν=-1 ... passed
Testing ξ(r), ℓ=2, ν=0 ... passed
Testing ξ(r), ℓ=2, ν=1 ... passed
Testing ξ(r), ℓ=2, ν=2 ... passed
Testing ξ(r), ℓ=2, ν=3 ... passed
Testing ξ(r), ℓ=3, ν=-1 ... passed
Testing ξ(r), ℓ=3, ν=0 ... passed
Testing ξ(r), ℓ=3, ν=1 ... passed
Testing ξ(r), ℓ=3, ν=2 ... passed
Testing ξ(r), ℓ=3, ν=3 ... passed
Testing ξ(r), ℓ=4, ν=-1 ... passed
Testing ξ(r), ℓ=4, ν=0 ... passed
Testing ξ(r), ℓ=4, ν=1 ... passed
Testing ξ(r), ℓ=4, ν=2 ... passed
Testing ξ(r), ℓ=4, ν=3 ... passed
Testing ξ(r) ... passed
Testing ξ′(r) ... passed
Testing ξ″(r) ... passed
Calculating fmax: 
  dlrec    = 4
  dlrecRg1 = -4
  q=1.1, R=1.1:	  3.538068 seconds (842.07 k allocations: 53.849 MiB, 2.14% gc time, 90.30% compilation time)

  3.596644 seconds (854.57 k allocations: 54.637 MiB, 2.10% gc time, 90.43% compilation time)
ℓ = 1202
Δℓ = 4
ΔℓRg1 = -4
N = 1600
q = 1.1
kmin = 1.0e-5
kmax = 100000.00000000004
χ0 = 0.023029999999999995
RR = RR.tsv
ℓmax = ℓmax.bin
f21 = f21.bin
kmin = 1.0e-5
kmax = 100000.0
dlrec    = 4
dlrecRg1 = -4
Output size: 5741568 bytes = 0.005347251892089844 GiB
Output size: 51264 bytes = 4.774332046508789e-5 GiB
Reading 'out/F21EllCache'...   0.849427 seconds (426.51 k allocations: 24.996 MiB, 3.21% gc time, 99.60% compilation time)
ellmax: 1202
lmaxcache: 1202
fell[:,1,1] = ComplexF64[3.9583795592771634e-52 - 9.695233714158177e-68im, 3.990121772925759e-52 - 9.772979714843386e-68im]
ell 1202, elapsed: 3.790855407714844e-5
ell 1201, elapsed: 1.251081943511963
ell 1200, elapsed: 0.0004451274871826172
ell 1199, elapsed: 0.0004050731658935547
ell 1198, elapsed: 0.00039887428283691406
ell 1002, elapsed: 0.00860905647277832
ell 1001, elapsed: 0.00039696693420410156
ell 1000, elapsed: 0.0003879070281982422
ell 999, elapsed: 0.0003910064697265625
ell 998, elapsed: 0.00047206878662109375
ell 902, elapsed: 0.0043239593505859375
ell 901, elapsed: 0.0004169940948486328
ell 900, elapsed: 0.00039196014404296875
ell 899, elapsed: 0.00039005279541015625
ell 898, elapsed: 0.0003960132598876953
ell 802, elapsed: 0.004400968551635742
ell 801, elapsed: 0.0004069805145263672
ell 800, elapsed: 0.00039505958557128906
ell 799, elapsed: 0.0004200935363769531
ell 798, elapsed: 0.0003910064697265625
ell 702, elapsed: 0.0044438838958740234
ell 701, elapsed: 0.0004019737243652344
ell 700, elapsed: 0.0003960132598876953
ell 699, elapsed: 0.00039196014404296875
ell 698, elapsed: 0.00040411949157714844
ell 602, elapsed: 0.004357099533081055
ell 601, elapsed: 0.0003960132598876953
ell 600, elapsed: 0.00040221214294433594
ell 599, elapsed: 0.0004391670227050781
ell 598, elapsed: 0.00039505958557128906
ell 502, elapsed: 0.0068171024322509766
ell 501, elapsed: 0.0014858245849609375
ell 500, elapsed: 0.0003800392150878906
ell 499, elapsed: 0.000370025634765625
ell 498, elapsed: 0.00037598609924316406
ell 402, elapsed: 0.004266023635864258
ell 401, elapsed: 0.00037407875061035156
ell 400, elapsed: 0.00036406517028808594
ell 399, elapsed: 0.00037097930908203125
ell 398, elapsed: 0.00040411949157714844
ell 302, elapsed: 0.003918170928955078
ell 301, elapsed: 0.0003581047058105469
ell 300, elapsed: 0.0003578662872314453
ell 299, elapsed: 0.0003669261932373047
ell 298, elapsed: 0.0003590583801269531
ell 202, elapsed: 0.004024028778076172
ell 201, elapsed: 0.00037789344787597656
ell 200, elapsed: 0.000370025634765625
ell 199, elapsed: 0.0003731250762939453
ell 198, elapsed: 0.00037598609924316406
ell 152, elapsed: 0.0022690296173095703
ell 151, elapsed: 0.00036597251892089844
ell 150, elapsed: 0.00036597251892089844
ell 149, elapsed: 0.0003879070281982422
ell 148, elapsed: 0.00036787986755371094
ell 127, elapsed: 0.0011661052703857422
ell 126, elapsed: 0.0003581047058105469
ell 125, elapsed: 0.0003650188446044922
ell 124, elapsed: 0.0004000663757324219
ell 123, elapsed: 0.0003631114959716797
ell 114, elapsed: 0.0007119178771972656
ell 113, elapsed: 0.0003800392150878906
ell 112, elapsed: 0.00036716461181640625
ell 111, elapsed: 0.0003528594970703125
ell 110, elapsed: 0.0004601478576660156
ell 102, elapsed: 0.0007030963897705078
ell 101, elapsed: 0.0003769397735595703
ell 100, elapsed: 0.00037980079650878906
ell 99, elapsed: 0.0003800392150878906
ell 98, elapsed: 0.00036597251892089844
ell 97, elapsed: 0.0003941059112548828
ell 96, elapsed: 0.0004000663757324219
ell 95, elapsed: 0.0004038810729980469
ell 94, elapsed: 0.0004379749298095703
ell 93, elapsed: 0.00039005279541015625
ell 92, elapsed: 0.0004019737243652344
ell 91, elapsed: 0.0004298686981201172
ell 90, elapsed: 0.00040984153747558594
ell 89, elapsed: 0.0004150867462158203
ell 88, elapsed: 0.0004279613494873047
ell 87, elapsed: 0.0004279613494873047
ell 86, elapsed: 0.0004181861877441406
ell 85, elapsed: 0.0004508495330810547
ell 84, elapsed: 0.00042700767517089844
ell 83, elapsed: 0.00041484832763671875
ell 82, elapsed: 0.0004150867462158203
ell 81, elapsed: 0.00043010711669921875
ell 80, elapsed: 0.0004119873046875
ell 79, elapsed: 0.00039696693420410156
ell 78, elapsed: 0.0003840923309326172
ell 77, elapsed: 0.0004010200500488281
ell 76, elapsed: 0.00045800209045410156
ell 75, elapsed: 0.00041103363037109375
ell 74, elapsed: 0.0004279613494873047
ell 73, elapsed: 0.0004229545593261719
ell 72, elapsed: 0.0004248619079589844
ell 71, elapsed: 0.0004169940948486328
ell 70, elapsed: 0.00043201446533203125
ell 69, elapsed: 0.0004260540008544922
ell 68, elapsed: 0.0004138946533203125
ell 67, elapsed: 0.00045108795166015625
ell 66, elapsed: 0.00041985511779785156
ell 65, elapsed: 0.0004200935363769531
ell 64, elapsed: 0.0004279613494873047
ell 63, elapsed: 0.00042891502380371094
ell 62, elapsed: 0.00042700767517089844
ell 61, elapsed: 0.0004398822784423828
ell 60, elapsed: 0.00042700767517089844
ell 59, elapsed: 0.0004329681396484375
ell 58, elapsed: 0.0004611015319824219
ell 57, elapsed: 0.00042700767517089844
ell 56, elapsed: 0.0004181861877441406
ell 55, elapsed: 0.0004220008850097656
ell 54, elapsed: 0.0004220008850097656
ell 53, elapsed: 0.00040912628173828125
ell 52, elapsed: 0.0003960132598876953
ell 51, elapsed: 0.00038504600524902344
ell 50, elapsed: 0.0003838539123535156
ell 49, elapsed: 0.00039386749267578125
ell 48, elapsed: 0.0010318756103515625
ell 47, elapsed: 0.000990152359008789
ell 46, elapsed: 0.0009720325469970703
ell 45, elapsed: 0.0010039806365966797
ell 44, elapsed: 0.0009889602661132812
ell 43, elapsed: 0.0009720325469970703
ell 42, elapsed: 0.00090789794921875
ell 41, elapsed: 0.0009450912475585938
ell 40, elapsed: 0.0004889965057373047
ell 39, elapsed: 0.0004909038543701172
ell 38, elapsed: 0.0004899501800537109
ell 37, elapsed: 0.0004899501800537109
ell 36, elapsed: 0.0004858970642089844
ell 35, elapsed: 0.0004978179931640625
ell 34, elapsed: 0.0005328655242919922
ell 33, elapsed: 0.000492095947265625
ell 32, elapsed: 0.0004799365997314453
ell 31, elapsed: 0.0004930496215820312
ell 30, elapsed: 0.0004968643188476562
ell 29, elapsed: 0.0004899501800537109
ell 28, elapsed: 0.0004968643188476562
ell 27, elapsed: 0.0004839897155761719
ell 26, elapsed: 0.0005140304565429688
ell 25, elapsed: 0.000492095947265625
ell 24, elapsed: 0.0005049705505371094
ell 23, elapsed: 0.0005118846893310547
ell 22, elapsed: 0.000492095947265625
ell 21, elapsed: 0.0004889965057373047
ell 20, elapsed: 0.0005159378051757812
ell 19, elapsed: 0.0005350112915039062
ell 18, elapsed: 0.0005199909210205078
ell 17, elapsed: 0.00048804283142089844
ell 16, elapsed: 0.0004980564117431641
ell 15, elapsed: 0.0005011558532714844
ell 14, elapsed: 0.00048804283142089844
ell 13, elapsed: 0.00049591064453125
ell 12, elapsed: 0.0005271434783935547
ell 11, elapsed: 0.0004889965057373047
ell 10, elapsed: 0.0004999637603759766
ell 9, elapsed: 0.0004930496215820312
ell 8, elapsed: 0.0005078315734863281
ell 7, elapsed: 0.000492095947265625
ell 6, elapsed: 0.0004918575286865234
ell 5, elapsed: 0.0006520748138427734
ell 4, elapsed: 0.0005030632019042969
ell 3, elapsed: 0.0005030632019042969
ell 2, elapsed: 0.0004940032958984375
ell 1, elapsed: 0.0004911422729492188
ell 0, elapsed: 0.0005140304565429688
  1.758754 seconds (1.38 M allocations: 74.482 MiB, 3.64% gc time, 92.65% compilation time)
elapsed: 0.00074005126953125
step:          0.378498 sec (311.14 k allocations: 16.963 MB, 11.29% gc time)
swapping:      0.000331 sec (0 allocations: 0 byte, 0.0% gc time)
calc_Mellell!: 0.170314 sec (135.739 k allocations: 7.431 MB, 0.0% gc time)
  t0 :  0.0 sec (0 allocations: 0 byte, 0.0% gc time)
  tm2 : 0.0 sec (0 allocations: 0 byte, 0.0% gc time)
  tm2s: 0.0 sec (0 allocations: 0 byte, 0.0% gc time)
  tm4 : 0.0 sec (0 allocations: 0 byte, 0.0% gc time)
  tp2 : 0.0 sec (0 allocations: 0 byte, 0.0% gc time)
  tp2s: 0.0 sec (0 allocations: 0 byte, 0.0% gc time)
  tp4 : 0.0 sec (0 allocations: 0 byte, 0.0% gc time)
calc_wtdll!:   0.812207 sec (509.623 k allocations: 28.199 MB, 0.0% gc time)
calc_wljj!:    0.001992 sec (6 allocations: 96 byte, 0.0% gc time)
mult_prefac!:  0.0 sec (0 allocations: 0 byte, 0.0% gc time)
convert:       0.0 sec (0 allocations: 0 byte, 0.0% gc time)
write:         0.003859 sec (0 allocations: 0 byte, 0.0% gc time)
test_rand_2f1: 0.0 sec (0 allocations: 0 byte, 0.0% gc time)
Closing outfile out/Ml21-cache.bin...   0.000015 seconds
  0.946160 seconds (246.39 k allocations: 14.220 MiB, 40.68% compilation time)
make_phi():   0.007090 seconds (8.18 k allocations: 237.844 KiB)
  0.217510 seconds (87.57 k allocations: 4.749 MiB, 94.06% compilation time)
tskip:       1.5e-5 sec (0 allocations: 0 byte, 0.0% gc time)
tread:       0.001837 sec (17 allocations: 2.125 KB, 0.0% gc time)
tmultphi:    0.039861 sec (21.425 k allocations: 1.287 MB, 0.0% gc time)
tbrfft:      0.003257 sec (0 allocations: 0 byte, 0.0% gc time)
tmultprefac: 0.001664 sec (0 allocations: 0 byte, 0.0% gc time)
toutfunc:    0.139144 sec (64.483 k allocations: 3.33 MB, 0.0% gc time)
Testing R=1.1 ... passed
Calculating fmax: 
  dlrec    = 4
  dlrecRg1 = -4
  q=1.1, R=1.0:	  0.001162 seconds (3.20 k allocations: 275.344 KiB)

  0.001267 seconds (3.25 k allocations: 310.312 KiB)
ℓ = 1202
Δℓ = 4
ΔℓRg1 = -4
N = 1600
q = 1.1
kmin = 1.0e-5
kmax = 100000.00000000004
χ0 = 0.023029999999999995
RR = RR.tsv
ℓmax = ℓmax.bin
f21 = f21.bin
kmin = 1.0e-5
kmax = 100000.0
dlrec    = 4
dlrecRg1 = -4
Output size: 61465536 bytes = 0.05724424123764038 GiB
Output size: 51264 bytes = 4.774332046508789e-5 GiB
Reading 'out/F21EllCache'...   0.000845 seconds (197 allocations: 84.203 KiB)
ellmax: 1202
lmaxcache: 1202
fell[:,1,1] = ComplexF64[809.6031528389767 - 1.9829558194077161e-13im, 0.0 + 0.0im]
ell 1202, elapsed: 1.5974044799804688e-5
ell 1201, elapsed: 0.012650012969970703
ell 1200, elapsed: 0.012408971786499023
ell 1199, elapsed: 0.00024008750915527344
ell 1198, elapsed: 0.00023794174194335938
ell 1197, elapsed: 0.00032901763916015625
ell 1196, elapsed: 0.00027298927307128906
ell 1195, elapsed: 0.0002720355987548828
ell 1194, elapsed: 0.0002760887145996094
ell 1193, elapsed: 0.0002739429473876953
ell 1192, elapsed: 0.00027680397033691406
ell 1191, elapsed: 0.0002701282501220703
ell 1190, elapsed: 0.0002770423889160156
ell 1189, elapsed: 0.0002720355987548828
ell 1188, elapsed: 0.0002732276916503906
ell 1187, elapsed: 0.004361152648925781
ell 1186, elapsed: 0.0002968311309814453
ell 1185, elapsed: 0.0002810955047607422
ell 1184, elapsed: 0.00027298927307128906
ell 1183, elapsed: 0.0002808570861816406
ell 1182, elapsed: 0.0002799034118652344
ell 1181, elapsed: 0.0002751350402832031
ell 1180, elapsed: 0.0002779960632324219
ell 1179, elapsed: 0.0002849102020263672
ell 1178, elapsed: 0.0002779960632324219
ell 1177, elapsed: 0.000286102294921875
ell 1176, elapsed: 0.00032806396484375
ell 1175, elapsed: 0.00029206275939941406
ell 1174, elapsed: 0.00037384033203125
ell 1173, elapsed: 0.0002980232238769531
ell 1172, elapsed: 0.0002942085266113281
ell 1171, elapsed: 0.0002892017364501953
ell 1170, elapsed: 0.0003008842468261719
ell 1169, elapsed: 0.0002899169921875
ell 1168, elapsed: 0.00029397010803222656
ell 1167, elapsed: 0.00029587745666503906
ell 1166, elapsed: 0.00028896331787109375
ell 1165, elapsed: 0.0002918243408203125
ell 1164, elapsed: 0.0002830028533935547
ell 1163, elapsed: 0.0003077983856201172
ell 1162, elapsed: 0.00030112266540527344
ell 1161, elapsed: 0.0003228187561035156
ell 1160, elapsed: 0.00030612945556640625
ell 1159, elapsed: 0.0002942085266113281
ell 1158, elapsed: 0.00029587745666503906
ell 1157, elapsed: 0.00030803680419921875
ell 1156, elapsed: 0.00029587745666503906
ell 1155, elapsed: 0.0003020763397216797
ell 1154, elapsed: 0.0002980232238769531
ell 1153, elapsed: 0.00029587745666503906
ell 1152, elapsed: 0.0003039836883544922
ell 1151, elapsed: 0.00030493736267089844
ell 1150, elapsed: 0.0003120899200439453
ell 1149, elapsed: 0.0003230571746826172
ell 1148, elapsed: 0.00030493736267089844
ell 1147, elapsed: 0.0003027915954589844
ell 1146, elapsed: 0.0003027915954589844
ell 1145, elapsed: 0.0003058910369873047
ell 1144, elapsed: 0.0002999305725097656
ell 1143, elapsed: 0.0003020763397216797
ell 1142, elapsed: 0.0003070831298828125
ell 1141, elapsed: 0.00030112266540527344
ell 1140, elapsed: 0.0002949237823486328
ell 1139, elapsed: 0.0002989768981933594
ell 1138, elapsed: 0.00030684471130371094
ell 1137, elapsed: 0.0002949237823486328
ell 1136, elapsed: 0.00035500526428222656
ell 1135, elapsed: 0.0002989768981933594
ell 1134, elapsed: 0.0002970695495605469
ell 1133, elapsed: 0.0003018379211425781
ell 1132, elapsed: 0.0002989768981933594
ell 1131, elapsed: 0.0002980232238769531
ell 1130, elapsed: 0.0003039836883544922
ell 1129, elapsed: 0.0002999305725097656
ell 1128, elapsed: 0.00030303001403808594
ell 1127, elapsed: 0.00029206275939941406
ell 1126, elapsed: 0.0003027915954589844
ell 1125, elapsed: 0.00030612945556640625
ell 1124, elapsed: 0.0003230571746826172
ell 1123, elapsed: 0.0003039836883544922
ell 1122, elapsed: 0.0002930164337158203
ell 1121, elapsed: 0.0002980232238769531
ell 1120, elapsed: 0.0002980232238769531
ell 1119, elapsed: 0.00029397010803222656
ell 1118, elapsed: 0.0002980232238769531
ell 1117, elapsed: 0.0003249645233154297
ell 1116, elapsed: 0.00028514862060546875
ell 1115, elapsed: 0.0003008842468261719
ell 1114, elapsed: 0.00029087066650390625
ell 1113, elapsed: 0.00031113624572753906
ell 1112, elapsed: 0.00028705596923828125
ell 1111, elapsed: 0.00033211708068847656
ell 1110, elapsed: 0.0002999305725097656
ell 1109, elapsed: 0.0002911090850830078
ell 1108, elapsed: 0.0002989768981933594
ell 1107, elapsed: 0.0002930164337158203
ell 1106, elapsed: 0.00029015541076660156
ell 1105, elapsed: 0.0002970695495605469
ell 1104, elapsed: 0.00030112266540527344
ell 1103, elapsed: 0.0002999305725097656
ell 1102, elapsed: 0.00029587745666503906
ell 1101, elapsed: 0.0002980232238769531
ell 1100, elapsed: 0.0003039836883544922
ell 1099, elapsed: 0.0003719329833984375
ell 1098, elapsed: 0.0003120899200439453
ell 1097, elapsed: 0.0002980232238769531
ell 1096, elapsed: 0.0002989768981933594
ell 1095, elapsed: 0.0003077983856201172
ell 1094, elapsed: 0.0002999305725097656
ell 1093, elapsed: 0.00032401084899902344
ell 1092, elapsed: 0.0003077983856201172
ell 1091, elapsed: 0.00028204917907714844
ell 1090, elapsed: 0.0002970695495605469
ell 1089, elapsed: 0.0002968311309814453
ell 1088, elapsed: 0.0003039836883544922
ell 1087, elapsed: 0.0002999305725097656
ell 1086, elapsed: 0.00032210350036621094
ell 1085, elapsed: 0.0002989768981933594
ell 1084, elapsed: 0.0002970695495605469
ell 1083, elapsed: 0.00031304359436035156
ell 1082, elapsed: 0.00030303001403808594
ell 1081, elapsed: 0.0002961158752441406
ell 1080, elapsed: 0.0002989768981933594
ell 1079, elapsed: 0.0003001689910888672
ell 1078, elapsed: 0.00030612945556640625
ell 1077, elapsed: 0.0002989768981933594
ell 1076, elapsed: 0.0003070831298828125
ell 1075, elapsed: 0.00030112266540527344
ell 1074, elapsed: 0.0003459453582763672
ell 1073, elapsed: 0.0003070831298828125
ell 1072, elapsed: 0.00029087066650390625
ell 1071, elapsed: 0.0002980232238769531
ell 1070, elapsed: 0.0002980232238769531
ell 1069, elapsed: 0.00029921531677246094
ell 1068, elapsed: 0.0003058910369873047
ell 1067, elapsed: 0.0003008842468261719
ell 1066, elapsed: 0.0002999305725097656
ell 1065, elapsed: 0.00028896331787109375
ell 1064, elapsed: 0.00029397010803222656
ell 1063, elapsed: 0.0002930164337158203
ell 1062, elapsed: 0.0003199577331542969
ell 1061, elapsed: 0.0002961158752441406
ell 1060, elapsed: 0.0002942085266113281
ell 1059, elapsed: 0.0002880096435546875
ell 1058, elapsed: 0.00030612945556640625
ell 1057, elapsed: 0.0002989768981933594
ell 1056, elapsed: 0.0003008842468261719
ell 1055, elapsed: 0.0002980232238769531
ell 1054, elapsed: 0.00028896331787109375
ell 1053, elapsed: 0.00030303001403808594
ell 1052, elapsed: 0.00029587745666503906
ell 1051, elapsed: 0.000308990478515625
ell 1050, elapsed: 0.0002951622009277344
ell 1049, elapsed: 0.00032401084899902344
ell 1048, elapsed: 0.0003039836883544922
ell 1047, elapsed: 0.0002570152282714844
ell 1046, elapsed: 0.00030803680419921875
ell 1045, elapsed: 0.00030303001403808594
ell 1044, elapsed: 0.00030303001403808594
ell 1043, elapsed: 0.00030803680419921875
ell 1042, elapsed: 0.0002498626708984375
ell 1041, elapsed: 0.0003018379211425781
ell 1040, elapsed: 0.0003008842468261719
ell 1039, elapsed: 0.0003020763397216797
ell 1038, elapsed: 0.0003020763397216797
ell 1037, elapsed: 0.0003001689910888672
ell 1036, elapsed: 0.0003478527069091797
ell 1035, elapsed: 0.0002899169921875
ell 1034, elapsed: 0.0002911090850830078
ell 1033, elapsed: 0.00030803680419921875
ell 1032, elapsed: 0.00030303001403808594
ell 1031, elapsed: 0.0002968311309814453
ell 1030, elapsed: 0.0002930164337158203
ell 1029, elapsed: 0.0003108978271484375
ell 1028, elapsed: 0.0002989768981933594
ell 1027, elapsed: 0.0002989768981933594
ell 1026, elapsed: 0.00031113624572753906
ell 1025, elapsed: 0.0002949237823486328
ell 1024, elapsed: 0.00034117698669433594
ell 1023, elapsed: 0.0003020763397216797
ell 1022, elapsed: 0.00030112266540527344
ell 1021, elapsed: 0.0003070831298828125
ell 1020, elapsed: 0.00030303001403808594
ell 1019, elapsed: 0.0003027915954589844
ell 1018, elapsed: 0.0002989768981933594
ell 1017, elapsed: 0.0002949237823486328
ell 1016, elapsed: 0.0003039836883544922
ell 1015, elapsed: 0.0002970695495605469
ell 1014, elapsed: 0.0003070831298828125
ell 1013, elapsed: 0.00029921531677246094
ell 1012, elapsed: 0.0002999305725097656
ell 1011, elapsed: 0.0003581047058105469
ell 1010, elapsed: 0.00029587745666503906
ell 1009, elapsed: 0.0003008842468261719
ell 1008, elapsed: 0.0002970695495605469
ell 1007, elapsed: 0.00029587745666503906
ell 1006, elapsed: 0.0003139972686767578
ell 1005, elapsed: 0.00029397010803222656
ell 1004, elapsed: 0.0002999305725097656
ell 1003, elapsed: 0.00029587745666503906
ell 1002, elapsed: 0.0002970695495605469
ell 1001, elapsed: 0.0002999305725097656
ell 1000, elapsed: 0.00029587745666503906
ell 999, elapsed: 0.00032591819763183594
ell 998, elapsed: 0.0002918243408203125
ell 997, elapsed: 0.0002911090850830078
ell 996, elapsed: 0.0002989768981933594
ell 995, elapsed: 0.0002949237823486328
ell 994, elapsed: 0.00029587745666503906
ell 993, elapsed: 0.0002899169921875
ell 992, elapsed: 0.00029015541076660156
ell 991, elapsed: 0.0002970695495605469
ell 990, elapsed: 0.00030303001403808594
ell 989, elapsed: 0.0002951622009277344
ell 988, elapsed: 0.00028896331787109375
ell 987, elapsed: 0.0002880096435546875
ell 986, elapsed: 0.00030803680419921875
ell 985, elapsed: 0.00029087066650390625
ell 984, elapsed: 0.0002989768981933594
ell 983, elapsed: 0.0002841949462890625
ell 982, elapsed: 0.0002808570861816406
ell 981, elapsed: 0.0002880096435546875
ell 980, elapsed: 0.000286102294921875
ell 979, elapsed: 0.00028705596923828125
ell 978, elapsed: 0.0002849102020263672
ell 977, elapsed: 0.0002970695495605469
ell 976, elapsed: 0.00028204917907714844
ell 975, elapsed: 0.0002830028533935547
ell 974, elapsed: 0.000286102294921875
ell 973, elapsed: 0.0003509521484375
ell 972, elapsed: 0.00028705596923828125
ell 971, elapsed: 0.00028586387634277344
ell 970, elapsed: 0.0002830028533935547
ell 969, elapsed: 0.0002899169921875
ell 968, elapsed: 0.00028586387634277344
ell 967, elapsed: 0.00028896331787109375
ell 966, elapsed: 0.00028705596923828125
ell 965, elapsed: 0.00028204917907714844
ell 964, elapsed: 0.00028705596923828125
ell 963, elapsed: 0.0002830028533935547
ell 962, elapsed: 0.00029587745666503906
ell 961, elapsed: 0.00024318695068359375
ell 960, elapsed: 0.00030684471130371094
ell 959, elapsed: 0.00025200843811035156
ell 958, elapsed: 0.00023698806762695312
ell 957, elapsed: 0.0002841949462890625
ell 956, elapsed: 0.0002849102020263672
ell 955, elapsed: 0.0002760887145996094
ell 954, elapsed: 0.0002810955047607422
ell 953, elapsed: 0.00027298927307128906
ell 952, elapsed: 0.0002880096435546875
ell 951, elapsed: 0.00023412704467773438
ell 950, elapsed: 0.0002651214599609375
ell 949, elapsed: 0.00027489662170410156
ell 948, elapsed: 0.0002720355987548828
ell 947, elapsed: 0.0002789497375488281
ell 946, elapsed: 0.00029206275939941406
ell 945, elapsed: 0.0002779960632324219
ell 944, elapsed: 0.0002779960632324219
ell 943, elapsed: 0.0002760887145996094
ell 942, elapsed: 0.00028395652770996094
ell 941, elapsed: 0.0002770423889160156
ell 940, elapsed: 0.00027489662170410156
ell 939, elapsed: 0.00027298927307128906
ell 938, elapsed: 0.0002779960632324219
ell 937, elapsed: 0.0002779960632324219
ell 936, elapsed: 0.00027179718017578125
ell 935, elapsed: 0.0002830028533935547
ell 934, elapsed: 0.0002830028533935547
ell 933, elapsed: 0.0003159046173095703
ell 932, elapsed: 0.00028705596923828125
ell 931, elapsed: 0.00027298927307128906
ell 930, elapsed: 0.0002751350402832031
ell 929, elapsed: 0.00028395652770996094
ell 928, elapsed: 0.0002770423889160156
ell 927, elapsed: 0.00028204917907714844
ell 926, elapsed: 0.0002770423889160156
ell 925, elapsed: 0.0002980232238769531
ell 924, elapsed: 0.0002789497375488281
ell 923, elapsed: 0.000286102294921875
ell 922, elapsed: 0.00029206275939941406
ell 921, elapsed: 0.0002810955047607422
ell 920, elapsed: 0.00028586387634277344
ell 919, elapsed: 0.00030112266540527344
ell 918, elapsed: 0.00028204917907714844
ell 917, elapsed: 0.0002892017364501953
ell 916, elapsed: 0.0003008842468261719
ell 915, elapsed: 0.0002980232238769531
ell 914, elapsed: 0.00028204917907714844
ell 913, elapsed: 0.0002880096435546875
ell 912, elapsed: 0.00029015541076660156
ell 911, elapsed: 0.0002830028533935547
ell 910, elapsed: 0.0002949237823486328
ell 909, elapsed: 0.000286102294921875
ell 908, elapsed: 0.0002810955047607422
ell 907, elapsed: 0.00030303001403808594
ell 906, elapsed: 0.00032782554626464844
ell 905, elapsed: 0.00029206275939941406
ell 904, elapsed: 0.00028514862060546875
ell 903, elapsed: 0.000286102294921875
ell 902, elapsed: 0.0002880096435546875
ell 901, elapsed: 0.0002880096435546875
ell 900, elapsed: 0.00029206275939941406
ell 899, elapsed: 0.000286102294921875
ell 898, elapsed: 0.0002880096435546875
ell 897, elapsed: 0.00029206275939941406
ell 896, elapsed: 0.00028705596923828125
ell 895, elapsed: 0.0002918243408203125
ell 894, elapsed: 0.000286102294921875
ell 893, elapsed: 0.00028705596923828125
ell 892, elapsed: 0.0002930164337158203
ell 891, elapsed: 0.000286102294921875
ell 890, elapsed: 0.00028896331787109375
ell 889, elapsed: 0.00028204917907714844
ell 888, elapsed: 0.0002808570861816406
ell 887, elapsed: 0.0002961158752441406
ell 886, elapsed: 0.0002818107604980469
ell 885, elapsed: 0.00028514862060546875
ell 884, elapsed: 0.0002799034118652344
ell 883, elapsed: 0.0002880096435546875
ell 882, elapsed: 0.00028514862060546875
ell 881, elapsed: 0.0002799034118652344
ell 880, elapsed: 0.00030803680419921875
ell 879, elapsed: 0.0002880096435546875
ell 878, elapsed: 0.0002880096435546875
ell 877, elapsed: 0.00028896331787109375
ell 876, elapsed: 0.0002970695495605469
ell 875, elapsed: 0.00029206275939941406
ell 874, elapsed: 0.0002899169921875
ell 873, elapsed: 0.0002930164337158203
ell 872, elapsed: 0.0002970695495605469
ell 871, elapsed: 0.00028896331787109375
ell 870, elapsed: 0.000308990478515625
ell 869, elapsed: 0.00029587745666503906
ell 868, elapsed: 0.0003008842468261719
ell 867, elapsed: 0.00029277801513671875
ell 866, elapsed: 0.0002949237823486328
ell 865, elapsed: 0.0003020763397216797
ell 864, elapsed: 0.0002930164337158203
ell 863, elapsed: 0.00030303001403808594
ell 862, elapsed: 0.00028896331787109375
ell 861, elapsed: 0.00029397010803222656
ell 860, elapsed: 0.0003039836883544922
ell 859, elapsed: 0.0002849102020263672
ell 858, elapsed: 0.00027489662170410156
ell 857, elapsed: 0.0002949237823486328
ell 856, elapsed: 0.00029587745666503906
ell 855, elapsed: 0.0003268718719482422
ell 854, elapsed: 0.0002968311309814453
ell 853, elapsed: 0.00029397010803222656
ell 852, elapsed: 0.0002830028533935547
ell 851, elapsed: 0.00029397010803222656
ell 850, elapsed: 0.0002930164337158203
ell 849, elapsed: 0.00028514862060546875
ell 848, elapsed: 0.0002930164337158203
ell 847, elapsed: 0.0002911090850830078
ell 846, elapsed: 0.0002880096435546875
ell 845, elapsed: 0.0002899169921875
ell 844, elapsed: 0.00028705596923828125
ell 843, elapsed: 0.0002970695495605469
ell 842, elapsed: 0.0003380775451660156
ell 841, elapsed: 0.00028705596923828125
ell 840, elapsed: 0.0002911090850830078
ell 839, elapsed: 0.0002930164337158203
ell 838, elapsed: 0.0002970695495605469
ell 837, elapsed: 0.00029015541076660156
ell 836, elapsed: 0.00029015541076660156
ell 835, elapsed: 0.0002949237823486328
ell 834, elapsed: 0.0002899169921875
ell 833, elapsed: 0.0002951622009277344
ell 832, elapsed: 0.0002899169921875
ell 831, elapsed: 0.00028705596923828125
ell 830, elapsed: 0.0002930164337158203
ell 829, elapsed: 0.00031685829162597656
ell 828, elapsed: 0.0003039836883544922
ell 827, elapsed: 0.00028514862060546875
ell 826, elapsed: 0.0002880096435546875
ell 825, elapsed: 0.00029397010803222656
ell 824, elapsed: 0.0003039836883544922
ell 823, elapsed: 0.0002949237823486328
ell 822, elapsed: 0.00028896331787109375
ell 821, elapsed: 0.00028204917907714844
ell 820, elapsed: 0.0002989768981933594
ell 819, elapsed: 0.00028395652770996094
ell 818, elapsed: 0.00036787986755371094
ell 817, elapsed: 0.00028896331787109375
ell 816, elapsed: 0.0003139972686767578
ell 815, elapsed: 0.00028514862060546875
ell 814, elapsed: 0.00029277801513671875
ell 813, elapsed: 0.00034618377685546875
ell 812, elapsed: 0.0003018379211425781
ell 811, elapsed: 0.0002911090850830078
ell 810, elapsed: 0.00028705596923828125
ell 809, elapsed: 0.00028395652770996094
ell 808, elapsed: 0.00029206275939941406
ell 807, elapsed: 0.0002849102020263672
ell 806, elapsed: 0.0002980232238769531
ell 805, elapsed: 0.0002849102020263672
ell 804, elapsed: 0.0003600120544433594
ell 803, elapsed: 0.0002970695495605469
ell 802, elapsed: 0.00028395652770996094
ell 801, elapsed: 0.0002911090850830078
ell 800, elapsed: 0.0002849102020263672
ell 799, elapsed: 0.0003020763397216797
ell 798, elapsed: 0.0002739429473876953
ell 797, elapsed: 0.00029087066650390625
ell 796, elapsed: 0.00029087066650390625
ell 795, elapsed: 0.00028705596923828125
ell 794, elapsed: 0.0002911090850830078
ell 793, elapsed: 0.00029277801513671875
ell 792, elapsed: 0.0002942085266113281
ell 791, elapsed: 0.0003199577331542969
ell 790, elapsed: 0.000286102294921875
ell 789, elapsed: 0.00028395652770996094
ell 788, elapsed: 0.00029087066650390625
ell 787, elapsed: 0.0002880096435546875
ell 786, elapsed: 0.00028896331787109375
ell 785, elapsed: 0.00028514862060546875
ell 784, elapsed: 0.0002810955047607422
ell 783, elapsed: 0.0002930164337158203
ell 782, elapsed: 0.0002789497375488281
ell 781, elapsed: 0.00028705596923828125
ell 780, elapsed: 0.0002789497375488281
ell 779, elapsed: 0.0002779960632324219
ell 778, elapsed: 0.0003237724304199219
ell 777, elapsed: 0.00029397010803222656
ell 776, elapsed: 0.0002810955047607422
ell 775, elapsed: 0.00028395652770996094
ell 774, elapsed: 0.00028705596923828125
ell 773, elapsed: 0.0002930164337158203
ell 772, elapsed: 0.00028586387634277344
ell 771, elapsed: 0.00029206275939941406
ell 770, elapsed: 0.0002849102020263672
ell 769, elapsed: 0.0002849102020263672
ell 768, elapsed: 0.0002899169921875
ell 767, elapsed: 0.00028705596923828125
ell 766, elapsed: 0.0002918243408203125
ell 765, elapsed: 0.0003120899200439453
ell 764, elapsed: 0.0003008842468261719
ell 763, elapsed: 0.0002841949462890625
ell 762, elapsed: 0.0002849102020263672
ell 761, elapsed: 0.0002880096435546875
ell 760, elapsed: 0.00028896331787109375
ell 759, elapsed: 0.0002980232238769531
ell 758, elapsed: 0.0002899169921875
ell 757, elapsed: 0.000286102294921875
ell 756, elapsed: 0.0002951622009277344
ell 755, elapsed: 0.00028514862060546875
ell 754, elapsed: 0.00029397010803222656
ell 753, elapsed: 0.00029015541076660156
ell 752, elapsed: 0.0003371238708496094
ell 751, elapsed: 0.00028896331787109375
ell 750, elapsed: 0.00029206275939941406
ell 749, elapsed: 0.0002880096435546875
ell 748, elapsed: 0.0002880096435546875
ell 747, elapsed: 0.00028395652770996094
ell 746, elapsed: 0.00028395652770996094
ell 745, elapsed: 0.00028204917907714844
ell 744, elapsed: 0.000286102294921875
ell 743, elapsed: 0.0002808570861816406
ell 742, elapsed: 0.0002779960632324219
ell 741, elapsed: 0.00028395652770996094
ell 740, elapsed: 0.0002899169921875
ell 739, elapsed: 0.00031113624572753906
ell 738, elapsed: 0.00028395652770996094
ell 737, elapsed: 0.00028514862060546875
ell 736, elapsed: 0.00028705596923828125
ell 735, elapsed: 0.00028395652770996094
ell 734, elapsed: 0.00028514862060546875
ell 733, elapsed: 0.00028705596923828125
ell 732, elapsed: 0.0002808570861816406
ell 731, elapsed: 0.000286102294921875
ell 730, elapsed: 0.0002779960632324219
ell 729, elapsed: 0.0002830028533935547
ell 728, elapsed: 0.00028204917907714844
ell 727, elapsed: 0.0002758502960205078
ell 726, elapsed: 0.0002830028533935547
ell 725, elapsed: 0.0002899169921875
ell 724, elapsed: 0.00028896331787109375
ell 723, elapsed: 0.0002779960632324219
ell 722, elapsed: 0.0002779960632324219
ell 721, elapsed: 0.00029206275939941406
ell 720, elapsed: 0.0002799034118652344
ell 719, elapsed: 0.00029087066650390625
ell 718, elapsed: 0.0002880096435546875
ell 717, elapsed: 0.0002770423889160156
ell 716, elapsed: 0.00028204917907714844
ell 715, elapsed: 0.0002930164337158203
ell 714, elapsed: 0.0002830028533935547
ell 713, elapsed: 0.0003249645233154297
ell 712, elapsed: 0.00028896331787109375
ell 711, elapsed: 0.0002849102020263672
ell 710, elapsed: 0.00028204917907714844
ell 709, elapsed: 0.00029015541076660156
ell 708, elapsed: 0.0002899169921875
ell 707, elapsed: 0.0002918243408203125
ell 706, elapsed: 0.0002880096435546875
ell 705, elapsed: 0.00028514862060546875
ell 704, elapsed: 0.0002911090850830078
ell 703, elapsed: 0.00029015541076660156
ell 702, elapsed: 0.00029206275939941406
ell 701, elapsed: 0.00028395652770996094
ell 700, elapsed: 0.0003180503845214844
ell 699, elapsed: 0.0003018379211425781
ell 698, elapsed: 0.0002880096435546875
ell 697, elapsed: 0.0002911090850830078
ell 696, elapsed: 0.00028395652770996094
ell 695, elapsed: 0.00028705596923828125
ell 694, elapsed: 0.00029206275939941406
ell 693, elapsed: 0.0002849102020263672
ell 692, elapsed: 0.0003039836883544922
ell 691, elapsed: 0.00028395652770996094
ell 690, elapsed: 0.00028705596923828125
ell 689, elapsed: 0.000286102294921875
ell 688, elapsed: 0.00028514862060546875
ell 687, elapsed: 0.0003390312194824219
ell 686, elapsed: 0.000286102294921875
ell 685, elapsed: 0.00028204917907714844
ell 684, elapsed: 0.00028896331787109375
ell 683, elapsed: 0.00028204917907714844
ell 682, elapsed: 0.0002880096435546875
ell 681, elapsed: 0.0002849102020263672
ell 680, elapsed: 0.000286102294921875
ell 679, elapsed: 0.00028014183044433594
ell 678, elapsed: 0.0002799034118652344
ell 677, elapsed: 0.00028586387634277344
ell 676, elapsed: 0.0002810955047607422
ell 675, elapsed: 0.00028204917907714844
ell 674, elapsed: 0.0003249645233154297
ell 673, elapsed: 0.0002830028533935547
ell 672, elapsed: 0.0002911090850830078
ell 671, elapsed: 0.00028395652770996094
ell 670, elapsed: 0.0002849102020263672
ell 669, elapsed: 0.000286102294921875
ell 668, elapsed: 0.0002758502960205078
ell 667, elapsed: 0.00029015541076660156
ell 666, elapsed: 0.0002980232238769531
ell 665, elapsed: 0.0002911090850830078
ell 664, elapsed: 0.00031304359436035156
ell 663, elapsed: 0.0002951622009277344
ell 662, elapsed: 0.0003020763397216797
ell 661, elapsed: 0.0003330707550048828
ell 660, elapsed: 0.00029921531677246094
ell 659, elapsed: 0.00030493736267089844
ell 658, elapsed: 0.0002949237823486328
ell 657, elapsed: 0.0003039836883544922
ell 656, elapsed: 0.0003001689910888672
ell 655, elapsed: 0.0003070831298828125
ell 654, elapsed: 0.00029587745666503906
ell 653, elapsed: 0.0002999305725097656
ell 652, elapsed: 0.0003039836883544922
ell 651, elapsed: 0.00030612945556640625
ell 650, elapsed: 0.00031685829162597656
ell 649, elapsed: 0.00030493736267089844
ell 648, elapsed: 0.00030803680419921875
ell 647, elapsed: 0.0002849102020263672
ell 646, elapsed: 0.0002970695495605469
ell 645, elapsed: 0.00025391578674316406
ell 644, elapsed: 0.0002989768981933594
ell 643, elapsed: 0.00029921531677246094
ell 642, elapsed: 0.00030803680419921875
ell 641, elapsed: 0.0002968311309814453
ell 640, elapsed: 0.0003287792205810547
ell 639, elapsed: 0.0002980232238769531
ell 638, elapsed: 0.0002951622009277344
ell 637, elapsed: 0.00029015541076660156
ell 636, elapsed: 0.0003380775451660156
ell 635, elapsed: 0.00030994415283203125
ell 634, elapsed: 0.0002570152282714844
ell 633, elapsed: 0.0002810955047607422
ell 632, elapsed: 0.0002880096435546875
ell 631, elapsed: 0.00027108192443847656
ell 630, elapsed: 0.0002911090850830078
ell 629, elapsed: 0.0003139972686767578
ell 628, elapsed: 0.0002868175506591797
ell 627, elapsed: 0.0003058910369873047
ell 626, elapsed: 0.0003199577331542969
ell 625, elapsed: 0.0003249645233154297
ell 624, elapsed: 0.0003120899200439453
ell 623, elapsed: 0.0003230571746826172
ell 622, elapsed: 0.0002808570861816406
ell 621, elapsed: 0.0002799034118652344
ell 620, elapsed: 0.0002880096435546875
ell 619, elapsed: 0.00028395652770996094
ell 618, elapsed: 0.0002830028533935547
ell 617, elapsed: 0.0002810955047607422
ell 616, elapsed: 0.00028204917907714844
ell 615, elapsed: 0.0002818107604980469
ell 614, elapsed: 0.00030994415283203125
ell 613, elapsed: 0.0003228187561035156
ell 612, elapsed: 0.0002701282501220703
ell 611, elapsed: 0.00028896331787109375
ell 610, elapsed: 0.0003521442413330078
ell 609, elapsed: 0.0002951622009277344
ell 608, elapsed: 0.0002989768981933594
ell 607, elapsed: 0.0002760887145996094
ell 606, elapsed: 0.0002758502960205078
ell 605, elapsed: 0.0002970695495605469
ell 604, elapsed: 0.00027489662170410156
ell 603, elapsed: 0.0002779960632324219
ell 602, elapsed: 0.0002808570861816406
ell 601, elapsed: 0.00030493736267089844
ell 600, elapsed: 0.00031113624572753906
ell 599, elapsed: 0.00031304359436035156
ell 598, elapsed: 0.00034499168395996094
ell 597, elapsed: 0.00030994415283203125
ell 596, elapsed: 0.00027489662170410156
ell 595, elapsed: 0.0002779960632324219
ell 594, elapsed: 0.00026702880859375
ell 593, elapsed: 0.0002739429473876953
ell 592, elapsed: 0.00026702880859375
ell 591, elapsed: 0.0002799034118652344
ell 590, elapsed: 0.0002720355987548828
ell 589, elapsed: 0.0002739429473876953
ell 588, elapsed: 0.00027489662170410156
ell 587, elapsed: 0.0002770423889160156
ell 586, elapsed: 0.0002830028533935547
ell 585, elapsed: 0.0002720355987548828
ell 584, elapsed: 0.0003218650817871094
ell 583, elapsed: 0.00030803680419921875
ell 582, elapsed: 0.0003039836883544922
ell 581, elapsed: 0.00027298927307128906
ell 580, elapsed: 0.0002739429473876953
ell 579, elapsed: 0.00026798248291015625
ell 578, elapsed: 0.0002741813659667969
ell 577, elapsed: 0.0002739429473876953
ell 576, elapsed: 0.0002841949462890625
ell 575, elapsed: 0.0002739429473876953
ell 574, elapsed: 0.0002770423889160156
ell 573, elapsed: 0.00026988983154296875
ell 572, elapsed: 0.00026702880859375
ell 571, elapsed: 0.0002999305725097656
ell 570, elapsed: 0.0002720355987548828
ell 569, elapsed: 0.0002689361572265625
ell 568, elapsed: 0.0002830028533935547
ell 567, elapsed: 0.0002849102020263672
ell 566, elapsed: 0.0002701282501220703
ell 565, elapsed: 0.00028705596923828125
ell 564, elapsed: 0.0002880096435546875
ell 563, elapsed: 0.0002799034118652344
ell 562, elapsed: 0.0002779960632324219
ell 561, elapsed: 0.0002930164337158203
ell 560, elapsed: 0.00028705596923828125
ell 559, elapsed: 0.00030112266540527344
ell 558, elapsed: 0.0002849102020263672
ell 557, elapsed: 0.000308990478515625
ell 556, elapsed: 0.00029397010803222656
ell 555, elapsed: 0.0002830028533935547
ell 554, elapsed: 0.0002949237823486328
ell 553, elapsed: 0.00028395652770996094
ell 552, elapsed: 0.0002808570861816406
ell 551, elapsed: 0.0002911090850830078
ell 550, elapsed: 0.0002830028533935547
ell 549, elapsed: 0.0002880096435546875
ell 548, elapsed: 0.00028204917907714844
ell 547, elapsed: 0.00028705596923828125
ell 546, elapsed: 0.0002911090850830078
ell 545, elapsed: 0.000286102294921875
ell 544, elapsed: 0.00031495094299316406
ell 543, elapsed: 0.00023293495178222656
ell 542, elapsed: 0.00023102760314941406
ell 541, elapsed: 0.0002410411834716797
ell 540, elapsed: 0.00023293495178222656
ell 539, elapsed: 0.00023794174194335938
ell 538, elapsed: 0.0002281665802001953
ell 537, elapsed: 0.00023603439331054688
ell 536, elapsed: 0.0002288818359375
ell 535, elapsed: 0.0002319812774658203
ell 534, elapsed: 0.0002319812774658203
ell 533, elapsed: 0.00022912025451660156
ell 532, elapsed: 0.00023293495178222656
ell 531, elapsed: 0.0002460479736328125
ell 530, elapsed: 0.00027680397033691406
ell 529, elapsed: 0.0003039836883544922
ell 528, elapsed: 0.0002799034118652344
ell 527, elapsed: 0.0002799034118652344
ell 526, elapsed: 0.0002779960632324219
ell 525, elapsed: 0.00028395652770996094
ell 524, elapsed: 0.00029397010803222656
ell 523, elapsed: 0.0002818107604980469
ell 522, elapsed: 0.00028896331787109375
ell 521, elapsed: 0.00026488304138183594
ell 520, elapsed: 0.0002357959747314453
ell 519, elapsed: 0.00023794174194335938
ell 518, elapsed: 0.00023293495178222656
ell 517, elapsed: 0.0002498626708984375
ell 516, elapsed: 0.00023508071899414062
ell 515, elapsed: 0.00023508071899414062
ell 514, elapsed: 0.0003018379211425781
ell 513, elapsed: 0.00023317337036132812
ell 512, elapsed: 0.0002429485321044922
ell 511, elapsed: 0.00023698806762695312
ell 510, elapsed: 0.0002357959747314453
ell 509, elapsed: 0.00023984909057617188
ell 508, elapsed: 0.00023508071899414062
ell 507, elapsed: 0.0002410411834716797
ell 506, elapsed: 0.00029397010803222656
ell 505, elapsed: 0.0002930164337158203
ell 504, elapsed: 0.00028705596923828125
ell 503, elapsed: 0.000286102294921875
ell 502, elapsed: 0.00031113624572753906
ell 501, elapsed: 0.0002918243408203125
ell 500, elapsed: 0.00030684471130371094
ell 499, elapsed: 0.0003039836883544922
ell 498, elapsed: 0.00029206275939941406
ell 497, elapsed: 0.00030803680419921875
ell 496, elapsed: 0.00029397010803222656
ell 495, elapsed: 0.000308990478515625
ell 494, elapsed: 0.0002989768981933594
ell 493, elapsed: 0.00028705596923828125
ell 492, elapsed: 0.0002930164337158203
ell 491, elapsed: 0.00028586387634277344
ell 490, elapsed: 0.00030493736267089844
ell 489, elapsed: 0.00028395652770996094
ell 488, elapsed: 0.0002868175506591797
ell 487, elapsed: 0.0003750324249267578
ell 486, elapsed: 0.0002961158752441406
ell 485, elapsed: 0.0002951622009277344
ell 484, elapsed: 0.0002930164337158203
ell 483, elapsed: 0.0002980232238769531
ell 482, elapsed: 0.00029277801513671875
ell 481, elapsed: 0.0002961158752441406
ell 480, elapsed: 0.00028586387634277344
ell 479, elapsed: 0.00027298927307128906
ell 478, elapsed: 0.0002739429473876953
ell 477, elapsed: 0.0002789497375488281
ell 476, elapsed: 0.0002739429473876953
ell 475, elapsed: 0.00029206275939941406
ell 474, elapsed: 0.00037789344787597656
ell 473, elapsed: 0.0002949237823486328
ell 472, elapsed: 0.0002841949462890625
ell 471, elapsed: 0.0002930164337158203
ell 470, elapsed: 0.0002970695495605469
ell 469, elapsed: 0.0002880096435546875
ell 468, elapsed: 0.0002980232238769531
ell 467, elapsed: 0.00029277801513671875
ell 466, elapsed: 0.0002892017364501953
ell 465, elapsed: 0.0002942085266113281
ell 464, elapsed: 0.008658885955810547
ell 463, elapsed: 0.00042891502380371094
ell 462, elapsed: 0.00030612945556640625
ell 461, elapsed: 0.00030517578125
ell 460, elapsed: 0.0003039836883544922
ell 459, elapsed: 0.00029778480529785156
ell 458, elapsed: 0.0002930164337158203
ell 457, elapsed: 0.0002918243408203125
ell 456, elapsed: 0.00029206275939941406
ell 455, elapsed: 0.0003008842468261719
ell 454, elapsed: 0.0002899169921875
ell 453, elapsed: 0.0003070831298828125
ell 452, elapsed: 0.00029277801513671875
ell 451, elapsed: 0.0003349781036376953
ell 450, elapsed: 0.0002949237823486328
ell 449, elapsed: 0.00028395652770996094
ell 448, elapsed: 0.00029397010803222656
ell 447, elapsed: 0.00029397010803222656
ell 446, elapsed: 0.0002989768981933594
ell 445, elapsed: 0.0002930164337158203
ell 444, elapsed: 0.0002918243408203125
ell 443, elapsed: 0.0002989768981933594
ell 442, elapsed: 0.00029587745666503906
ell 441, elapsed: 0.0002989768981933594
ell 440, elapsed: 0.00031304359436035156
ell 439, elapsed: 0.0002880096435546875
ell 438, elapsed: 0.00033402442932128906
ell 437, elapsed: 0.0002892017364501953
ell 436, elapsed: 0.00029397010803222656
ell 435, elapsed: 0.0002880096435546875
ell 434, elapsed: 0.0002911090850830078
ell 433, elapsed: 0.0003001689910888672
ell 432, elapsed: 0.00028705596923828125
ell 431, elapsed: 0.0002989768981933594
ell 430, elapsed: 0.00029015541076660156
ell 429, elapsed: 0.0002868175506591797
ell 428, elapsed: 0.0002970695495605469
ell 427, elapsed: 0.00028896331787109375
ell 426, elapsed: 0.0003120899200439453
ell 425, elapsed: 0.0002970695495605469
ell 424, elapsed: 0.00029087066650390625
ell 423, elapsed: 0.00029587745666503906
ell 422, elapsed: 0.00028896331787109375
ell 421, elapsed: 0.00029397010803222656
ell 420, elapsed: 0.0002880096435546875
ell 419, elapsed: 0.0002930164337158203
ell 418, elapsed: 0.0002899169921875
ell 417, elapsed: 0.0002880096435546875
ell 416, elapsed: 0.0002980232238769531
ell 415, elapsed: 0.00029087066650390625
ell 414, elapsed: 0.00029206275939941406
ell 413, elapsed: 0.00031495094299316406
ell 412, elapsed: 0.00029015541076660156
ell 411, elapsed: 0.0002980232238769531
ell 410, elapsed: 0.0002911090850830078
ell 409, elapsed: 0.0002980232238769531
ell 408, elapsed: 0.00028204917907714844
ell 407, elapsed: 0.0002770423889160156
ell 406, elapsed: 0.00027680397033691406
ell 405, elapsed: 0.0002911090850830078
ell 404, elapsed: 0.0002918243408203125
ell 403, elapsed: 0.00029206275939941406
ell 402, elapsed: 0.00028705596923828125
ell 401, elapsed: 0.0002911090850830078
ell 400, elapsed: 0.00037097930908203125
ell 399, elapsed: 0.0002968311309814453
ell 398, elapsed: 0.0002970695495605469
ell 397, elapsed: 0.0002880096435546875
ell 396, elapsed: 0.0002961158752441406
ell 395, elapsed: 0.0002849102020263672
ell 394, elapsed: 0.0002892017364501953
ell 393, elapsed: 0.0002949237823486328
ell 392, elapsed: 0.0002849102020263672
ell 391, elapsed: 0.00029206275939941406
ell 390, elapsed: 0.00028395652770996094
ell 389, elapsed: 0.00028777122497558594
ell 388, elapsed: 0.0002789497375488281
ell 387, elapsed: 0.00030612945556640625
ell 386, elapsed: 0.00028204917907714844
ell 385, elapsed: 0.0002810955047607422
ell 384, elapsed: 0.0002930164337158203
ell 383, elapsed: 0.0002810955047607422
ell 382, elapsed: 0.000286102294921875
ell 381, elapsed: 0.0002830028533935547
ell 380, elapsed: 0.0002808570861816406
ell 379, elapsed: 0.000286102294921875
ell 378, elapsed: 0.00028014183044433594
ell 377, elapsed: 0.00029206275939941406
ell 376, elapsed: 0.000286102294921875
ell 375, elapsed: 0.0002799034118652344
ell 374, elapsed: 0.00031685829162597656
ell 373, elapsed: 0.0002961158752441406
ell 372, elapsed: 0.00029015541076660156
ell 371, elapsed: 0.0002810955047607422
ell 370, elapsed: 0.0002849102020263672
ell 369, elapsed: 0.00028586387634277344
ell 368, elapsed: 0.0002830028533935547
ell 367, elapsed: 0.0002892017364501953
ell 366, elapsed: 0.0002830028533935547
ell 365, elapsed: 0.00028014183044433594
ell 364, elapsed: 0.0002911090850830078
ell 363, elapsed: 0.0002810955047607422
ell 362, elapsed: 0.00028896331787109375
ell 361, elapsed: 0.00037097930908203125
ell 360, elapsed: 0.00028204917907714844
ell 359, elapsed: 0.0003039836883544922
ell 358, elapsed: 0.0002951622009277344
ell 357, elapsed: 0.00029206275939941406
ell 356, elapsed: 0.00029397010803222656
ell 355, elapsed: 0.000286102294921875
ell 354, elapsed: 0.0002880096435546875
ell 353, elapsed: 0.00029397010803222656
ell 352, elapsed: 0.00028705596923828125
ell 351, elapsed: 0.0002949237823486328
ell 350, elapsed: 0.00028896331787109375
ell 349, elapsed: 0.00028705596923828125
ell 348, elapsed: 0.00034499168395996094
ell 347, elapsed: 0.0002830028533935547
ell 346, elapsed: 0.0002799034118652344
ell 345, elapsed: 0.0002739429473876953
ell 344, elapsed: 0.00028204917907714844
ell 343, elapsed: 0.00028896331787109375
ell 342, elapsed: 0.0002799034118652344
ell 341, elapsed: 0.0002970695495605469
ell 340, elapsed: 0.0002899169921875
ell 339, elapsed: 0.0002658367156982422
ell 338, elapsed: 0.00023794174194335938
ell 337, elapsed: 0.00024390220642089844
ell 336, elapsed: 0.0002372264862060547
ell 335, elapsed: 0.0004038810729980469
ell 334, elapsed: 0.000247955322265625
ell 333, elapsed: 0.000244140625
ell 332, elapsed: 0.00023889541625976562
ell 331, elapsed: 0.000244140625
ell 330, elapsed: 0.0002880096435546875
ell 329, elapsed: 0.00026297569274902344
ell 328, elapsed: 0.00023603439331054688
ell 327, elapsed: 0.00023889541625976562
ell 326, elapsed: 0.0002391338348388672
ell 325, elapsed: 0.00023293495178222656
ell 324, elapsed: 0.00024199485778808594
ell 323, elapsed: 0.0002338886260986328
ell 322, elapsed: 0.00023794174194335938
ell 321, elapsed: 0.000247955322265625
ell 320, elapsed: 0.00026297569274902344
ell 319, elapsed: 0.00024008750915527344
ell 318, elapsed: 0.0002789497375488281
ell 317, elapsed: 0.0002779960632324219
ell 316, elapsed: 0.0002949237823486328
ell 315, elapsed: 0.0002880096435546875
ell 314, elapsed: 0.0002949237823486328
ell 313, elapsed: 0.0002930164337158203
ell 312, elapsed: 0.0002989768981933594
ell 311, elapsed: 0.0003070831298828125
ell 310, elapsed: 0.0002980232238769531
ell 309, elapsed: 0.00030493736267089844
ell 308, elapsed: 0.00029587745666503906
ell 307, elapsed: 0.00035500526428222656
ell 306, elapsed: 0.0002980232238769531
ell 305, elapsed: 0.0002818107604980469
ell 304, elapsed: 0.0002529621124267578
ell 303, elapsed: 0.00024819374084472656
ell 302, elapsed: 0.00024509429931640625
ell 301, elapsed: 0.0002582073211669922
ell 300, elapsed: 0.0002930164337158203
ell 299, elapsed: 0.00026988983154296875
ell 298, elapsed: 0.00024199485778808594
ell 297, elapsed: 0.00024509429931640625
ell 296, elapsed: 0.0002391338348388672
ell 295, elapsed: 0.0002911090850830078
ell 294, elapsed: 0.0002980232238769531
ell 293, elapsed: 0.00028705596923828125
ell 292, elapsed: 0.0002541542053222656
ell 291, elapsed: 0.000244140625
ell 290, elapsed: 0.00024199485778808594
ell 289, elapsed: 0.00024700164794921875
ell 288, elapsed: 0.0002410411834716797
ell 287, elapsed: 0.00024509429931640625
ell 286, elapsed: 0.00023508071899414062
ell 285, elapsed: 0.00024008750915527344
ell 284, elapsed: 0.0002918243408203125
ell 283, elapsed: 0.0002961158752441406
ell 282, elapsed: 0.0003018379211425781
ell 281, elapsed: 0.0002930164337158203
ell 280, elapsed: 0.0002899169921875
ell 279, elapsed: 0.0003371238708496094
ell 278, elapsed: 0.0002970695495605469
ell 277, elapsed: 0.0003001689910888672
ell 276, elapsed: 0.00029397010803222656
ell 275, elapsed: 0.0002961158752441406
ell 274, elapsed: 0.00028896331787109375
ell 273, elapsed: 0.000286102294921875
ell 272, elapsed: 0.0002989768981933594
ell 271, elapsed: 0.0002999305725097656
ell 270, elapsed: 0.0002961158752441406
ell 269, elapsed: 0.00028395652770996094
ell 268, elapsed: 0.0002942085266113281
ell 267, elapsed: 0.0002918243408203125
ell 266, elapsed: 0.003683805465698242
ell 265, elapsed: 0.0002810955047607422
ell 264, elapsed: 0.00028395652770996094
ell 263, elapsed: 0.00026702880859375
ell 262, elapsed: 0.0002689361572265625
ell 261, elapsed: 0.0002639293670654297
ell 260, elapsed: 0.0002830028533935547
ell 259, elapsed: 0.00026297569274902344
ell 258, elapsed: 0.00026488304138183594
ell 257, elapsed: 0.0002689361572265625
ell 256, elapsed: 0.0002808570861816406
ell 255, elapsed: 0.0002880096435546875
ell 254, elapsed: 0.0002999305725097656
ell 253, elapsed: 0.0002892017364501953
ell 252, elapsed: 0.0002899169921875
ell 251, elapsed: 0.0002830028533935547
ell 250, elapsed: 0.00030803680419921875
ell 249, elapsed: 0.0002961158752441406
ell 248, elapsed: 0.0002849102020263672
ell 247, elapsed: 0.00029397010803222656
ell 246, elapsed: 0.0002892017364501953
ell 245, elapsed: 0.00028395652770996094
ell 244, elapsed: 0.00029087066650390625
ell 243, elapsed: 0.0003120899200439453
ell 242, elapsed: 0.00029087066650390625
ell 241, elapsed: 0.00028395652770996094
ell 240, elapsed: 0.00030994415283203125
ell 239, elapsed: 0.0002830028533935547
ell 238, elapsed: 0.00034880638122558594
ell 237, elapsed: 0.00030612945556640625
ell 236, elapsed: 0.00029587745666503906
ell 235, elapsed: 0.0003020763397216797
ell 234, elapsed: 0.0002989768981933594
ell 233, elapsed: 0.0002949237823486328
ell 232, elapsed: 0.0003020763397216797
ell 231, elapsed: 0.0003070831298828125
ell 230, elapsed: 0.00030303001403808594
ell 229, elapsed: 0.00030303001403808594
ell 228, elapsed: 0.00029397010803222656
ell 227, elapsed: 0.0002911090850830078
ell 226, elapsed: 0.00029087066650390625
ell 225, elapsed: 0.00032520294189453125
ell 224, elapsed: 0.0002899169921875
ell 223, elapsed: 0.00029015541076660156
ell 222, elapsed: 0.00028586387634277344
ell 221, elapsed: 0.0002970695495605469
ell 220, elapsed: 0.0002868175506591797
ell 219, elapsed: 0.00028395652770996094
ell 218, elapsed: 0.0002911090850830078
ell 217, elapsed: 0.0002980232238769531
ell 216, elapsed: 0.0003719329833984375
ell 215, elapsed: 0.00036907196044921875
ell 214, elapsed: 0.0003600120544433594
ell 213, elapsed: 0.0005109310150146484
ell 212, elapsed: 0.0003609657287597656
ell 211, elapsed: 0.00037479400634765625
ell 210, elapsed: 0.0003612041473388672
ell 209, elapsed: 0.0003581047058105469
ell 208, elapsed: 0.00036787986755371094
ell 207, elapsed: 0.00037217140197753906
ell 206, elapsed: 0.00037097930908203125
ell 205, elapsed: 0.00037479400634765625
ell 204, elapsed: 0.0003628730773925781
ell 203, elapsed: 0.0004029273986816406
ell 202, elapsed: 0.000370025634765625
ell 201, elapsed: 0.0003788471221923828
ell 200, elapsed: 0.0003669261932373047
ell 199, elapsed: 0.0003600120544433594
ell 198, elapsed: 0.0003669261932373047
ell 197, elapsed: 0.0003662109375
ell 196, elapsed: 0.00036597251892089844
ell 195, elapsed: 0.00035881996154785156
ell 194, elapsed: 0.0003199577331542969
ell 193, elapsed: 0.00038504600524902344
ell 192, elapsed: 0.0002589225769042969
ell 191, elapsed: 0.0002529621124267578
ell 190, elapsed: 0.00024700164794921875
ell 189, elapsed: 0.00027108192443847656
ell 188, elapsed: 0.0002510547637939453
ell 187, elapsed: 0.00024318695068359375
ell 186, elapsed: 0.000247955322265625
ell 185, elapsed: 0.00024509429931640625
ell 184, elapsed: 0.000247955322265625
ell 183, elapsed: 0.00023794174194335938
ell 182, elapsed: 0.00024008750915527344
ell 181, elapsed: 0.000244140625
ell 180, elapsed: 0.0002410411834716797
ell 179, elapsed: 0.000244140625
ell 178, elapsed: 0.00024390220642089844
ell 177, elapsed: 0.00024390220642089844
ell 176, elapsed: 0.00028705596923828125
ell 175, elapsed: 0.00026416778564453125
ell 174, elapsed: 0.0002701282501220703
ell 173, elapsed: 0.00026607513427734375
ell 172, elapsed: 0.0002620220184326172
ell 171, elapsed: 0.00026702880859375
ell 170, elapsed: 0.00030493736267089844
ell 169, elapsed: 0.0002789497375488281
ell 168, elapsed: 0.00026297569274902344
ell 167, elapsed: 0.0002608299255371094
ell 166, elapsed: 0.00026607513427734375
ell 165, elapsed: 0.0002560615539550781
ell 164, elapsed: 0.0002617835998535156
ell 163, elapsed: 0.00032401084899902344
ell 162, elapsed: 0.0002560615539550781
ell 161, elapsed: 0.00026488304138183594
ell 160, elapsed: 0.00028514862060546875
ell 159, elapsed: 0.00029206275939941406
ell 158, elapsed: 0.0002799034118652344
ell 157, elapsed: 0.00029206275939941406
ell 156, elapsed: 0.0002999305725097656
ell 155, elapsed: 0.0002810955047607422
ell 154, elapsed: 0.00029206275939941406
ell 153, elapsed: 0.00028705596923828125
ell 152, elapsed: 0.0002930164337158203
ell 151, elapsed: 0.00028514862060546875
ell 150, elapsed: 0.0002949237823486328
ell 149, elapsed: 0.0002970695495605469
ell 148, elapsed: 0.00028896331787109375
ell 147, elapsed: 0.0003020763397216797
ell 146, elapsed: 0.00029206275939941406
ell 145, elapsed: 0.0002880096435546875
ell 144, elapsed: 0.00029587745666503906
ell 143, elapsed: 0.0002989768981933594
ell 142, elapsed: 0.0003001689910888672
ell 141, elapsed: 0.0002880096435546875
ell 140, elapsed: 0.0002880096435546875
ell 139, elapsed: 0.0003008842468261719
ell 138, elapsed: 0.00031685829162597656
ell 137, elapsed: 0.0002968311309814453
ell 136, elapsed: 0.0002949237823486328
ell 135, elapsed: 0.0002951622009277344
ell 134, elapsed: 0.0003070831298828125
ell 133, elapsed: 0.0002899169921875
ell 132, elapsed: 0.00030517578125
ell 131, elapsed: 0.0002942085266113281
ell 130, elapsed: 0.0002942085266113281
ell 129, elapsed: 0.000308990478515625
ell 128, elapsed: 0.0002970695495605469
ell 127, elapsed: 0.0003018379211425781
ell 126, elapsed: 0.00030493736267089844
ell 125, elapsed: 0.00030493736267089844
ell 124, elapsed: 0.00030612945556640625
ell 123, elapsed: 0.0002989768981933594
ell 122, elapsed: 0.00030803680419921875
ell 121, elapsed: 0.0002970695495605469
ell 120, elapsed: 0.0002961158752441406
ell 119, elapsed: 0.0002930164337158203
ell 118, elapsed: 0.00029397010803222656
ell 117, elapsed: 0.0002980232238769531
ell 116, elapsed: 0.0002999305725097656
ell 115, elapsed: 0.0002980232238769531
ell 114, elapsed: 0.0002999305725097656
ell 113, elapsed: 0.0003211498260498047
ell 112, elapsed: 0.0002961158752441406
ell 111, elapsed: 0.0002989768981933594
ell 110, elapsed: 0.0002970695495605469
ell 109, elapsed: 0.0002961158752441406
ell 108, elapsed: 0.0002989768981933594
ell 107, elapsed: 0.0002999305725097656
ell 106, elapsed: 0.0002942085266113281
ell 105, elapsed: 0.00030112266540527344
ell 104, elapsed: 0.00030112266540527344
ell 103, elapsed: 0.0002989768981933594
ell 102, elapsed: 0.0003139972686767578
ell 101, elapsed: 0.00032019615173339844
ell 100, elapsed: 0.0003101825714111328
ell 99, elapsed: 0.0003020763397216797
ell 98, elapsed: 0.0002930164337158203
ell 97, elapsed: 0.0002999305725097656
ell 96, elapsed: 0.0002961158752441406
ell 95, elapsed: 0.0003101825714111328
ell 94, elapsed: 0.00029397010803222656
ell 93, elapsed: 0.0003058910369873047
ell 92, elapsed: 0.0002930164337158203
ell 91, elapsed: 0.0002918243408203125
ell 90, elapsed: 0.0002980232238769531
ell 89, elapsed: 0.0002930164337158203
ell 88, elapsed: 0.0003490447998046875
ell 87, elapsed: 0.0002980232238769531
ell 86, elapsed: 0.00029206275939941406
ell 85, elapsed: 0.0002970695495605469
ell 84, elapsed: 0.0002899169921875
ell 83, elapsed: 0.00030517578125
ell 82, elapsed: 0.0002949237823486328
ell 81, elapsed: 0.0002970695495605469
ell 80, elapsed: 0.0003039836883544922
ell 79, elapsed: 0.0003020763397216797
ell 78, elapsed: 0.00033092498779296875
ell 77, elapsed: 0.0002970695495605469
ell 76, elapsed: 0.0003800392150878906
ell 75, elapsed: 0.0003070831298828125
ell 74, elapsed: 0.0002980232238769531
ell 73, elapsed: 0.00030612945556640625
ell 72, elapsed: 0.0002961158752441406
ell 71, elapsed: 0.00030422210693359375
ell 70, elapsed: 0.0003120899200439453
ell 69, elapsed: 0.00029277801513671875
ell 68, elapsed: 0.00030112266540527344
ell 67, elapsed: 0.0002989768981933594
ell 66, elapsed: 0.00031113624572753906
ell 65, elapsed: 0.00029587745666503906
ell 64, elapsed: 0.0003299713134765625
ell 63, elapsed: 0.0003027915954589844
ell 62, elapsed: 0.00030112266540527344
ell 61, elapsed: 0.0003039836883544922
ell 60, elapsed: 0.0002999305725097656
ell 59, elapsed: 0.0002989768981933594
ell 58, elapsed: 0.0003161430358886719
ell 57, elapsed: 0.00030684471130371094
ell 56, elapsed: 0.00030803680419921875
ell 55, elapsed: 0.0002989768981933594
ell 54, elapsed: 0.0002999305725097656
ell 53, elapsed: 0.00030493736267089844
ell 52, elapsed: 0.0003039836883544922
ell 51, elapsed: 0.0003559589385986328
ell 50, elapsed: 0.00030303001403808594
ell 49, elapsed: 0.0002989768981933594
ell 48, elapsed: 0.00031185150146484375
ell 47, elapsed: 0.0003008842468261719
ell 46, elapsed: 0.00030612945556640625
ell 45, elapsed: 0.0002968311309814453
ell 44, elapsed: 0.0002980232238769531
ell 43, elapsed: 0.00029778480529785156
ell 42, elapsed: 0.0002970695495605469
ell 41, elapsed: 0.0002989768981933594
ell 40, elapsed: 0.0002980232238769531
ell 39, elapsed: 0.0003249645233154297
ell 38, elapsed: 0.00030803680419921875
ell 37, elapsed: 0.0003039836883544922
ell 36, elapsed: 0.0003070831298828125
ell 35, elapsed: 0.0003058910369873047
ell 34, elapsed: 0.00030803680419921875
ell 33, elapsed: 0.0003020763397216797
ell 32, elapsed: 0.00030303001403808594
ell 31, elapsed: 0.00031185150146484375
ell 30, elapsed: 0.0002999305725097656
ell 29, elapsed: 0.00030803680419921875
ell 28, elapsed: 0.00030493736267089844
ell 27, elapsed: 0.00032591819763183594
ell 26, elapsed: 0.00030303001403808594
ell 25, elapsed: 0.0002980232238769531
ell 24, elapsed: 0.00029015541076660156
ell 23, elapsed: 0.00029397010803222656
ell 22, elapsed: 0.00028586387634277344
ell 21, elapsed: 0.0003018379211425781
ell 20, elapsed: 0.0002999305725097656
ell 19, elapsed: 0.0003058910369873047
ell 18, elapsed: 0.0002961158752441406
ell 17, elapsed: 0.0002880096435546875
ell 16, elapsed: 0.0002961158752441406
ell 15, elapsed: 0.0002930164337158203
ell 14, elapsed: 0.0003409385681152344
ell 13, elapsed: 0.0002949237823486328
ell 12, elapsed: 0.00028514862060546875
ell 11, elapsed: 0.0002989768981933594
ell 10, elapsed: 0.00029397010803222656
ell 9, elapsed: 0.00030612945556640625
ell 8, elapsed: 0.00029206275939941406
ell 7, elapsed: 0.00029397010803222656
ell 6, elapsed: 0.00030612945556640625
ell 5, elapsed: 0.00029921531677246094
ell 4, elapsed: 0.00030803680419921875
ell 3, elapsed: 0.0002720355987548828
ell 2, elapsed: 0.0003681182861328125
ell 1, elapsed: 0.00028705596923828125
ell 0, elapsed: 0.0002899169921875
  0.413989 seconds (46.03 k allocations: 3.091 MiB, 5.88% compilation time)
elapsed: 0.0004010200500488281
step:          0.050369 sec (0 allocations: 0 byte, 0.0% gc time)
swapping:      0.000413 sec (0 allocations: 0 byte, 0.0% gc time)
calc_Mellell!: 0.005585 sec (0 allocations: 0 byte, 0.0% gc time)
  t0 :  0.001199 sec (0 allocations: 0 byte, 0.0% gc time)
  tm2 : 0.06832 sec (0 allocations: 0 byte, 0.0% gc time)
  tm2s: 0.001401 sec (0 allocations: 0 byte, 0.0% gc time)
  tm4 : 0.166219 sec (0 allocations: 0 byte, 0.0% gc time)
  tp2 : 0.0 sec (0 allocations: 0 byte, 0.0% gc time)
  tp2s: 0.0 sec (0 allocations: 0 byte, 0.0% gc time)
  tp4 : 0.0 sec (0 allocations: 0 byte, 0.0% gc time)
calc_wtdll!:   0.263798 sec (9.9 k allocations: 1.047 MB, 0.0% gc time)
calc_wljj!:    0.019471 sec (689 allocations: 10.766 KB, 0.0% gc time)
mult_prefac!:  0.0 sec (0 allocations: 0 byte, 0.0% gc time)
convert:       0.0 sec (0 allocations: 0 byte, 0.0% gc time)
write:         0.027669 sec (0 allocations: 0 byte, 0.0% gc time)
test_rand_2f1: 0.0 sec (0 allocations: 0 byte, 0.0% gc time)
Closing outfile out/Ml21-cache.bin...   0.000014 seconds
  0.000299 seconds (36 allocations: 27.953 KiB)
make_phi():   0.000993 seconds (8.18 k allocations: 237.844 KiB)
  0.102520 seconds (141.90 k allocations: 3.483 MiB)
tskip:       0.000524 sec (0 allocations: 0 byte, 0.0% gc time)
tread:       0.018709 sec (17 allocations: 10.641 KB, 0.0% gc time)
tmultphi:    0.007633 sec (0 allocations: 0 byte, 0.0% gc time)
tbrfft:      0.031046 sec (0 allocations: 0 byte, 0.0% gc time)
tmultprefac: 0.014158 sec (0 allocations: 0 byte, 0.0% gc time)
toutfunc:    0.027657 sec (127.507 k allocations: 2.312 MB, 0.0% gc time)
Testing R=1.0 ... passed
Calculating fmax: 
  dlrec    = 4
  dlrecRg1 = -4
  q=1.1, R=0.9:	  0.253682 seconds (105.72 k allocations: 15.273 MiB, 7.28% gc time)

  0.253881 seconds (105.78 k allocations: 15.307 MiB, 7.27% gc time)
ℓ = 1202
Δℓ = 4
ΔℓRg1 = -4
N = 1600
q = 1.1
kmin = 1.0e-5
kmax = 100000.00000000004
χ0 = 0.023029999999999995
RR = RR.tsv
ℓmax = ℓmax.bin
f21 = f21.bin
kmin = 1.0e-5
kmax = 100000.0
dlrec    = 4
dlrecRg1 = -4
Output size: 5741568 bytes = 0.005347251892089844 GiB
Output size: 51264 bytes = 4.774332046508789e-5 GiB
Reading 'out/F21EllCache'...   0.001247 seconds (197 allocations: 84.203 KiB)
ellmax: 1202
lmaxcache: 1202
fell[:,1,1] = ComplexF64[1.3482014726274674e-57 - 3.302141236118086e-73im, 1.357860004724329e-57 - 3.3257978169518355e-73im]
ell 1202, elapsed: 1.7881393432617188e-5
ell 1201, elapsed: 0.00027489662170410156
ell 1200, elapsed: 0.00025916099548339844
ell 1199, elapsed: 0.0002567768096923828
ell 1198, elapsed: 0.00026607513427734375
ell 1002, elapsed: 0.008393049240112305
ell 1001, elapsed: 0.00026416778564453125
ell 1000, elapsed: 0.0002551078796386719
ell 999, elapsed: 0.0002639293670654297
ell 998, elapsed: 0.0002560615539550781
ell 902, elapsed: 0.0041887760162353516
ell 901, elapsed: 0.00028896331787109375
ell 900, elapsed: 0.0002570152282714844
ell 899, elapsed: 0.0002560615539550781
ell 898, elapsed: 0.0002570152282714844
ell 802, elapsed: 0.004137992858886719
ell 801, elapsed: 0.0002510547637939453
ell 800, elapsed: 0.0002448558807373047
ell 799, elapsed: 0.0002429485321044922
ell 798, elapsed: 0.000244140625
ell 702, elapsed: 0.0040950775146484375
ell 701, elapsed: 0.00025010108947753906
ell 700, elapsed: 0.0002460479736328125
ell 699, elapsed: 0.00024819374084472656
ell 698, elapsed: 0.00024700164794921875
ell 602, elapsed: 0.004028797149658203
ell 601, elapsed: 0.000247955322265625
ell 600, elapsed: 0.00024509429931640625
ell 599, elapsed: 0.0002608299255371094
ell 598, elapsed: 0.0002579689025878906
ell 502, elapsed: 0.004398822784423828
ell 501, elapsed: 0.00022602081298828125
ell 500, elapsed: 0.00021696090698242188
ell 499, elapsed: 0.00021886825561523438
ell 498, elapsed: 0.00021886825561523438
ell 402, elapsed: 0.00385284423828125
ell 401, elapsed: 0.00021696090698242188
ell 400, elapsed: 0.00021409988403320312
ell 399, elapsed: 0.00021505355834960938
ell 398, elapsed: 0.00021314620971679688
ell 302, elapsed: 0.0037238597869873047
ell 301, elapsed: 0.0002129077911376953
ell 300, elapsed: 0.000209808349609375
ell 299, elapsed: 0.00021219253540039062
ell 298, elapsed: 0.00021386146545410156
ell 202, elapsed: 0.003938913345336914
ell 201, elapsed: 0.000247955322265625
ell 200, elapsed: 0.0002448558807373047
ell 199, elapsed: 0.00024890899658203125
ell 198, elapsed: 0.004293918609619141
ell 152, elapsed: 0.0019550323486328125
ell 151, elapsed: 0.0002410411834716797
ell 150, elapsed: 0.011443138122558594
ell 149, elapsed: 0.010159969329833984
ell 148, elapsed: 0.0002961158752441406
ell 127, elapsed: 0.0011341571807861328
ell 126, elapsed: 0.00026416778564453125
ell 125, elapsed: 0.0002601146697998047
ell 124, elapsed: 0.00026607513427734375
ell 123, elapsed: 0.00026297569274902344
ell 114, elapsed: 0.0006349086761474609
ell 113, elapsed: 0.00025916099548339844
ell 112, elapsed: 0.0003190040588378906
ell 111, elapsed: 0.0002582073211669922
ell 110, elapsed: 0.00026106834411621094
ell 102, elapsed: 0.0005679130554199219
ell 101, elapsed: 0.00026297569274902344
ell 100, elapsed: 0.0002598762512207031
ell 99, elapsed: 0.00025391578674316406
ell 98, elapsed: 0.0002601146697998047
ell 97, elapsed: 0.0002999305725097656
ell 96, elapsed: 0.0002911090850830078
ell 95, elapsed: 0.0002961158752441406
ell 94, elapsed: 0.0002989768981933594
ell 93, elapsed: 0.0002949237823486328
ell 92, elapsed: 0.00033783912658691406
ell 91, elapsed: 0.00029015541076660156
ell 90, elapsed: 0.0003020763397216797
ell 89, elapsed: 0.0002899169921875
ell 88, elapsed: 0.0002999305725097656
ell 87, elapsed: 0.0002942085266113281
ell 86, elapsed: 0.00029206275939941406
ell 85, elapsed: 0.000286102294921875
ell 84, elapsed: 0.00029015541076660156
ell 83, elapsed: 0.000286102294921875
ell 82, elapsed: 0.00029397010803222656
ell 81, elapsed: 0.0002789497375488281
ell 80, elapsed: 0.0002930164337158203
ell 79, elapsed: 0.0003170967102050781
ell 78, elapsed: 0.000286102294921875
ell 77, elapsed: 0.0002930164337158203
ell 76, elapsed: 0.00028204917907714844
ell 75, elapsed: 0.00028395652770996094
ell 74, elapsed: 0.00029015541076660156
ell 73, elapsed: 0.00028395652770996094
ell 72, elapsed: 0.0003020763397216797
ell 71, elapsed: 0.00028204917907714844
ell 70, elapsed: 0.00028896331787109375
ell 69, elapsed: 0.0002989768981933594
ell 68, elapsed: 0.00028586387634277344
ell 67, elapsed: 0.00029206275939941406
ell 66, elapsed: 0.00034308433532714844
ell 65, elapsed: 0.0002880096435546875
ell 64, elapsed: 0.00029206275939941406
ell 63, elapsed: 0.0002880096435546875
ell 62, elapsed: 0.0002970695495605469
ell 61, elapsed: 0.00028514862060546875
ell 60, elapsed: 0.0002849102020263672
ell 59, elapsed: 0.0002968311309814453
ell 58, elapsed: 0.00028705596923828125
ell 57, elapsed: 0.0002911090850830078
ell 56, elapsed: 0.00028896331787109375
ell 55, elapsed: 0.0002999305725097656
ell 54, elapsed: 0.00032806396484375
ell 53, elapsed: 0.0002849102020263672
ell 52, elapsed: 0.00028705596923828125
ell 51, elapsed: 0.0002830028533935547
ell 50, elapsed: 0.0002880096435546875
ell 49, elapsed: 0.0002880096435546875
ell 48, elapsed: 0.00028395652770996094
ell 47, elapsed: 0.00029206275939941406
ell 46, elapsed: 0.0002849102020263672
ell 45, elapsed: 0.00029206275939941406
ell 44, elapsed: 0.00028896331787109375
ell 43, elapsed: 0.000286102294921875
ell 42, elapsed: 0.0002930164337158203
ell 41, elapsed: 0.00030994415283203125
ell 40, elapsed: 0.0002949237823486328
ell 39, elapsed: 0.00028514862060546875
ell 38, elapsed: 0.0002810955047607422
ell 37, elapsed: 0.00029587745666503906
ell 36, elapsed: 0.00028586387634277344
ell 35, elapsed: 0.00029397010803222656
ell 34, elapsed: 0.00028896331787109375
ell 33, elapsed: 0.000286102294921875
ell 32, elapsed: 0.0002880096435546875
ell 31, elapsed: 0.00028204917907714844
ell 30, elapsed: 0.0002880096435546875
ell 29, elapsed: 0.0002779960632324219
ell 28, elapsed: 0.0003230571746826172
ell 27, elapsed: 0.00029206275939941406
ell 26, elapsed: 0.00028204917907714844
ell 25, elapsed: 0.0003058910369873047
ell 24, elapsed: 0.0002949237823486328
ell 23, elapsed: 0.0002849102020263672
ell 22, elapsed: 0.0002930164337158203
ell 21, elapsed: 0.00029206275939941406
ell 20, elapsed: 0.0002930164337158203
ell 19, elapsed: 0.00028896331787109375
ell 18, elapsed: 0.00028705596923828125
ell 17, elapsed: 0.0003020763397216797
ell 16, elapsed: 0.0002849102020263672
ell 15, elapsed: 0.0003399848937988281
ell 14, elapsed: 0.0002880096435546875
ell 13, elapsed: 0.00028896331787109375
ell 12, elapsed: 0.0002989768981933594
ell 11, elapsed: 0.00030493736267089844
ell 10, elapsed: 0.00030303001403808594
ell 9, elapsed: 0.00029206275939941406
ell 8, elapsed: 0.0002980232238769531
ell 7, elapsed: 0.0002970695495605469
ell 6, elapsed: 0.0002989768981933594
ell 5, elapsed: 0.00029206275939941406
ell 4, elapsed: 0.00029277801513671875
ell 3, elapsed: 0.00029206275939941406
ell 2, elapsed: 0.0003330707550048828
ell 1, elapsed: 0.0002911090850830078
ell 0, elapsed: 0.0002970695495605469
  0.116319 seconds (11.51 k allocations: 719.594 KiB)
elapsed: 0.0003559589385986328
step:          0.046574 sec (0 allocations: 0 byte, 0.0% gc time)
swapping:      0.000288 sec (0 allocations: 0 byte, 0.0% gc time)
calc_Mellell!: 0.000756 sec (0 allocations: 0 byte, 0.0% gc time)
  t0 :  0.000195 sec (0 allocations: 0 byte, 0.0% gc time)
  tm2 : 0.01351 sec (0 allocations: 0 byte, 0.0% gc time)
  tm2s: 0.000212 sec (0 allocations: 0 byte, 0.0% gc time)
  tm4 : 0.02238 sec (0 allocations: 0 byte, 0.0% gc time)
  tp2 : 0.0 sec (0 allocations: 0 byte, 0.0% gc time)
  tp2s: 0.0 sec (0 allocations: 0 byte, 0.0% gc time)
  tp4 : 0.0 sec (0 allocations: 0 byte, 0.0% gc time)
calc_wtdll!:   0.036653 sec (1.344 k allocations: 147.0 KB, 0.0% gc time)
calc_wljj!:    0.001795 sec (6 allocations: 96 byte, 0.0% gc time)
mult_prefac!:  0.0 sec (0 allocations: 0 byte, 0.0% gc time)
convert:       0.0 sec (0 allocations: 0 byte, 0.0% gc time)
write:         0.002786 sec (0 allocations: 0 byte, 0.0% gc time)
test_rand_2f1: 0.0 sec (0 allocations: 0 byte, 0.0% gc time)
Closing outfile out/Ml21-cache.bin...   0.000010 seconds
  0.000328 seconds (36 allocations: 27.953 KiB)
make_phi():   0.001432 seconds (8.18 k allocations: 237.844 KiB)
  0.014805 seconds (11.65 k allocations: 308.688 KiB)
tskip:       1.5e-5 sec (0 allocations: 0 byte, 0.0% gc time)
tread:       0.002016 sec (17 allocations: 2.125 KB, 0.0% gc time)
tmultphi:    0.0008 sec (0 allocations: 0 byte, 0.0% gc time)
tbrfft:      0.00305 sec (0 allocations: 0 byte, 0.0% gc time)
tmultprefac: 0.001366 sec (0 allocations: 0 byte, 0.0% gc time)
toutfunc:    0.007308 sec (10.304 k allocations: 196.0 KB, 0.0% gc time)
Testing R=0.9 ... passed
Calculating fmax: 
  dlrec    = 4
  dlrecRg1 = -4
  q=1.1, R=0.8:	  0.201559 seconds (103.21 k allocations: 14.840 MiB)

  0.201698 seconds (103.26 k allocations: 14.874 MiB)
ℓ = 1202
Δℓ = 4
ΔℓRg1 = -4
N = 1600
q = 1.1
kmin = 1.0e-5
kmax = 100000.00000000004
χ0 = 0.023029999999999995
RR = RR.tsv
ℓmax = ℓmax.bin
f21 = f21.bin
kmin = 1.0e-5
kmax = 100000.0
dlrec    = 4
dlrecRg1 = -4
Output size: 5741568 bytes = 0.005347251892089844 GiB
Output size: 51264 bytes = 4.774332046508789e-5 GiB
Reading 'out/F21EllCache'...   0.001182 seconds (197 allocations: 84.203 KiB)
ellmax: 1202
lmaxcache: 1202
fell[:,1,1] = ComplexF64[7.519068145690986e-120 - 1.8416405474382574e-135im, 7.541664537386155e-120 - 1.847175067190611e-135im]
ell 1202, elapsed: 2.09808349609375e-5
ell 1201, elapsed: 0.0003020763397216797
ell 1200, elapsed: 0.0002770423889160156
ell 1199, elapsed: 0.0002799034118652344
ell 1198, elapsed: 0.0002770423889160156
ell 1002, elapsed: 0.00795602798461914
ell 1001, elapsed: 0.00026297569274902344
ell 1000, elapsed: 0.0002560615539550781
ell 999, elapsed: 0.000247955322265625
ell 998, elapsed: 0.0002779960632324219
ell 902, elapsed: 0.004085063934326172
ell 901, elapsed: 0.00026607513427734375
ell 900, elapsed: 0.00025391578674316406
ell 899, elapsed: 0.00025200843811035156
ell 898, elapsed: 0.00025391578674316406
ell 802, elapsed: 0.0041370391845703125
ell 801, elapsed: 0.00025010108947753906
ell 800, elapsed: 0.00024700164794921875
ell 799, elapsed: 0.00024509429931640625
ell 798, elapsed: 0.0002448558807373047
ell 702, elapsed: 0.004014015197753906
ell 701, elapsed: 0.0002551078796386719
ell 700, elapsed: 0.0002582073211669922
ell 699, elapsed: 0.00025200843811035156
ell 698, elapsed: 0.0002579689025878906
ell 602, elapsed: 0.004150867462158203
ell 601, elapsed: 0.0002970695495605469
ell 600, elapsed: 0.00026702880859375
ell 599, elapsed: 0.0002639293670654297
ell 598, elapsed: 0.0002570152282714844
ell 502, elapsed: 0.004003047943115234
ell 501, elapsed: 0.0002608299255371094
ell 500, elapsed: 0.0002570152282714844
ell 499, elapsed: 0.0002529621124267578
ell 498, elapsed: 0.0002579689025878906
ell 402, elapsed: 0.004065990447998047
ell 401, elapsed: 0.0002810955047607422
ell 400, elapsed: 0.00026416778564453125
ell 399, elapsed: 0.00026297569274902344
ell 398, elapsed: 0.0002639293670654297
ell 302, elapsed: 0.0042209625244140625
ell 301, elapsed: 0.0002601146697998047
ell 300, elapsed: 0.00028514862060546875
ell 299, elapsed: 0.0002570152282714844
ell 298, elapsed: 0.0002608299255371094
ell 202, elapsed: 0.0041351318359375
ell 201, elapsed: 0.0002579689025878906
ell 200, elapsed: 0.0002510547637939453
ell 199, elapsed: 0.00025081634521484375
ell 198, elapsed: 0.0002510547637939453
ell 152, elapsed: 0.0020799636840820312
ell 151, elapsed: 0.0002510547637939453
ell 150, elapsed: 0.00025010108947753906
ell 149, elapsed: 0.00024700164794921875
ell 148, elapsed: 0.00024819374084472656
ell 127, elapsed: 0.0010600090026855469
ell 126, elapsed: 0.0002598762512207031
ell 125, elapsed: 0.0002460479736328125
ell 124, elapsed: 0.000247955322265625
ell 123, elapsed: 0.00025391578674316406
ell 114, elapsed: 0.0005900859832763672
ell 113, elapsed: 0.00032901763916015625
ell 112, elapsed: 0.0002048015594482422
ell 111, elapsed: 0.00020813941955566406
ell 110, elapsed: 0.00020599365234375
ell 102, elapsed: 0.00048804283142089844
ell 101, elapsed: 0.0002040863037109375
ell 100, elapsed: 0.00020885467529296875
ell 99, elapsed: 0.00023818016052246094
ell 98, elapsed: 0.00020599365234375
ell 97, elapsed: 0.00023603439331054688
ell 96, elapsed: 0.00023508071899414062
ell 95, elapsed: 0.00023102760314941406
ell 94, elapsed: 0.00026106834411621094
ell 93, elapsed: 0.00023698806762695312
ell 92, elapsed: 0.00023412704467773438
ell 91, elapsed: 0.0002620220184326172
ell 90, elapsed: 0.0002319812774658203
ell 89, elapsed: 0.00023508071899414062
ell 88, elapsed: 0.00024700164794921875
ell 87, elapsed: 0.00023508071899414062
ell 86, elapsed: 0.00023102760314941406
ell 85, elapsed: 0.0002281665802001953
ell 84, elapsed: 0.00023293495178222656
ell 83, elapsed: 0.00022912025451660156
ell 82, elapsed: 0.00023508071899414062
ell 81, elapsed: 0.0002300739288330078
ell 80, elapsed: 0.00023698806762695312
ell 79, elapsed: 0.00023603439331054688
ell 78, elapsed: 0.0002300739288330078
ell 77, elapsed: 0.00023412704467773438
ell 76, elapsed: 0.00022912025451660156
ell 75, elapsed: 0.00026106834411621094
ell 74, elapsed: 0.00024890899658203125
ell 73, elapsed: 0.00022721290588378906
ell 72, elapsed: 0.00024008750915527344
ell 71, elapsed: 0.00023102760314941406
ell 70, elapsed: 0.0002319812774658203
ell 69, elapsed: 0.0002560615539550781
ell 68, elapsed: 0.0002949237823486328
ell 67, elapsed: 0.00023889541625976562
ell 66, elapsed: 0.00023317337036132812
ell 65, elapsed: 0.00022792816162109375
ell 64, elapsed: 0.0002410411834716797
ell 63, elapsed: 0.00024390220642089844
ell 62, elapsed: 0.0002567768096923828
ell 61, elapsed: 0.00023889541625976562
ell 60, elapsed: 0.0002319812774658203
ell 59, elapsed: 0.00028586387634277344
ell 58, elapsed: 0.0002880096435546875
[...]
ell 782, elapsed: 0.000904083251953125
ell 781, elapsed: 0.0005218982696533203
ell 780, elapsed: 0.0005269050598144531
ell 779, elapsed: 0.0005300045013427734
ell 778, elapsed: 0.0005309581756591797
ell 772, elapsed: 0.0009140968322753906
ell 771, elapsed: 0.0005218982696533203
ell 770, elapsed: 0.0005319118499755859
ell 769, elapsed: 0.0005269050598144531
ell 768, elapsed: 0.0005280971527099609
ell 762, elapsed: 0.0008859634399414062
ell 761, elapsed: 0.0005140304565429688
ell 760, elapsed: 0.0005729198455810547
ell 759, elapsed: 0.0005218982696533203
ell 758, elapsed: 0.0005240440368652344
ell 752, elapsed: 0.0008969306945800781
ell 751, elapsed: 0.0005168914794921875
ell 750, elapsed: 0.0005309581756591797
ell 749, elapsed: 0.0005319118499755859
ell 748, elapsed: 0.000518798828125
ell 742, elapsed: 0.0008938312530517578
ell 741, elapsed: 0.0005168914794921875
ell 740, elapsed: 0.0005090236663818359
ell 739, elapsed: 0.0005190372467041016
ell 738, elapsed: 0.0005238056182861328
ell 732, elapsed: 0.00090789794921875
ell 731, elapsed: 0.0005118846893310547
ell 730, elapsed: 0.0005152225494384766
ell 729, elapsed: 0.0005218982696533203
ell 728, elapsed: 0.0005240440368652344
ell 722, elapsed: 0.0008220672607421875
ell 721, elapsed: 0.00857996940612793
ell 720, elapsed: 0.00048804283142089844
ell 719, elapsed: 0.00047397613525390625
ell 718, elapsed: 0.0004780292510986328
ell 712, elapsed: 0.0008029937744140625
ell 711, elapsed: 0.0004661083221435547
ell 710, elapsed: 0.0014731884002685547
ell 709, elapsed: 0.0005528926849365234
ell 708, elapsed: 0.0017559528350830078
ell 702, elapsed: 0.0009720325469970703
ell 701, elapsed: 0.0011990070343017578
ell 700, elapsed: 0.0005731582641601562
ell 699, elapsed: 0.0013089179992675781
ell 698, elapsed: 0.0021140575408935547
ell 692, elapsed: 0.0009598731994628906
ell 691, elapsed: 0.0005509853363037109
ell 690, elapsed: 0.0011529922485351562
ell 689, elapsed: 0.0011250972747802734
ell 688, elapsed: 0.0009131431579589844
ell 682, elapsed: 0.0009589195251464844
ell 681, elapsed: 0.0005588531494140625
ell 680, elapsed: 0.0005841255187988281
ell 679, elapsed: 0.0005729198455810547
ell 678, elapsed: 0.0005609989166259766
ell 672, elapsed: 0.0009419918060302734
ell 671, elapsed: 0.0005750656127929688
ell 670, elapsed: 0.0005710124969482422
ell 669, elapsed: 0.0005600452423095703
ell 668, elapsed: 0.0006229877471923828
ell 662, elapsed: 0.0009729862213134766
ell 661, elapsed: 0.0005700588226318359
ell 660, elapsed: 0.0005741119384765625
ell 659, elapsed: 0.000576019287109375
ell 658, elapsed: 0.0005819797515869141
ell 652, elapsed: 0.0010249614715576172
ell 651, elapsed: 0.0005860328674316406
ell 650, elapsed: 0.0005869865417480469
ell 649, elapsed: 0.0005788803100585938
ell 648, elapsed: 0.0005950927734375
ell 642, elapsed: 0.001087188720703125
ell 641, elapsed: 0.0005710124969482422
ell 640, elapsed: 0.0005879402160644531
ell 639, elapsed: 0.0005841255187988281
ell 638, elapsed: 0.0005710124969482422
ell 632, elapsed: 0.0009760856628417969
ell 631, elapsed: 0.0006010532379150391
ell 630, elapsed: 0.0005710124969482422
ell 629, elapsed: 0.0009050369262695312
ell 628, elapsed: 0.0005700588226318359
ell 622, elapsed: 0.002107858657836914
ell 621, elapsed: 0.0005559921264648438
ell 620, elapsed: 0.0006730556488037109
ell 619, elapsed: 0.0008411407470703125
ell 618, elapsed: 0.0009469985961914062
ell 612, elapsed: 0.001241922378540039
ell 611, elapsed: 0.0005221366882324219
ell 610, elapsed: 0.0006639957427978516
ell 609, elapsed: 0.0007910728454589844
ell 608, elapsed: 0.0007829666137695312
ell 602, elapsed: 0.001352071762084961
ell 601, elapsed: 0.0006921291351318359
ell 600, elapsed: 0.0007109642028808594
ell 599, elapsed: 0.0006921291351318359
ell 598, elapsed: 0.0006890296936035156
ell 592, elapsed: 0.0010268688201904297
ell 591, elapsed: 0.0005528926849365234
ell 590, elapsed: 0.0004799365997314453
ell 589, elapsed: 0.00051116943359375
ell 588, elapsed: 0.00051116943359375
ell 582, elapsed: 0.0008118152618408203
ell 581, elapsed: 0.0005519390106201172
ell 580, elapsed: 0.0004680156707763672
ell 579, elapsed: 0.0004940032958984375
ell 578, elapsed: 0.0005431175231933594
ell 572, elapsed: 0.0009579658508300781
ell 571, elapsed: 0.0005609989166259766
ell 570, elapsed: 0.0005578994750976562
ell 569, elapsed: 0.0006051063537597656
ell 568, elapsed: 0.0005681514739990234
ell 562, elapsed: 0.0009741783142089844
ell 561, elapsed: 0.0004918575286865234
ell 560, elapsed: 0.0005068778991699219
ell 559, elapsed: 0.0005390644073486328
ell 558, elapsed: 0.0005748271942138672
ell 552, elapsed: 0.000843048095703125
ell 551, elapsed: 0.0005540847778320312
ell 550, elapsed: 0.0005481243133544922
ell 549, elapsed: 0.0005319118499755859
ell 548, elapsed: 0.0005469322204589844
ell 542, elapsed: 0.0009548664093017578
ell 541, elapsed: 0.0004467964172363281
ell 540, elapsed: 0.00047397613525390625
ell 539, elapsed: 0.0005369186401367188
ell 538, elapsed: 0.0005071163177490234
ell 532, elapsed: 0.0009529590606689453
ell 531, elapsed: 0.0005440711975097656
ell 530, elapsed: 0.0005748271942138672
ell 529, elapsed: 0.0005409717559814453
ell 528, elapsed: 0.0005481243133544922
ell 522, elapsed: 0.0008561611175537109
ell 521, elapsed: 0.0004839897155761719
ell 520, elapsed: 0.0004780292510986328
ell 519, elapsed: 0.0005419254302978516
ell 518, elapsed: 0.0004680156707763672
ell 512, elapsed: 0.0008161067962646484
ell 511, elapsed: 0.00047588348388671875
ell 510, elapsed: 0.0005249977111816406
ell 509, elapsed: 0.0004489421844482422
ell 508, elapsed: 0.00045013427734375
ell 502, elapsed: 0.0008339881896972656
ell 501, elapsed: 0.0005331039428710938
ell 500, elapsed: 0.0005362033843994141
ell 499, elapsed: 0.0005419254302978516
ell 498, elapsed: 0.0005471706390380859
ell 492, elapsed: 0.0009520053863525391
ell 491, elapsed: 0.0045850276947021484
ell 490, elapsed: 0.0005650520324707031
ell 489, elapsed: 0.0005469322204589844
ell 488, elapsed: 0.0005509853363037109
ell 482, elapsed: 0.0009770393371582031
ell 481, elapsed: 0.0005459785461425781
ell 480, elapsed: 0.0005528926849365234
ell 479, elapsed: 0.000598907470703125
ell 478, elapsed: 0.0005450248718261719
ell 472, elapsed: 0.0008280277252197266
ell 471, elapsed: 0.0005450248718261719
ell 470, elapsed: 0.0005450248718261719
ell 469, elapsed: 0.0005409717559814453
ell 468, elapsed: 0.0005829334259033203
ell 462, elapsed: 0.0009279251098632812
ell 461, elapsed: 0.0005509853363037109
ell 460, elapsed: 0.0005469322204589844
ell 459, elapsed: 0.0005559921264648438
ell 458, elapsed: 0.0005578994750976562
ell 452, elapsed: 0.0010540485382080078
ell 451, elapsed: 0.000537872314453125
ell 450, elapsed: 0.0005340576171875
ell 449, elapsed: 0.0005462169647216797
ell 448, elapsed: 0.0005571842193603516
ell 442, elapsed: 0.0009257793426513672
ell 441, elapsed: 0.0046808719635009766
ell 440, elapsed: 0.0006520748138427734
ell 439, elapsed: 0.0005698204040527344
ell 438, elapsed: 0.0005578994750976562
ell 432, elapsed: 0.00096893310546875
ell 431, elapsed: 0.0005431175231933594
ell 430, elapsed: 0.0005640983581542969
ell 429, elapsed: 0.0005359649658203125
ell 428, elapsed: 0.0005459785461425781
ell 422, elapsed: 0.0009419918060302734
ell 421, elapsed: 0.0005400180816650391
ell 420, elapsed: 0.0005578994750976562
ell 419, elapsed: 0.0006561279296875
ell 418, elapsed: 0.0005471706390380859
ell 412, elapsed: 0.0009250640869140625
ell 411, elapsed: 0.0005428791046142578
ell 410, elapsed: 0.0005390644073486328
ell 409, elapsed: 0.0005409717559814453
ell 408, elapsed: 0.0005829334259033203
ell 402, elapsed: 0.0009660720825195312
ell 401, elapsed: 0.0005488395690917969
ell 400, elapsed: 0.0005478858947753906
ell 399, elapsed: 0.0005459785461425781
ell 398, elapsed: 0.0005469322204589844
ell 392, elapsed: 0.0010418891906738281
ell 391, elapsed: 0.0005249977111816406
ell 390, elapsed: 0.0005438327789306641
ell 389, elapsed: 0.0005340576171875
ell 388, elapsed: 0.0005497932434082031
ell 382, elapsed: 0.0018270015716552734
ell 381, elapsed: 0.0005390644073486328
ell 380, elapsed: 0.0005438327789306641
ell 379, elapsed: 0.0005228519439697266
ell 378, elapsed: 0.0005319118499755859
ell 372, elapsed: 0.0009119510650634766
ell 371, elapsed: 0.0005578994750976562
ell 370, elapsed: 0.0005338191986083984
ell 369, elapsed: 0.0005309581756591797
ell 368, elapsed: 0.0005321502685546875
ell 362, elapsed: 0.000885009765625
ell 361, elapsed: 0.0005209445953369141
ell 360, elapsed: 0.0005340576171875
ell 359, elapsed: 0.0005619525909423828
ell 358, elapsed: 0.0005350112915039062
ell 352, elapsed: 0.0009140968322753906
ell 351, elapsed: 0.0005269050598144531
ell 350, elapsed: 0.0005419254302978516
ell 349, elapsed: 0.0005409717559814453
ell 348, elapsed: 0.0005619525909423828
ell 342, elapsed: 0.0009319782257080078
ell 341, elapsed: 0.0005300045013427734
ell 340, elapsed: 0.0005488395690917969
ell 339, elapsed: 0.0005471706390380859
ell 338, elapsed: 0.0005509853363037109
ell 332, elapsed: 0.00096893310546875
ell 331, elapsed: 0.0005409717559814453
ell 330, elapsed: 0.0005528926849365234
ell 329, elapsed: 0.0005412101745605469
ell 328, elapsed: 0.0005500316619873047
ell 322, elapsed: 0.0009369850158691406
ell 321, elapsed: 0.0005631446838378906
ell 320, elapsed: 0.0005388259887695312
ell 319, elapsed: 0.0005440711975097656
ell 318, elapsed: 0.0005409717559814453
ell 312, elapsed: 0.0009140968322753906
ell 311, elapsed: 0.0005540847778320312
ell 310, elapsed: 0.0006010532379150391
ell 309, elapsed: 0.0005519390106201172
ell 308, elapsed: 0.0005419254302978516
ell 302, elapsed: 0.0009610652923583984
ell 301, elapsed: 0.0005519390106201172
ell 300, elapsed: 0.00055694580078125
ell 299, elapsed: 0.0005609989166259766
ell 298, elapsed: 0.008337020874023438
ell 292, elapsed: 0.0009949207305908203
ell 291, elapsed: 0.0005648136138916016
ell 290, elapsed: 0.0005419254302978516
ell 289, elapsed: 0.0005590915679931641
ell 288, elapsed: 0.0005080699920654297
ell 282, elapsed: 0.0008699893951416016
ell 281, elapsed: 0.0004558563232421875
ell 280, elapsed: 0.00047087669372558594
ell 279, elapsed: 0.00045013427734375
ell 278, elapsed: 0.00045800209045410156
ell 272, elapsed: 0.0007190704345703125
ell 271, elapsed: 0.00044608116149902344
ell 270, elapsed: 0.0011019706726074219
ell 269, elapsed: 0.0009398460388183594
ell 268, elapsed: 0.0017991065979003906
ell 262, elapsed: 0.0008418560028076172
ell 261, elapsed: 0.0009698867797851562
ell 260, elapsed: 0.0009400844573974609
ell 259, elapsed: 0.0008921623229980469
ell 258, elapsed: 0.0010340213775634766
ell 252, elapsed: 0.0007669925689697266
ell 251, elapsed: 0.0004458427429199219
ell 250, elapsed: 0.0004909038543701172
ell 249, elapsed: 0.00047898292541503906
ell 248, elapsed: 0.0005180835723876953
ell 242, elapsed: 0.0008730888366699219
ell 241, elapsed: 0.0006020069122314453
ell 240, elapsed: 0.0007300376892089844
ell 239, elapsed: 0.0007009506225585938
ell 238, elapsed: 0.0007040500640869141
ell 232, elapsed: 0.0012829303741455078
ell 231, elapsed: 0.0007550716400146484
ell 230, elapsed: 0.0007610321044921875
ell 229, elapsed: 0.0007610321044921875
ell 228, elapsed: 0.0007748603820800781
ell 222, elapsed: 0.001294851303100586
ell 221, elapsed: 0.0005199909210205078
ell 220, elapsed: 0.0005381107330322266
ell 219, elapsed: 0.0005261898040771484
ell 218, elapsed: 0.0005500316619873047
ell 212, elapsed: 0.0009219646453857422
ell 211, elapsed: 0.0005490779876708984
ell 210, elapsed: 0.0005488395690917969
ell 209, elapsed: 0.0005550384521484375
ell 208, elapsed: 0.0005450248718261719
ell 202, elapsed: 0.0009508132934570312
ell 201, elapsed: 0.0005509853363037109
ell 200, elapsed: 0.0005881786346435547
ell 199, elapsed: 0.0005362033843994141
ell 198, elapsed: 0.0005538463592529297
ell 192, elapsed: 0.0009438991546630859
ell 191, elapsed: 0.0005691051483154297
ell 190, elapsed: 0.0005750656127929688
ell 189, elapsed: 0.0005481243133544922
ell 188, elapsed: 0.0005218982696533203
ell 182, elapsed: 0.0010228157043457031
ell 181, elapsed: 0.00048089027404785156
ell 180, elapsed: 0.00055694580078125
ell 179, elapsed: 0.0005359649658203125
ell 178, elapsed: 0.0005578994750976562
ell 172, elapsed: 0.000949859619140625
ell 171, elapsed: 0.0005991458892822266
ell 170, elapsed: 0.0005588531494140625
ell 169, elapsed: 0.0005528926849365234
ell 168, elapsed: 0.0005559921264648438
ell 162, elapsed: 0.0009469985961914062
ell 161, elapsed: 0.0005719661712646484
ell 160, elapsed: 0.0006289482116699219
ell 159, elapsed: 0.0005640983581542969
ell 158, elapsed: 0.0005769729614257812
ell 152, elapsed: 0.0009660720825195312
ell 151, elapsed: 0.0005590915679931641
ell 150, elapsed: 0.0005729198455810547
ell 149, elapsed: 0.0005850791931152344
ell 148, elapsed: 0.0005578994750976562
ell 142, elapsed: 0.0008699893951416016
ell 141, elapsed: 0.0005018711090087891
ell 140, elapsed: 0.0005400180816650391
ell 139, elapsed: 0.0005550384521484375
ell 138, elapsed: 0.0005879402160644531
ell 132, elapsed: 0.0009620189666748047
ell 131, elapsed: 0.00055694580078125
ell 130, elapsed: 0.0005698204040527344
ell 129, elapsed: 0.0005590915679931641
ell 128, elapsed: 0.0005199909210205078
ell 122, elapsed: 0.0008230209350585938
ell 121, elapsed: 0.0004830360412597656
ell 120, elapsed: 0.0004830360412597656
ell 119, elapsed: 0.0004780292510986328
ell 118, elapsed: 0.00048613548278808594
ell 112, elapsed: 0.0007951259613037109
ell 111, elapsed: 0.0004820823669433594
ell 110, elapsed: 0.0004911422729492188
ell 109, elapsed: 0.00045490264892578125
ell 108, elapsed: 0.00047779083251953125
ell 102, elapsed: 0.0007548332214355469
ell 101, elapsed: 0.0019888877868652344
ell 100, elapsed: 0.0020139217376708984
ell 99, elapsed: 0.0019860267639160156
ell 98, elapsed: 0.0019969940185546875
ell 92, elapsed: 0.0039141178131103516
ell 91, elapsed: 0.002285003662109375
ell 90, elapsed: 0.0023348331451416016
ell 89, elapsed: 0.002293109893798828
ell 88, elapsed: 0.0022759437561035156
ell 82, elapsed: 0.004395961761474609
ell 81, elapsed: 0.0023391246795654297
ell 80, elapsed: 0.0023310184478759766
ell 79, elapsed: 0.0023009777069091797
ell 78, elapsed: 0.002148866653442383
ell 72, elapsed: 0.0039310455322265625
ell 71, elapsed: 0.002089977264404297
ell 70, elapsed: 0.002122163772583008
ell 69, elapsed: 0.0022039413452148438
ell 68, elapsed: 0.0022199153900146484
ell 62, elapsed: 0.004293918609619141
ell 61, elapsed: 0.0025281906127929688
ell 60, elapsed: 0.0025641918182373047
ell 59, elapsed: 0.0026857852935791016
ell 58, elapsed: 0.0026531219482421875
ell 52, elapsed: 0.005231142044067383
ell 51, elapsed: 0.0026960372924804688
ell 50, elapsed: 0.0026891231536865234
ell 49, elapsed: 0.009779930114746094
ell 48, elapsed: 0.002198934555053711
ell 42, elapsed: 0.004832029342651367
ell 41, elapsed: 0.003145933151245117
ell 40, elapsed: 0.0023040771484375
ell 39, elapsed: 0.0022530555725097656
ell 38, elapsed: 0.0022840499877929688
ell 32, elapsed: 0.004291057586669922
ell 31, elapsed: 0.0022509098052978516
ell 30, elapsed: 0.00232696533203125
ell 29, elapsed: 0.002340078353881836
ell 28, elapsed: 0.002270936965942383
ell 22, elapsed: 0.004209041595458984
ell 21, elapsed: 0.0022001266479492188
ell 20, elapsed: 0.0022919178009033203
ell 19, elapsed: 0.0020749568939208984
ell 18, elapsed: 0.0021250247955322266
ell 12, elapsed: 0.0041561126708984375
ell 11, elapsed: 0.0022017955780029297
ell 10, elapsed: 0.002140045166015625
ell 9, elapsed: 0.0020089149475097656
ell 8, elapsed: 0.002156972885131836
  0.587582 seconds (68.56 k allocations: 12.176 MiB)
elapsed: 0.002768993377685547
step:          0.04268 sec (0 allocations: 0 byte, 0.0% gc time)
swapping:      0.000376 sec (0 allocations: 0 byte, 0.0% gc time)
calc_Mellell!: 0.019391 sec (0 allocations: 0 byte, 0.0% gc time)
  t0 :  0.006421 sec (0 allocations: 0 byte, 0.0% gc time)
  tm2 : 0.051018 sec (0 allocations: 0 byte, 0.0% gc time)
  tm2s: 0.00653 sec (0 allocations: 0 byte, 0.0% gc time)
  tm4 : 0.123545 sec (0 allocations: 0 byte, 0.0% gc time)
  tp2 : 0.0 sec (0 allocations: 0 byte, 0.0% gc time)
  tp2s: 0.0 sec (0 allocations: 0 byte, 0.0% gc time)
  tp4 : 0.0 sec (0 allocations: 0 byte, 0.0% gc time)
calc_wtdll!:   0.398378 sec (48.6 k allocations: 11.096 MB, 0.0% gc time)
calc_wljj!:    0.018125 sec (69 allocations: 1.078 KB, 0.0% gc time)
mult_prefac!:  0.0 sec (0 allocations: 0 byte, 0.0% gc time)
convert:       0.0 sec (0 allocations: 0 byte, 0.0% gc time)
write:         0.022253 sec (0 allocations: 0 byte, 0.0% gc time)
test_rand_2f1: 0.0 sec (0 allocations: 0 byte, 0.0% gc time)
Closing outfile out/MlCache/MlCache.bin...   0.000008 seconds
xi, l=0, nu=0:   0.371449 seconds (602.98 k allocations: 32.977 MiB, 99.49% compilation time)
xi, l=0, nu=-2:  0.001859 seconds (114 allocations: 148.969 KiB)
Created 'out/xi.tsv'.
  q=1.1, R=0.6:	  0.430658 seconds (264.58 k allocations: 38.109 MiB, 6.20% gc time)
  q=1.1, R=0.7:	  0.470484 seconds (276.43 k allocations: 40.113 MiB, 2.63% gc time)
  q=1.1, R=0.8:	  0.495963 seconds (271.87 k allocations: 39.334 MiB, 4.68% gc time)
  q=1.1, R=0.9:	  0.574547 seconds (266.68 k allocations: 38.464 MiB, 1.15% gc time)
  q=1.1, R=0.998:	 13.304121 seconds (114.96 k allocations: 7.588 MiB)
  q=1.1, R=1.0:	  0.003100 seconds (8.20 k allocations: 704.344 KiB)

ℓ = 1000
Δℓ = 4
ΔℓRg1 = -4
N = 4096
q = 1.1
kmin = 1.0e-5
kmax = 1000.0
χ0 = 0.001
RR = RR.tsv
ℓmax = ℓmax.bin
f21 = f21.bin
kmin = 1.0e-5
kmax = 1000.0
dlrec    = 4
dlrecRg1 = -4
Output size: 1573632 bytes = 0.0014655590057373047 GiB
Output size: 786816 bytes = 0.0007327795028686523 GiB
Reading 'out/F21EllCache'...   0.008472 seconds (198 allocations: 533.078 KiB)
ellmax: 1002
lmaxcache: 1000
fell[:,1,1] = ComplexF64[1.726292812820208e-224 - 4.2281979352226965e-240im, 1.7282693092099638e-224 - 4.233038955177178e-240im]
ell 1002, elapsed: 8.0108642578125e-5
ell 1001, elapsed: 0.0006120204925537109
ell 1000, elapsed: 0.0008130073547363281
ell 999, elapsed: 0.004033088684082031
ell 998, elapsed: 0.004001140594482422
ell 44, elapsed: 0.569382905960083
ell 43, elapsed: 0.0034990310668945312
ell 42, elapsed: 0.0031578540802001953
ell 41, elapsed: 0.0031099319458007812
ell 40, elapsed: 0.003097057342529297
  0.596572 seconds (4.59 k allocations: 322.266 KiB)
elapsed: 0.004127979278564453
step:          0.562838 sec (0 allocations: 0 byte, 0.0% gc time)
swapping:      0.000387 sec (0 allocations: 0 byte, 0.0% gc time)
calc_Mellell!: 0.000638 sec (0 allocations: 0 byte, 0.0% gc time)
  t0 :  0.000502 sec (0 allocations: 0 byte, 0.0% gc time)
  tm2 : 0.006746 sec (0 allocations: 0 byte, 0.0% gc time)
  tm2s: 0.00045 sec (0 allocations: 0 byte, 0.0% gc time)
  tm4 : 0.016307 sec (0 allocations: 0 byte, 0.0% gc time)
  tp2 : 0.0 sec (0 allocations: 0 byte, 0.0% gc time)
  tp2s: 0.0 sec (0 allocations: 0 byte, 0.0% gc time)
  tp4 : 0.0 sec (0 allocations: 0 byte, 0.0% gc time)
calc_wtdll!:   0.024132 sec (480 allocations: 52.5 KB, 0.0% gc time)
calc_wljj!:    0.000827 sec (1 allocations: 16 byte, 0.0% gc time)
mult_prefac!:  0.0 sec (0 allocations: 0 byte, 0.0% gc time)
convert:       0.0 sec (0 allocations: 0 byte, 0.0% gc time)
write:         0.000585 sec (0 allocations: 0 byte, 0.0% gc time)
test_rand_2f1: 0.0 sec (0 allocations: 0 byte, 0.0% gc time)
Closing outfile out/MlCache/MlCache.bin...   0.000009 seconds
  0.355567 seconds (38 allocations: 66.859 KiB)
make_phi():   0.006180 seconds (65 allocations: 275.984 KiB)
  0.036806 seconds (11.42 k allocations: 711.960 KiB, 90.60% compilation time)
tskip:       1.0e-6 sec (0 allocations: 0 byte, 0.0% gc time)
tread:       0.000575 sec (17 allocations: 1.266 KB, 0.0% gc time)
tmultphi:    0.00027 sec (0 allocations: 0 byte, 0.0% gc time)
tbrfft:      0.000994 sec (0 allocations: 0 byte, 0.0% gc time)
tmultprefac: 0.000589 sec (0 allocations: 0 byte, 0.0% gc time)
toutfunc:    9.9e-5 sec (0 allocations: 0 byte, 0.0% gc time)
Created 'out/wl42_jj00.tsv'.
Created 'out/wl42_jj02.tsv'.
    Testing TwoFAST tests passed 
