Julia Version 1.4.0-DEV.668
Commit 0570202e5f (2019-12-28 22:20 UTC)
Platform Info:
  OS: Linux (x86_64-pc-linux-gnu)
  CPU: Intel(R) Xeon(R) Silver 4114 CPU @ 2.20GHz
  WORD_SIZE: 64
  LIBM: libopenlibm
  LLVM: libLLVM-8.0.1 (ORCJIT, skylake)
Environment:
  JULIA_DEPOT_PATH = ::/usr/local/share/julia

 Resolving package versions...
 Installed URIParser ──────── v0.4.0
 Installed IntelOpenMP_jll ── v2018.0.3+0
 Installed FFTW_jll ───────── v3.3.9+3
 Installed AbstractFFTs ───── v0.5.0
 Installed SpecialFunctions ─ v0.8.0
 Installed BinaryProvider ─── v0.5.8
 Installed AbstractAlgebra ── v0.7.1
 Installed MKL_jll ────────── v2019.0.117+0
 Installed FFTW ───────────── v1.2.0
 Installed Reexport ───────── v0.2.0
 Installed IncGammaBeta ───── v0.1.0
 Installed BinDeps ────────── v1.0.0
 Installed Nemo ───────────── v0.15.1
 Installed TwoFAST ────────── v0.1.0
  Updating `~/.julia/environments/v1.4/Project.toml`
  [0dd23c3e] + TwoFAST v0.1.0
  Updating `~/.julia/environments/v1.4/Manifest.toml`
  [c3fe647b] + AbstractAlgebra v0.7.1
  [621f4979] + AbstractFFTs v0.5.0
  [9e28174c] + BinDeps v1.0.0
  [b99e7846] + BinaryProvider v0.5.8
  [7a1cc6ca] + FFTW v1.2.0
  [f5851436] + FFTW_jll v3.3.9+3
  [5087d2c0] + IncGammaBeta v0.1.0
  [1d5cc7b8] + IntelOpenMP_jll v2018.0.3+0
  [856f044c] + MKL_jll v2019.0.117+0
  [2edaba10] + Nemo v0.15.1
  [189a3867] + Reexport v0.2.0
  [276daf66] + SpecialFunctions v0.8.0
  [0dd23c3e] + TwoFAST v0.1.0
  [30578b45] + URIParser v0.4.0
  [2a0f44e3] + Base64 
  [ade2ca70] + Dates 
  [8bb1440f] + DelimitedFiles 
  [8ba89e20] + Distributed 
  [b77e0a4c] + InteractiveUtils 
  [76f85450] + LibGit2 
  [8f399da3] + Libdl 
  [37e2e46d] + LinearAlgebra 
  [56ddb016] + Logging 
  [d6f4376e] + Markdown 
  [a63ad114] + Mmap 
  [44cfe95a] + Pkg 
  [de0858da] + Printf 
  [3fa0cd96] + REPL 
  [9a3f8284] + Random 
  [ea8e919c] + SHA 
  [9e88b42a] + Serialization 
  [6462fe0b] + Sockets 
  [2f01184e] + SparseArrays 
  [8dfed614] + Test 
  [cf7118a7] + UUIDs 
  [4ec0a83e] + Unicode 
  Building SpecialFunctions → `~/.julia/packages/SpecialFunctions/ne2iw/deps/build.log`
  Updating `/tmp/jl_z38OPp/Project.toml`
 [no changes]
  Updating `/tmp/jl_z38OPp/Manifest.toml`
 [no changes]
  Building FFTW ────────────→ `~/.julia/packages/FFTW/qqcBj/deps/build.log`
  Updating `/tmp/jl_gNKF2F/Project.toml`
 [no changes]
  Updating `/tmp/jl_gNKF2F/Manifest.toml`
 [no changes]
  Building Nemo ────────────→ `~/.julia/packages/Nemo/qzx0m/deps/build.log`
  Updating `/tmp/jl_vgqbYX/Project.toml`
 [no changes]
  Updating `/tmp/jl_vgqbYX/Manifest.toml`
 [no changes]
   Testing TwoFAST
 Installed Dierckx ─ v0.4.1
  Updating `/tmp/jl_07f0BW/Project.toml`
  [39dd38d3] + Dierckx v0.4.1
  Updating `/tmp/jl_07f0BW/Manifest.toml`
  [39dd38d3] + Dierckx v0.4.1
  Building Dierckx → `~/.julia/packages/Dierckx/9SY4A/deps/build.log`
  Updating `/tmp/jl_WUyCRV/Project.toml`
 [no changes]
  Updating `/tmp/jl_WUyCRV/Manifest.toml`
 [no changes]
Running sandbox
Status `/tmp/jl_07f0BW/Project.toml`
  [39dd38d3] Dierckx v0.4.1
  [7a1cc6ca] FFTW v1.2.0
  [5087d2c0] IncGammaBeta v0.1.0
  [2edaba10] Nemo v0.15.1
  [276daf66] SpecialFunctions v0.8.0
  [0dd23c3e] TwoFAST v0.1.0
  [8bb1440f] DelimitedFiles 
  [37e2e46d] LinearAlgebra 
  [56ddb016] Logging 
  [8dfed614] Test 

Welcome to Nemo version 0.15.1

Nemo comes with absolutely no warranty whatsoever


Welcome to Nemo version 0.15.1

Nemo comes with absolutely no warranty whatsoever

Testing ξ(r), ℓ=0, ν=-1 ... passed
Testing ξ(r), ℓ=0, ν=0 ... passed
Testing ξ(r), ℓ=0, ν=1 ... passed
Testing ξ(r), ℓ=0, ν=2 ... passed
Testing ξ(r), ℓ=0, ν=3 ... passed
Testing ξ(r), ℓ=1, ν=0 ... passed
Testing ξ(r), ℓ=1, ν=1 ... passed
Testing ξ(r), ℓ=1, ν=2 ... passed
Testing ξ(r), ℓ=1, ν=3 ... passed
Testing ξ(r), ℓ=2, ν=-1 ... passed
Testing ξ(r), ℓ=2, ν=0 ... passed
Testing ξ(r), ℓ=2, ν=1 ... passed
Testing ξ(r), ℓ=2, ν=2 ... passed
Testing ξ(r), ℓ=2, ν=3 ... passed
Testing ξ(r), ℓ=3, ν=-1 ... passed
Testing ξ(r), ℓ=3, ν=0 ... passed
Testing ξ(r), ℓ=3, ν=1 ... passed
Testing ξ(r), ℓ=3, ν=2 ... passed
Testing ξ(r), ℓ=3, ν=3 ... passed
Testing ξ(r), ℓ=4, ν=-1 ... passed
Testing ξ(r), ℓ=4, ν=0 ... passed
Testing ξ(r), ℓ=4, ν=1 ... passed
Testing ξ(r), ℓ=4, ν=2 ... passed
Testing ξ(r), ℓ=4, ν=3 ... passed
Testing ξ(r) ... passed
Testing ξ′(r) ... passed
Testing ξ″(r) ... passed
Calculating fmax: 
  dlrec    = 4
  dlrecRg1 = -4
  q=1.1, R=1.1:	  4.762682 seconds (1.20 M allocations: 67.954 MiB, 1.35% gc time)

  4.807189 seconds (1.22 M allocations: 69.064 MiB, 1.34% gc time)
ℓ = 1202
Δℓ = 4
ΔℓRg1 = -4
N = 1600
q = 1.1
kmin = 1.0e-5
kmax = 100000.00000000004
χ0 = 0.023029999999999995
RR = RR.tsv
ℓmax = ℓmax.bin
f21 = f21.bin
kmin = 1.0e-5
kmax = 100000.0
dlrec    = 4
dlrecRg1 = -4
Output size: 5741568 bytes = 0.005347251892089844 GiB
Output size: 51264 bytes = 4.774332046508789e-5 GiB
Reading 'out/F21EllCache'...   0.686173 seconds (318.67 k allocations: 16.395 MiB)
ellmax: 1202
lmaxcache: 1202
fell[:,1,1] = Complex{Float64}[3.9583795592771634e-52 - 9.695233714158177e-68im, 3.990121772925759e-52 - 9.772979714843386e-68im]
ell 1202, elapsed: 0.0001609325408935547
ell 1201, elapsed: 2.463068962097168
ell 1200, elapsed: 0.0005259513854980469
ell 1199, elapsed: 0.0004980564117431641
ell 1198, elapsed: 0.0004801750183105469
ell 1002, elapsed: 0.00946807861328125
ell 1001, elapsed: 0.0005071163177490234
ell 1000, elapsed: 0.00047898292541503906
ell 999, elapsed: 0.00047397613525390625
ell 998, elapsed: 0.0004799365997314453
ell 902, elapsed: 0.00486302375793457
ell 901, elapsed: 0.0005002021789550781
ell 900, elapsed: 0.0004761219024658203
ell 899, elapsed: 0.0004749298095703125
ell 898, elapsed: 0.0004761219024658203
ell 802, elapsed: 0.004967212677001953
ell 801, elapsed: 0.0005009174346923828
ell 800, elapsed: 0.0004849433898925781
ell 799, elapsed: 0.00047016143798828125
ell 798, elapsed: 0.0004839897155761719
ell 702, elapsed: 0.0048410892486572266
ell 701, elapsed: 0.0004909038543701172
ell 700, elapsed: 0.0004949569702148438
ell 699, elapsed: 0.0004811286926269531
ell 698, elapsed: 0.00048089027404785156
ell 602, elapsed: 0.004948854446411133
ell 601, elapsed: 0.0005550384521484375
ell 600, elapsed: 0.0005540847778320312
ell 599, elapsed: 0.00047206878662109375
ell 598, elapsed: 0.0004870891571044922
ell 502, elapsed: 0.004829883575439453
ell 501, elapsed: 0.0004901885986328125
ell 500, elapsed: 0.000492095947265625
ell 499, elapsed: 0.00047206878662109375
ell 498, elapsed: 0.00047397613525390625
ell 402, elapsed: 0.00509190559387207
ell 401, elapsed: 0.00048613548278808594
ell 400, elapsed: 0.0004839897155761719
ell 399, elapsed: 0.00047397613525390625
ell 398, elapsed: 0.00047397613525390625
ell 302, elapsed: 0.005011081695556641
ell 301, elapsed: 0.0004858970642089844
ell 300, elapsed: 0.00047397613525390625
ell 299, elapsed: 0.0004730224609375
ell 298, elapsed: 0.0004830360412597656
ell 202, elapsed: 0.004948139190673828
ell 201, elapsed: 0.0004990100860595703
ell 200, elapsed: 0.00047016143798828125
ell 199, elapsed: 0.0004761219024658203
ell 198, elapsed: 0.0004839897155761719
ell 152, elapsed: 0.002588033676147461
ell 151, elapsed: 0.0004849433898925781
ell 150, elapsed: 0.0004820823669433594
ell 149, elapsed: 0.0004830360412597656
ell 148, elapsed: 0.0004849433898925781
ell 127, elapsed: 0.0015480518341064453
ell 126, elapsed: 0.00048089027404785156
ell 125, elapsed: 0.0004820823669433594
ell 124, elapsed: 0.00047707557678222656
ell 123, elapsed: 0.00047588348388671875
ell 114, elapsed: 0.000885009765625
ell 113, elapsed: 0.0004889965057373047
ell 112, elapsed: 0.00047707557678222656
ell 111, elapsed: 0.0004780292510986328
ell 110, elapsed: 0.0004780292510986328
ell 102, elapsed: 0.001013040542602539
ell 101, elapsed: 0.0004870891571044922
ell 100, elapsed: 0.00047707557678222656
ell 99, elapsed: 0.0004761219024658203
ell 98, elapsed: 0.0004718303680419922
ell 97, elapsed: 0.0005130767822265625
ell 96, elapsed: 0.0006208419799804688
ell 95, elapsed: 0.0005090236663818359
ell 94, elapsed: 0.0006000995635986328
ell 93, elapsed: 0.0005071163177490234
ell 92, elapsed: 0.0006110668182373047
ell 91, elapsed: 0.0005249977111816406
ell 90, elapsed: 0.0005950927734375
ell 89, elapsed: 0.0005140304565429688
ell 88, elapsed: 0.0006048679351806641
ell 87, elapsed: 0.0005269050598144531
ell 86, elapsed: 0.0006799697875976562
ell 85, elapsed: 0.0005178451538085938
ell 84, elapsed: 0.0006000995635986328
ell 83, elapsed: 0.0005161762237548828
ell 82, elapsed: 0.0006029605865478516
ell 81, elapsed: 0.0005230903625488281
ell 80, elapsed: 0.0005979537963867188
ell 79, elapsed: 0.0006239414215087891
ell 78, elapsed: 0.0005960464477539062
ell 77, elapsed: 0.0005130767822265625
ell 76, elapsed: 0.0005979537963867188
ell 75, elapsed: 0.0005109310150146484
ell 74, elapsed: 0.0005881786346435547
ell 73, elapsed: 0.0006008148193359375
ell 72, elapsed: 0.0005919933319091797
ell 71, elapsed: 0.0005040168762207031
ell 70, elapsed: 0.0006220340728759766
ell 69, elapsed: 0.0005891323089599609
ell 68, elapsed: 0.000598907470703125
ell 67, elapsed: 0.0005109310150146484
ell 66, elapsed: 0.0006940364837646484
ell 65, elapsed: 0.0005109310150146484
ell 64, elapsed: 0.0005898475646972656
ell 63, elapsed: 0.0005078315734863281
ell 62, elapsed: 0.0006229877471923828
ell 61, elapsed: 0.0006048679351806641
ell 60, elapsed: 0.0006887912750244141
ell 59, elapsed: 0.000514984130859375
ell 58, elapsed: 0.0006070137023925781
ell 57, elapsed: 0.0005130767822265625
ell 56, elapsed: 0.0005888938903808594
ell 55, elapsed: 0.0005071163177490234
ell 54, elapsed: 0.0005948543548583984
ell 53, elapsed: 0.0005960464477539062
ell 52, elapsed: 0.0006010532379150391
ell 51, elapsed: 0.0005099773406982422
ell 50, elapsed: 0.0005950927734375
ell 49, elapsed: 0.0005109310150146484
ell 48, elapsed: 0.000598907470703125
ell 47, elapsed: 0.0005080699920654297
ell 46, elapsed: 0.0006890296936035156
ell 45, elapsed: 0.0005099773406982422
ell 44, elapsed: 0.000598907470703125
ell 43, elapsed: 0.0005600452423095703
ell 42, elapsed: 0.0006639957427978516
ell 41, elapsed: 0.0005440711975097656
ell 40, elapsed: 0.000621795654296875
ell 39, elapsed: 0.0005660057067871094
ell 38, elapsed: 0.0006690025329589844
ell 37, elapsed: 0.0005230903625488281
ell 36, elapsed: 0.0006008148193359375
ell 35, elapsed: 0.000514984130859375
ell 34, elapsed: 0.0005991458892822266
ell 33, elapsed: 0.0005362033843994141
ell 32, elapsed: 0.0006020069122314453
ell 31, elapsed: 0.0005168914794921875
ell 30, elapsed: 0.0006039142608642578
ell 29, elapsed: 0.0005190372467041016
ell 28, elapsed: 0.0005991458892822266
ell 27, elapsed: 0.0005218982696533203
ell 26, elapsed: 0.0006170272827148438
ell 25, elapsed: 0.0005130767822265625
ell 24, elapsed: 0.0006670951843261719
ell 23, elapsed: 0.0005879402160644531
ell 22, elapsed: 0.0006020069122314453
ell 21, elapsed: 0.0005140304565429688
ell 20, elapsed: 0.0006771087646484375
ell 19, elapsed: 0.0005159378051757812
ell 18, elapsed: 0.0005819797515869141
ell 17, elapsed: 0.0005061626434326172
ell 16, elapsed: 0.0005810260772705078
ell 15, elapsed: 0.0005090236663818359
ell 14, elapsed: 0.000579833984375
ell 13, elapsed: 0.0006101131439208984
ell 12, elapsed: 0.0005888938903808594
ell 11, elapsed: 0.0005049705505371094
ell 10, elapsed: 0.0006148815155029297
ell 9, elapsed: 0.0005700588226318359
ell 8, elapsed: 0.0005900859832763672
ell 7, elapsed: 0.0006711483001708984
ell 6, elapsed: 0.0006229877471923828
ell 5, elapsed: 0.0005190372467041016
ell 4, elapsed: 0.0006270408630371094
ell 3, elapsed: 0.0005738735198974609
ell 2, elapsed: 0.0005970001220703125
ell 1, elapsed: 0.0005190372467041016
ell 0, elapsed: 0.0006117820739746094
  3.367458 seconds (1.75 M allocations: 85.477 MiB, 0.80% gc time)
elapsed: 0.0009920597076416016
step:          0.788921 sec (402.561 k allocations: 20.278 MB, 0.0% gc time)
swapping:      0.000587 sec (0 allocations: 0 byte, 0.0% gc time)
calc_Mellell!: 0.602539 sec (296.4 k allocations: 14.958 MB, 0.0% gc time)
  t0 :  0.0 sec (0 allocations: 0 byte, 0.0% gc time)
  tm2 : 0.0 sec (0 allocations: 0 byte, 0.0% gc time)
  tm2s: 0.0 sec (0 allocations: 0 byte, 0.0% gc time)
  tm4 : 0.0 sec (0 allocations: 0 byte, 0.0% gc time)
  tp2 : 0.0 sec (0 allocations: 0 byte, 0.0% gc time)
  tp2s: 0.0 sec (0 allocations: 0 byte, 0.0% gc time)
  tp4 : 0.0 sec (0 allocations: 0 byte, 0.0% gc time)
calc_wtdll!:   1.19387 sec (525.859 k allocations: 26.376 MB, 2.25% gc time)
calc_wljj!:    0.003329 sec (6 allocations: 96 byte, 0.0% gc time)
mult_prefac!:  0.0 sec (0 allocations: 0 byte, 0.0% gc time)
convert:       0.0 sec (0 allocations: 0 byte, 0.0% gc time)
write:         0.005144 sec (0 allocations: 0 byte, 0.0% gc time)
test_rand_2f1: 0.0 sec (0 allocations: 0 byte, 0.0% gc time)
Closing outfile out/Ml21-cache.bin...   0.000108 seconds
  1.120000 seconds (8.66 k allocations: 420.969 KiB)
make_phi():   0.013462 seconds (8.20 k allocations: 238.016 KiB)
  0.211791 seconds (121.69 k allocations: 5.901 MiB)
tskip:       2.2e-5 sec (0 allocations: 0 byte, 0.0% gc time)
tread:       0.00219 sec (19 allocations: 2.172 KB, 0.0% gc time)
tmultphi:    0.040875 sec (26.022 k allocations: 1.338 MB, 0.0% gc time)
tbrfft:      0.004186 sec (896 allocations: 42.0 KB, 0.0% gc time)
tmultprefac: 0.003657 sec (0 allocations: 0 byte, 0.0% gc time)
toutfunc:    0.160788 sec (94.104 k allocations: 4.45 MB, 0.0% gc time)
Testing R=1.1 ... passed
Calculating fmax: 
  dlrec    = 4
  dlrecRg1 = -4
  q=1.1, R=1.0:	  0.001733 seconds (4.00 k allocations: 300.375 KiB)

  0.001936 seconds (4.04 k allocations: 335.062 KiB)
ℓ = 1202
Δℓ = 4
ΔℓRg1 = -4
N = 1600
q = 1.1
kmin = 1.0e-5
kmax = 100000.00000000004
χ0 = 0.023029999999999995
RR = RR.tsv
ℓmax = ℓmax.bin
f21 = f21.bin
kmin = 1.0e-5
kmax = 100000.0
dlrec    = 4
dlrecRg1 = -4
Output size: 61465536 bytes = 0.05724424123764038 GiB
Output size: 51264 bytes = 4.774332046508789e-5 GiB
Reading 'out/F21EllCache'...   0.001150 seconds (267 allocations: 84.656 KiB)
ellmax: 1202
lmaxcache: 1202
fell[:,1,1] = Complex{Float64}[809.6031528389767 - 1.9829558194077161e-13im, 0.0 + 0.0im]
ell 1202, elapsed: 2.4080276489257812e-5
ell 1201, elapsed: 0.016607999801635742
ell 1200, elapsed: 0.0004830360412597656
ell 1199, elapsed: 0.000518798828125
ell 1198, elapsed: 0.0005319118499755859
ell 1197, elapsed: 0.0005848407745361328
ell 1196, elapsed: 0.0006551742553710938
ell 1195, elapsed: 0.0006940364837646484
ell 1194, elapsed: 0.0006279945373535156
ell 1193, elapsed: 0.0007600784301757812
ell 1192, elapsed: 0.0006279945373535156
ell 1191, elapsed: 0.0007851123809814453
ell 1190, elapsed: 0.00061798095703125
ell 1189, elapsed: 0.0007600784301757812
ell 1188, elapsed: 0.0005009174346923828
ell 1187, elapsed: 0.0006921291351318359
ell 1186, elapsed: 0.0005338191986083984
ell 1185, elapsed: 0.0007078647613525391
ell 1184, elapsed: 0.0006289482116699219
ell 1183, elapsed: 0.0007491111755371094
ell 1182, elapsed: 0.0006260871887207031
ell 1181, elapsed: 0.0006091594696044922
ell 1180, elapsed: 0.0005509853363037109
ell 1179, elapsed: 0.0007679462432861328
ell 1178, elapsed: 0.0005960464477539062
ell 1177, elapsed: 0.0007429122924804688
ell 1176, elapsed: 0.0006299018859863281
ell 1175, elapsed: 0.0007519721984863281
ell 1174, elapsed: 0.0006580352783203125
ell 1173, elapsed: 0.0007469654083251953
ell 1172, elapsed: 0.0006129741668701172
ell 1171, elapsed: 0.0007588863372802734
ell 1170, elapsed: 0.0006051063537597656
ell 1169, elapsed: 0.0005939006805419922
ell 1168, elapsed: 0.0006918907165527344
ell 1167, elapsed: 0.0007579326629638672
ell 1166, elapsed: 0.0004980564117431641
ell 1165, elapsed: 0.0006659030914306641
ell 1164, elapsed: 0.0006279945373535156
ell 1163, elapsed: 0.0005648136138916016
ell 1162, elapsed: 0.0005071163177490234
ell 1161, elapsed: 0.0004811286926269531
ell 1160, elapsed: 0.00038909912109375
ell 1159, elapsed: 0.00047779083251953125
ell 1158, elapsed: 0.0003941059112548828
ell 1157, elapsed: 0.00047516822814941406
ell 1156, elapsed: 0.0003910064697265625
ell 1155, elapsed: 0.00047016143798828125
ell 1154, elapsed: 0.0003859996795654297
ell 1153, elapsed: 0.0004839897155761719
ell 1152, elapsed: 0.0003991127014160156
ell 1151, elapsed: 0.0006411075592041016
ell 1150, elapsed: 0.0004792213439941406
ell 1149, elapsed: 0.00048089027404785156
ell 1148, elapsed: 0.00038814544677734375
ell 1147, elapsed: 0.0006549358367919922
ell 1146, elapsed: 0.0005521774291992188
ell 1145, elapsed: 0.0005068778991699219
ell 1144, elapsed: 0.00038814544677734375
ell 1143, elapsed: 0.0004849433898925781
ell 1142, elapsed: 0.0004019737243652344
ell 1141, elapsed: 0.0004889965057373047
ell 1140, elapsed: 0.0003972053527832031
ell 1139, elapsed: 0.0004878044128417969
ell 1138, elapsed: 0.0004048347473144531
ell 1137, elapsed: 0.0004761219024658203
ell 1136, elapsed: 0.00039887428283691406
ell 1135, elapsed: 0.0004749298095703125
ell 1134, elapsed: 0.0003879070281982422
ell 1133, elapsed: 0.0004718303680419922
ell 1132, elapsed: 0.000392913818359375
ell 1131, elapsed: 0.000476837158203125
ell 1130, elapsed: 0.0004839897155761719
ell 1129, elapsed: 0.0004849433898925781
ell 1128, elapsed: 0.0003910064697265625
ell 1127, elapsed: 0.0004761219024658203
ell 1126, elapsed: 0.0004000663757324219
ell 1125, elapsed: 0.0004968643188476562
ell 1124, elapsed: 0.0004038810729980469
ell 1123, elapsed: 0.0004830360412597656
ell 1122, elapsed: 0.00040602684020996094
ell 1121, elapsed: 0.00048804283142089844
ell 1120, elapsed: 0.0003859996795654297
ell 1119, elapsed: 0.0004680156707763672
ell 1118, elapsed: 0.00038909912109375
ell 1117, elapsed: 0.0004811286926269531
ell 1116, elapsed: 0.00039076805114746094
ell 1115, elapsed: 0.00048804283142089844
ell 1114, elapsed: 0.00039887428283691406
ell 1113, elapsed: 0.0004949569702148438
ell 1112, elapsed: 0.00039696693420410156
ell 1111, elapsed: 0.0004649162292480469
ell 1110, elapsed: 0.0004000663757324219
ell 1109, elapsed: 0.0004820823669433594
ell 1108, elapsed: 0.0005230903625488281
ell 1107, elapsed: 0.0006449222564697266
ell 1106, elapsed: 0.00043010711669921875
ell 1105, elapsed: 0.0005359649658203125
ell 1104, elapsed: 0.00043487548828125
ell 1103, elapsed: 0.0005061626434326172
ell 1102, elapsed: 0.0004169940948486328
ell 1101, elapsed: 0.0006368160247802734
ell 1100, elapsed: 0.0005190372467041016
ell 1099, elapsed: 0.0006978511810302734
ell 1098, elapsed: 0.0006480216979980469
ell 1097, elapsed: 0.0005168914794921875
ell 1096, elapsed: 0.00041294097900390625
ell 1095, elapsed: 0.0005049705505371094
ell 1094, elapsed: 0.0004088878631591797
ell 1093, elapsed: 0.0004870891571044922
ell 1092, elapsed: 0.0004029273986816406
ell 1091, elapsed: 0.0004930496215820312
ell 1090, elapsed: 0.0005240440368652344
ell 1089, elapsed: 0.0004928112030029297
ell 1088, elapsed: 0.00047087669372558594
ell 1087, elapsed: 0.0007159709930419922
ell 1086, elapsed: 0.000476837158203125
ell 1085, elapsed: 0.0006339550018310547
ell 1084, elapsed: 0.0006649494171142578
ell 1083, elapsed: 0.0006830692291259766
ell 1082, elapsed: 0.00049591064453125
ell 1081, elapsed: 0.0007069110870361328
ell 1080, elapsed: 0.000576019287109375
ell 1079, elapsed: 0.0007579326629638672
ell 1078, elapsed: 0.0005309581756591797
ell 1077, elapsed: 0.0007441043853759766
ell 1076, elapsed: 0.00044918060302734375
ell 1075, elapsed: 0.0004999637603759766
ell 1074, elapsed: 0.00039696693420410156
ell 1073, elapsed: 0.0004899501800537109
ell 1072, elapsed: 0.0005159378051757812
ell 1071, elapsed: 0.0007610321044921875
ell 1070, elapsed: 0.00061798095703125
ell 1069, elapsed: 0.0006058216094970703
ell 1068, elapsed: 0.00038695335388183594
ell 1067, elapsed: 0.0004918575286865234
ell 1066, elapsed: 0.0003921985626220703
ell 1065, elapsed: 0.0004870891571044922
ell 1064, elapsed: 0.0004150867462158203
ell 1063, elapsed: 0.0004899501800537109
ell 1062, elapsed: 0.0005710124969482422
ell 1061, elapsed: 0.0005941390991210938
ell 1060, elapsed: 0.0005309581756591797
ell 1059, elapsed: 0.0006229877471923828
ell 1058, elapsed: 0.0004019737243652344
ell 1057, elapsed: 0.000637054443359375
ell 1056, elapsed: 0.00047779083251953125
ell 1055, elapsed: 0.0006601810455322266
ell 1054, elapsed: 0.0005030632019042969
ell 1053, elapsed: 0.0004909038543701172
ell 1052, elapsed: 0.00039505958557128906
ell 1051, elapsed: 0.0004799365997314453
ell 1050, elapsed: 0.00039196014404296875
ell 1049, elapsed: 0.0005860328674316406
ell 1048, elapsed: 0.0003960132598876953
ell 1047, elapsed: 0.0006990432739257812
ell 1046, elapsed: 0.00045490264892578125
ell 1045, elapsed: 0.0006399154663085938
ell 1044, elapsed: 0.0006220340728759766
ell 1043, elapsed: 0.0008649826049804688
ell 1042, elapsed: 0.0006759166717529297
ell 1041, elapsed: 0.0006220340728759766
ell 1040, elapsed: 0.00043702125549316406
ell 1039, elapsed: 0.000537872314453125
ell 1038, elapsed: 0.00043010711669921875
ell 1037, elapsed: 0.0005109310150146484
ell 1036, elapsed: 0.0004000663757324219
ell 1035, elapsed: 0.0006251335144042969
ell 1034, elapsed: 0.0004940032958984375
ell 1033, elapsed: 0.0004940032958984375
ell 1032, elapsed: 0.00039005279541015625
ell 1031, elapsed: 0.0006449222564697266
ell 1030, elapsed: 0.0006010532379150391
ell 1029, elapsed: 0.0005998611450195312
ell 1028, elapsed: 0.00061798095703125
ell 1027, elapsed: 0.0005750656127929688
ell 1026, elapsed: 0.0003898143768310547
ell 1025, elapsed: 0.0004820823669433594
ell 1024, elapsed: 0.0005412101745605469
ell 1023, elapsed: 0.0008549690246582031
ell 1022, elapsed: 0.00045299530029296875
ell 1021, elapsed: 0.0004811286926269531
ell 1020, elapsed: 0.0005719661712646484
ell 1019, elapsed: 0.0005478858947753906
ell 1018, elapsed: 0.00039386749267578125
ell 1017, elapsed: 0.0004830360412597656
ell 1016, elapsed: 0.0004220008850097656
ell 1015, elapsed: 0.0004780292510986328
ell 1014, elapsed: 0.0003809928894042969
ell 1013, elapsed: 0.000492095947265625
ell 1012, elapsed: 0.00039696693420410156
ell 1011, elapsed: 0.0004961490631103516
ell 1010, elapsed: 0.0004010200500488281
ell 1009, elapsed: 0.000431060791015625
ell 1008, elapsed: 0.0004107952117919922
ell 1007, elapsed: 0.0004019737243652344
ell 1006, elapsed: 0.0003390312194824219
ell 1005, elapsed: 0.00043201446533203125
ell 1004, elapsed: 0.00040411949157714844
ell 1003, elapsed: 0.0004889965057373047
ell 1002, elapsed: 0.00039887428283691406
ell 1001, elapsed: 0.0004839897155761719
ell 1000, elapsed: 0.0004019737243652344
ell 999, elapsed: 0.0005021095275878906
ell 998, elapsed: 0.0003972053527832031
ell 997, elapsed: 0.00048279762268066406
ell 996, elapsed: 0.0003941059112548828
ell 995, elapsed: 0.0004909038543701172
ell 994, elapsed: 0.0004010200500488281
ell 993, elapsed: 0.0006799697875976562
ell 992, elapsed: 0.0005779266357421875
ell 991, elapsed: 0.0006248950958251953
ell 990, elapsed: 0.0005650520324707031
ell 989, elapsed: 0.0006351470947265625
ell 988, elapsed: 0.0003991127014160156
ell 987, elapsed: 0.0006539821624755859
ell 986, elapsed: 0.0005528926849365234
ell 985, elapsed: 0.0005280971527099609
ell 984, elapsed: 0.00040221214294433594
ell 983, elapsed: 0.0006418228149414062
ell 982, elapsed: 0.0004928112030029297
ell 981, elapsed: 0.0007009506225585938
ell 980, elapsed: 0.0004830360412597656
ell 979, elapsed: 0.0004870891571044922
ell 978, elapsed: 0.0005009174346923828
ell 977, elapsed: 0.0004909038543701172
ell 976, elapsed: 0.0003998279571533203
ell 975, elapsed: 0.0004911422729492188
ell 974, elapsed: 0.0005140304565429688
ell 973, elapsed: 0.0006251335144042969
ell 972, elapsed: 0.0005550384521484375
ell 971, elapsed: 0.0007510185241699219
ell 970, elapsed: 0.0003960132598876953
ell 969, elapsed: 0.0006589889526367188
ell 968, elapsed: 0.0006270408630371094
ell 967, elapsed: 0.0005979537963867188
ell 966, elapsed: 0.0004000663757324219
ell 965, elapsed: 0.0004918575286865234
ell 964, elapsed: 0.0006740093231201172
ell 963, elapsed: 0.0007491111755371094
ell 962, elapsed: 0.0006041526794433594
ell 961, elapsed: 0.0005788803100585938
ell 960, elapsed: 0.0004868507385253906
ell 959, elapsed: 0.0007619857788085938
ell 958, elapsed: 0.0006859302520751953
ell 957, elapsed: 0.0006198883056640625
ell 956, elapsed: 0.0004019737243652344
ell 955, elapsed: 0.0005910396575927734
ell 954, elapsed: 0.0006251335144042969
ell 953, elapsed: 0.0006749629974365234
ell 952, elapsed: 0.0006868839263916016
ell 951, elapsed: 0.0005900859832763672
ell 950, elapsed: 0.0005528926849365234
ell 949, elapsed: 0.0006899833679199219
ell 948, elapsed: 0.0005061626434326172
ell 947, elapsed: 0.0007450580596923828
ell 946, elapsed: 0.0006120204925537109
ell 945, elapsed: 0.0005011558532714844
ell 944, elapsed: 0.0005631446838378906
ell 943, elapsed: 0.0005848407745361328
ell 942, elapsed: 0.0004830360412597656
ell 941, elapsed: 0.0007371902465820312
ell 940, elapsed: 0.0006139278411865234
ell 939, elapsed: 0.0006959438323974609
ell 938, elapsed: 0.0005559921264648438
ell 937, elapsed: 0.0007398128509521484
ell 936, elapsed: 0.000476837158203125
ell 935, elapsed: 0.0006668567657470703
ell 934, elapsed: 0.0004398822784423828
ell 933, elapsed: 0.0007259845733642578
ell 932, elapsed: 0.0005791187286376953
ell 931, elapsed: 0.0005888938903808594
ell 930, elapsed: 0.00046896934509277344
ell 929, elapsed: 0.0008559226989746094
ell 928, elapsed: 0.0003991127014160156
ell 927, elapsed: 0.0006818771362304688
ell 926, elapsed: 0.0005061626434326172
ell 925, elapsed: 0.0007481575012207031
ell 924, elapsed: 0.0004360675811767578
ell 923, elapsed: 0.00047707557678222656
ell 922, elapsed: 0.00039386749267578125
ell 921, elapsed: 0.0004780292510986328
ell 920, elapsed: 0.0007069110870361328
ell 919, elapsed: 0.002332925796508789
ell 918, elapsed: 0.0006079673767089844
ell 917, elapsed: 0.0007300376892089844
ell 916, elapsed: 0.0005130767822265625
ell 915, elapsed: 0.00061798095703125
ell 914, elapsed: 0.00038886070251464844
ell 913, elapsed: 0.0004749298095703125
ell 912, elapsed: 0.00039505958557128906
ell 911, elapsed: 0.0004730224609375
ell 910, elapsed: 0.00039005279541015625
ell 909, elapsed: 0.0006959438323974609
ell 908, elapsed: 0.00039696693420410156
ell 907, elapsed: 0.0004830360412597656
ell 906, elapsed: 0.00039196014404296875
ell 905, elapsed: 0.00046706199645996094
ell 904, elapsed: 0.0005049705505371094
ell 903, elapsed: 0.00074005126953125
ell 902, elapsed: 0.0006401538848876953
ell 901, elapsed: 0.0007121562957763672
ell 900, elapsed: 0.0004611015319824219
ell 899, elapsed: 0.0004909038543701172
ell 898, elapsed: 0.0003979206085205078
ell 897, elapsed: 0.0004849433898925781
ell 896, elapsed: 0.0003941059112548828
ell 895, elapsed: 0.0006680488586425781
ell 894, elapsed: 0.0003979206085205078
ell 893, elapsed: 0.00047588348388671875
ell 892, elapsed: 0.00028586387634277344
ell 891, elapsed: 0.0003390312194824219
ell 890, elapsed: 0.00028204917907714844
ell 889, elapsed: 0.0003387928009033203
ell 888, elapsed: 0.0002818107604980469
ell 887, elapsed: 0.0003390312194824219
ell 886, elapsed: 0.00028204917907714844
ell 885, elapsed: 0.00033593177795410156
ell 884, elapsed: 0.0004589557647705078
ell 883, elapsed: 0.0019462108612060547
ell 882, elapsed: 0.0003159046173095703
ell 881, elapsed: 0.00037407875061035156
ell 880, elapsed: 0.0002989768981933594
ell 879, elapsed: 0.0003650188446044922
ell 878, elapsed: 0.0004069805145263672
ell 877, elapsed: 0.0003681182861328125
ell 876, elapsed: 0.0005300045013427734
ell 875, elapsed: 0.0005030632019042969
ell 874, elapsed: 0.0003268718719482422
ell 873, elapsed: 0.0004258155822753906
ell 872, elapsed: 0.00035881996154785156
ell 871, elapsed: 0.0004248619079589844
ell 870, elapsed: 0.0005970001220703125
ell 869, elapsed: 0.0005209445953369141
ell 868, elapsed: 0.0004680156707763672
ell 867, elapsed: 0.0005590915679931641
ell 866, elapsed: 0.0005130767822265625
ell 865, elapsed: 0.0007529258728027344
ell 864, elapsed: 0.0005180835723876953
ell 863, elapsed: 0.00061798095703125
ell 862, elapsed: 0.0004608631134033203
ell 861, elapsed: 0.0007212162017822266
ell 860, elapsed: 0.0005159378051757812
ell 859, elapsed: 0.000576019287109375
ell 858, elapsed: 0.00047206878662109375
ell 857, elapsed: 0.0005700588226318359
ell 856, elapsed: 0.0004439353942871094
ell 855, elapsed: 0.000476837158203125
ell 854, elapsed: 0.0003921985626220703
ell 853, elapsed: 0.0004830360412597656
ell 852, elapsed: 0.0003941059112548828
ell 851, elapsed: 0.0004849433898925781
ell 850, elapsed: 0.0003838539123535156
ell 849, elapsed: 0.0004839897155761719
ell 848, elapsed: 0.0004220008850097656
ell 847, elapsed: 0.0004839897155761719
ell 846, elapsed: 0.0003941059112548828
ell 845, elapsed: 0.0004830360412597656
ell 844, elapsed: 0.0005052089691162109
ell 843, elapsed: 0.0006260871887207031
ell 842, elapsed: 0.0003910064697265625
ell 841, elapsed: 0.0004899501800537109
ell 840, elapsed: 0.0004489421844482422
ell 839, elapsed: 0.0004909038543701172
ell 838, elapsed: 0.0003960132598876953
ell 837, elapsed: 0.0004889965057373047
ell 836, elapsed: 0.00039696693420410156
ell 835, elapsed: 0.0004901885986328125
ell 834, elapsed: 0.00039505958557128906
ell 833, elapsed: 0.00047898292541503906
ell 832, elapsed: 0.0005738735198974609
ell 831, elapsed: 0.0005559921264648438
ell 830, elapsed: 0.00039005279541015625
ell 829, elapsed: 0.000659942626953125
ell 828, elapsed: 0.0004839897155761719
ell 827, elapsed: 0.0006890296936035156
ell 826, elapsed: 0.00041985511779785156
ell 825, elapsed: 0.0005109310150146484
ell 824, elapsed: 0.00040411949157714844
ell 823, elapsed: 0.0006060600280761719
ell 822, elapsed: 0.0004999637603759766
ell 821, elapsed: 0.0004980564117431641
ell 820, elapsed: 0.0005538463592529297
ell 819, elapsed: 0.0006680488586425781
ell 818, elapsed: 0.0005860328674316406
ell 817, elapsed: 0.0004870891571044922
ell 816, elapsed: 0.0003960132598876953
ell 815, elapsed: 0.0004870891571044922
ell 814, elapsed: 0.0003991127014160156
ell 813, elapsed: 0.0005030632019042969
ell 812, elapsed: 0.0003998279571533203
ell 811, elapsed: 0.0004899501800537109
ell 810, elapsed: 0.00042700767517089844
ell 809, elapsed: 0.0004930496215820312
ell 808, elapsed: 0.00040411949157714844
ell 807, elapsed: 0.00048804283142089844
ell 806, elapsed: 0.000576019287109375
ell 805, elapsed: 0.0007541179656982422
ell 804, elapsed: 0.0005130767822265625
ell 803, elapsed: 0.0007290840148925781
ell 802, elapsed: 0.0005819797515869141
ell 801, elapsed: 0.0006480216979980469
ell 800, elapsed: 0.0004911422729492188
ell 799, elapsed: 0.0004870891571044922
ell 798, elapsed: 0.000514984130859375
ell 797, elapsed: 0.0007870197296142578
ell 796, elapsed: 0.0005671977996826172
ell 795, elapsed: 0.0006239414215087891
ell 794, elapsed: 0.0003960132598876953
ell 793, elapsed: 0.0006668567657470703
ell 792, elapsed: 0.0006167888641357422
ell 791, elapsed: 0.0007479190826416016
ell 790, elapsed: 0.0004038810729980469
ell 789, elapsed: 0.0006079673767089844
ell 788, elapsed: 0.0004432201385498047
ell 787, elapsed: 0.0006701946258544922
ell 786, elapsed: 0.0004940032958984375
ell 785, elapsed: 0.0006780624389648438
ell 784, elapsed: 0.0005071163177490234
ell 783, elapsed: 0.0004940032958984375
ell 782, elapsed: 0.0004019737243652344
ell 781, elapsed: 0.00048804283142089844
ell 780, elapsed: 0.0004711151123046875
ell 779, elapsed: 0.0007491111755371094
ell 778, elapsed: 0.000518798828125
ell 777, elapsed: 0.0007359981536865234
ell 776, elapsed: 0.00029087066650390625
ell 775, elapsed: 0.00034880638122558594
ell 774, elapsed: 0.00028204917907714844
ell 773, elapsed: 0.0003368854522705078
ell 772, elapsed: 0.0002830028533935547
ell 771, elapsed: 0.0003418922424316406
ell 770, elapsed: 0.00028204917907714844
ell 769, elapsed: 0.00034308433532714844
ell 768, elapsed: 0.0002830028533935547
ell 767, elapsed: 0.00034499168395996094
ell 766, elapsed: 0.0005671977996826172
ell 765, elapsed: 0.00036215782165527344
ell 764, elapsed: 0.00028395652770996094
ell 763, elapsed: 0.0003421306610107422
ell 762, elapsed: 0.0002827644348144531
ell 761, elapsed: 0.0003421306610107422
ell 760, elapsed: 0.0002849102020263672
ell 759, elapsed: 0.0003399848937988281
ell 758, elapsed: 0.00028204917907714844
ell 757, elapsed: 0.0003399848937988281
ell 756, elapsed: 0.0002830028533935547
ell 755, elapsed: 0.0006520748138427734
ell 754, elapsed: 0.0005240440368652344
ell 753, elapsed: 0.0005071163177490234
ell 752, elapsed: 0.0003771781921386719
ell 751, elapsed: 0.00045800209045410156
ell 750, elapsed: 0.0003788471221923828
ell 749, elapsed: 0.0004570484161376953
ell 748, elapsed: 0.00039005279541015625
ell 747, elapsed: 0.0005769729614257812
ell 746, elapsed: 0.0005400180816650391
ell 745, elapsed: 0.0006670951843261719
ell 744, elapsed: 0.0005269050598144531
ell 743, elapsed: 0.0006711483001708984
ell 742, elapsed: 0.00039505958557128906
ell 741, elapsed: 0.0007698535919189453
ell 740, elapsed: 0.0004978179931640625
ell 739, elapsed: 0.0005071163177490234
ell 738, elapsed: 0.00041413307189941406
ell 737, elapsed: 0.0004889965057373047
ell 736, elapsed: 0.0005350112915039062
ell 735, elapsed: 0.0006229877471923828
ell 734, elapsed: 0.00041103363037109375
ell 733, elapsed: 0.0006101131439208984
ell 732, elapsed: 0.0005571842193603516
ell 731, elapsed: 0.0006608963012695312
ell 730, elapsed: 0.00041484832763671875
ell 729, elapsed: 0.0006978511810302734
ell 728, elapsed: 0.0005290508270263672
ell 727, elapsed: 0.0006108283996582031
ell 726, elapsed: 0.0004169940948486328
ell 725, elapsed: 0.0006570816040039062
ell 724, elapsed: 0.0005068778991699219
ell 723, elapsed: 0.0005130767822265625
ell 722, elapsed: 0.0004150867462158203
ell 721, elapsed: 0.0004911422729492188
ell 720, elapsed: 0.00039505958557128906
ell 719, elapsed: 0.0007109642028808594
ell 718, elapsed: 0.000514984130859375
ell 717, elapsed: 0.0006620883941650391
ell 716, elapsed: 0.0005011558532714844
ell 715, elapsed: 0.0004889965057373047
ell 714, elapsed: 0.0004999637603759766
ell 713, elapsed: 0.0008769035339355469
ell 712, elapsed: 0.00043511390686035156
ell 711, elapsed: 0.00048804283142089844
ell 710, elapsed: 0.0004761219024658203
ell 709, elapsed: 0.0006639957427978516
ell 708, elapsed: 0.0003979206085205078
ell 707, elapsed: 0.0004980564117431641
ell 706, elapsed: 0.0005009174346923828
ell 705, elapsed: 0.0004870891571044922
ell 704, elapsed: 0.0003979206085205078
ell 703, elapsed: 0.0006299018859863281
ell 702, elapsed: 0.0006289482116699219
ell 701, elapsed: 0.0006620883941650391
ell 700, elapsed: 0.0005369186401367188
ell 699, elapsed: 0.0006420612335205078
ell 698, elapsed: 0.0004031658172607422
ell 697, elapsed: 0.0004930496215820312
ell 696, elapsed: 0.0005750656127929688
ell 695, elapsed: 0.0007600784301757812
ell 694, elapsed: 0.0004620552062988281
ell 693, elapsed: 0.00049591064453125
ell 692, elapsed: 0.0005898475646972656
ell 691, elapsed: 0.0006740093231201172
ell 690, elapsed: 0.0005838871002197266
ell 689, elapsed: 0.0007560253143310547
ell 688, elapsed: 0.00048089027404785156
ell 687, elapsed: 0.0006690025329589844
ell 686, elapsed: 0.0005640983581542969
ell 685, elapsed: 0.0005137920379638672
ell 684, elapsed: 0.00040602684020996094
ell 683, elapsed: 0.0004849433898925781
ell 682, elapsed: 0.0005218982696533203
ell 681, elapsed: 0.0007319450378417969
ell 680, elapsed: 0.0004680156707763672
ell 679, elapsed: 0.0005791187286376953
ell 678, elapsed: 0.00038909912109375
ell 677, elapsed: 0.0006549358367919922
ell 676, elapsed: 0.0006148815155029297
ell 675, elapsed: 0.0006239414215087891
ell 674, elapsed: 0.0005679130554199219
ell 673, elapsed: 0.0008881092071533203
ell 672, elapsed: 0.000537872314453125
ell 671, elapsed: 0.0004990100860595703
ell 670, elapsed: 0.00048613548278808594
ell 669, elapsed: 0.0007510185241699219
ell 668, elapsed: 0.0005319118499755859
ell 667, elapsed: 0.0007650852203369141
ell 666, elapsed: 0.0004830360412597656
ell 665, elapsed: 0.0006039142608642578
ell 664, elapsed: 0.0005369186401367188
ell 663, elapsed: 0.0006589889526367188
ell 662, elapsed: 0.0005018711090087891
ell 661, elapsed: 0.0006489753723144531
ell 660, elapsed: 0.00043392181396484375
ell 659, elapsed: 0.0005009174346923828
ell 658, elapsed: 0.0004909038543701172
ell 657, elapsed: 0.0007750988006591797
ell 656, elapsed: 0.0006167888641357422
ell 655, elapsed: 0.0007488727569580078
ell 654, elapsed: 0.00043487548828125
ell 653, elapsed: 0.0004928112030029297
ell 652, elapsed: 0.0005221366882324219
ell 651, elapsed: 0.0007500648498535156
ell 650, elapsed: 0.0005300045013427734
ell 649, elapsed: 0.0006501674652099609
ell 648, elapsed: 0.0005359649658203125
ell 647, elapsed: 0.0003669261932373047
ell 646, elapsed: 0.0002930164337158203
ell 645, elapsed: 0.00035500526428222656
ell 644, elapsed: 0.0002980232238769531
ell 643, elapsed: 0.00036907196044921875
ell 642, elapsed: 0.0002911090850830078
ell 641, elapsed: 0.0003559589385986328
ell 640, elapsed: 0.00029397010803222656
ell 639, elapsed: 0.0003600120544433594
ell 638, elapsed: 0.00029397010803222656
ell 637, elapsed: 0.00044608116149902344
ell 636, elapsed: 0.0003261566162109375
ell 635, elapsed: 0.00038695335388183594
ell 634, elapsed: 0.0003211498260498047
ell 633, elapsed: 0.00038313865661621094
ell 632, elapsed: 0.00031495094299316406
ell 631, elapsed: 0.0003821849822998047
ell 630, elapsed: 0.0003228187561035156
ell 629, elapsed: 0.0003790855407714844
ell 628, elapsed: 0.0003159046173095703
ell 627, elapsed: 0.0004229545593261719
ell 626, elapsed: 0.00032901763916015625
ell 625, elapsed: 0.0003991127014160156
ell 624, elapsed: 0.00033402442932128906
ell 623, elapsed: 0.0004000663757324219
ell 622, elapsed: 0.0003349781036376953
ell 621, elapsed: 0.00039887428283691406
ell 620, elapsed: 0.0003330707550048828
ell 619, elapsed: 0.0003910064697265625
ell 618, elapsed: 0.0003299713134765625
ell 617, elapsed: 0.0005500316619873047
ell 616, elapsed: 0.00045490264892578125
ell 615, elapsed: 0.00040411949157714844
ell 614, elapsed: 0.00033283233642578125
ell 613, elapsed: 0.0003941059112548828
ell 612, elapsed: 0.0003249645233154297
ell 611, elapsed: 0.0005431175231933594
ell 610, elapsed: 0.000408172607421875
ell 609, elapsed: 0.0004329681396484375
ell 608, elapsed: 0.0003139972686767578
ell 607, elapsed: 0.00035500526428222656
ell 606, elapsed: 0.0002830028533935547
ell 605, elapsed: 0.0003409385681152344
ell 604, elapsed: 0.0002868175506591797
ell 603, elapsed: 0.00034308433532714844
ell 602, elapsed: 0.0002830028533935547
ell 601, elapsed: 0.0003387928009033203
ell 600, elapsed: 0.00028204917907714844
ell 599, elapsed: 0.0003399848937988281
ell 598, elapsed: 0.00028204917907714844
ell 597, elapsed: 0.0005879402160644531
ell 596, elapsed: 0.00028705596923828125
ell 595, elapsed: 0.0003440380096435547
ell 594, elapsed: 0.0002818107604980469
ell 593, elapsed: 0.00034499168395996094
ell 592, elapsed: 0.00028896331787109375
ell 591, elapsed: 0.00034499168395996094
ell 590, elapsed: 0.00028705596923828125
ell 589, elapsed: 0.00034308433532714844
ell 588, elapsed: 0.0002849102020263672
ell 587, elapsed: 0.0003418922424316406
ell 586, elapsed: 0.0004858970642089844
ell 585, elapsed: 0.0004630088806152344
ell 584, elapsed: 0.0003380775451660156
ell 583, elapsed: 0.0003790855407714844
ell 582, elapsed: 0.00028586387634277344
ell 581, elapsed: 0.0003399848937988281
ell 580, elapsed: 0.00028395652770996094
ell 579, elapsed: 0.00035500526428222656
ell 578, elapsed: 0.00028705596923828125
ell 577, elapsed: 0.0003478527069091797
ell 576, elapsed: 0.0004119873046875
ell 575, elapsed: 0.0005850791931152344
ell 574, elapsed: 0.00042510032653808594
ell 573, elapsed: 0.000415802001953125
ell 572, elapsed: 0.000347137451171875
ell 571, elapsed: 0.0004029273986816406
ell 570, elapsed: 0.00033593177795410156
ell 569, elapsed: 0.0004000663757324219
ell 568, elapsed: 0.0003368854522705078
ell 567, elapsed: 0.0004839897155761719
ell 566, elapsed: 0.00032401084899902344
ell 565, elapsed: 0.00034689903259277344
ell 564, elapsed: 0.00028204917907714844
ell 563, elapsed: 0.0003390312194824219
ell 562, elapsed: 0.0002818107604980469
ell 561, elapsed: 0.0003380775451660156
ell 560, elapsed: 0.00028395652770996094
ell 559, elapsed: 0.0003399848937988281
ell 558, elapsed: 0.0002818107604980469
ell 557, elapsed: 0.0003399848937988281
ell 556, elapsed: 0.00028204917907714844
ell 555, elapsed: 0.0006930828094482422
ell 554, elapsed: 0.0003829002380371094
ell 553, elapsed: 0.0004818439483642578
ell 552, elapsed: 0.0002911090850830078
ell 551, elapsed: 0.0003559589385986328
ell 550, elapsed: 0.0002880096435546875
ell 549, elapsed: 0.00034809112548828125
ell 548, elapsed: 0.0002899169921875
ell 547, elapsed: 0.00035500526428222656
ell 546, elapsed: 0.0005688667297363281
ell 545, elapsed: 0.000453948974609375
ell 544, elapsed: 0.0003159046173095703
ell 543, elapsed: 0.00037097930908203125
ell 542, elapsed: 0.00031185150146484375
ell 541, elapsed: 0.00037598609924316406
ell 540, elapsed: 0.00031185150146484375
ell 539, elapsed: 0.0003719329833984375
ell 538, elapsed: 0.0003120899200439453
ell 537, elapsed: 0.00037407875061035156
ell 536, elapsed: 0.0005390644073486328
ell 535, elapsed: 0.0003859996795654297
ell 534, elapsed: 0.0003139972686767578
ell 533, elapsed: 0.0003719329833984375
ell 532, elapsed: 0.00031304359436035156
ell 531, elapsed: 0.00037384033203125
ell 530, elapsed: 0.000308990478515625
ell 529, elapsed: 0.00037097930908203125
ell 528, elapsed: 0.00031280517578125
ell 527, elapsed: 0.0003809928894042969
ell 526, elapsed: 0.0005719661712646484
ell 525, elapsed: 0.00036597251892089844
ell 524, elapsed: 0.0002970695495605469
ell 523, elapsed: 0.0003571510314941406
ell 522, elapsed: 0.00029206275939941406
ell 521, elapsed: 0.00034809112548828125
ell 520, elapsed: 0.00028896331787109375
ell 519, elapsed: 0.0003440380096435547
ell 518, elapsed: 0.0002892017364501953
ell 517, elapsed: 0.0003478527069091797
ell 516, elapsed: 0.0005769729614257812
ell 515, elapsed: 0.0005941390991210938
ell 514, elapsed: 0.0004849433898925781
ell 513, elapsed: 0.0005881786346435547
ell 512, elapsed: 0.0004761219024658203
ell 511, elapsed: 0.0005669593811035156
ell 510, elapsed: 0.00047516822814941406
ell 509, elapsed: 0.0010309219360351562
ell 508, elapsed: 0.00048613548278808594
ell 507, elapsed: 0.0005750656127929688
ell 506, elapsed: 0.0004799365997314453
ell 505, elapsed: 0.0005781650543212891
ell 504, elapsed: 0.0004799365997314453
ell 503, elapsed: 0.0008549690246582031
ell 502, elapsed: 0.00047516822814941406
ell 501, elapsed: 0.0005769729614257812
ell 500, elapsed: 0.0004730224609375
ell 499, elapsed: 0.0005679130554199219
ell 498, elapsed: 0.0004761219024658203
ell 497, elapsed: 0.00090789794921875
ell 496, elapsed: 0.0004830360412597656
ell 495, elapsed: 0.0005838871002197266
ell 494, elapsed: 0.0004858970642089844
ell 493, elapsed: 0.0005919933319091797
ell 492, elapsed: 0.0004839897155761719
ell 491, elapsed: 0.0005841255187988281
ell 490, elapsed: 0.0004940032958984375
ell 489, elapsed: 0.0005791187286376953
ell 488, elapsed: 0.0004811286926269531
ell 487, elapsed: 0.0005781650543212891
ell 486, elapsed: 0.0004830360412597656
ell 485, elapsed: 0.0005810260772705078
ell 484, elapsed: 0.0008218288421630859
ell 483, elapsed: 0.0005829334259033203
ell 482, elapsed: 0.0004818439483642578
ell 481, elapsed: 0.0005779266357421875
ell 480, elapsed: 0.00048279762268066406
ell 479, elapsed: 0.0005748271942138672
ell 478, elapsed: 0.000823974609375
ell 477, elapsed: 0.0005779266357421875
ell 476, elapsed: 0.00047707557678222656
ell 475, elapsed: 0.0005791187286376953
ell 474, elapsed: 0.0004849433898925781
ell 473, elapsed: 0.0005791187286376953
ell 472, elapsed: 0.0008080005645751953
ell 471, elapsed: 0.0005941390991210938
ell 470, elapsed: 0.00047898292541503906
ell 469, elapsed: 0.0005710124969482422
ell 468, elapsed: 0.0004820823669433594
ell 467, elapsed: 0.0005781650543212891
ell 466, elapsed: 0.0004849433898925781
ell 465, elapsed: 0.0009849071502685547
ell 464, elapsed: 0.00047779083251953125
ell 463, elapsed: 0.0005719661712646484
ell 462, elapsed: 0.0004780292510986328
ell 461, elapsed: 0.000576019287109375
ell 460, elapsed: 0.0004799365997314453
ell 459, elapsed: 0.0010738372802734375
ell 458, elapsed: 0.0004839897155761719
ell 457, elapsed: 0.0005898475646972656
ell 456, elapsed: 0.0004889965057373047
ell 455, elapsed: 0.0005879402160644531
ell 454, elapsed: 0.0004870891571044922
ell 453, elapsed: 0.0009121894836425781
ell 452, elapsed: 0.0004799365997314453
ell 451, elapsed: 0.0005788803100585938
ell 450, elapsed: 0.0004839897155761719
ell 449, elapsed: 0.0005939006805419922
ell 448, elapsed: 0.0004949569702148438
ell 447, elapsed: 0.0005998611450195312
ell 446, elapsed: 0.0004818439483642578
ell 445, elapsed: 0.0005810260772705078
ell 444, elapsed: 0.0004849433898925781
ell 443, elapsed: 0.0005922317504882812
ell 442, elapsed: 0.0004868507385253906
ell 441, elapsed: 0.0005881786346435547
ell 440, elapsed: 0.00078582763671875
ell 439, elapsed: 0.0005939006805419922
ell 438, elapsed: 0.0005540847778320312
ell 437, elapsed: 0.0007600784301757812
ell 436, elapsed: 0.000476837158203125
ell 435, elapsed: 0.00047516822814941406
ell 434, elapsed: 0.0007319450378417969
ell 433, elapsed: 0.00074005126953125
ell 432, elapsed: 0.0004978179931640625
ell 431, elapsed: 0.0004620552062988281
ell 430, elapsed: 0.000392913818359375
ell 429, elapsed: 0.0006990432739257812
ell 428, elapsed: 0.0009930133819580078
ell 427, elapsed: 0.0007128715515136719
ell 426, elapsed: 0.00045800209045410156
ell 425, elapsed: 0.0004839897155761719
ell 424, elapsed: 0.0005099773406982422
ell 423, elapsed: 0.0007200241088867188
ell 422, elapsed: 0.0009350776672363281
ell 421, elapsed: 0.000492095947265625
ell 420, elapsed: 0.0005199909210205078
ell 419, elapsed: 0.0007519721984863281
ell 418, elapsed: 0.0004649162292480469
ell 417, elapsed: 0.0005848407745361328
ell 416, elapsed: 0.0006000995635986328
ell 415, elapsed: 0.00038313865661621094
ell 414, elapsed: 0.00031113624572753906
ell 413, elapsed: 0.0003719329833984375
ell 412, elapsed: 0.00030803680419921875
ell 411, elapsed: 0.00036597251892089844
ell 410, elapsed: 0.0003058910369873047
ell 409, elapsed: 0.0003669261932373047
ell 408, elapsed: 0.00030803680419921875
ell 407, elapsed: 0.0003681182861328125
ell 406, elapsed: 0.00030994415283203125
ell 405, elapsed: 0.0003960132598876953
ell 404, elapsed: 0.00030493736267089844
ell 403, elapsed: 0.00037407875061035156
ell 402, elapsed: 0.0003039836883544922
ell 401, elapsed: 0.00035881996154785156
ell 400, elapsed: 0.0003027915954589844
ell 399, elapsed: 0.00036215782165527344
ell 398, elapsed: 0.00030803680419921875
ell 397, elapsed: 0.0003631114959716797
ell 396, elapsed: 0.0003058910369873047
ell 395, elapsed: 0.00036787986755371094
ell 394, elapsed: 0.00047516822814941406
ell 393, elapsed: 0.0004870891571044922
ell 392, elapsed: 0.00031304359436035156
ell 391, elapsed: 0.00035881996154785156
ell 390, elapsed: 0.0003058910369873047
ell 389, elapsed: 0.00036406517028808594
ell 388, elapsed: 0.0003070831298828125
ell 387, elapsed: 0.0003719329833984375
ell 386, elapsed: 0.000308990478515625
ell 385, elapsed: 0.0003719329833984375
ell 384, elapsed: 0.00039196014404296875
ell 383, elapsed: 0.0006780624389648438
ell 382, elapsed: 0.0006079673767089844
ell 381, elapsed: 0.0007212162017822266
ell 380, elapsed: 0.0006010532379150391
ell 379, elapsed: 0.0007297992706298828
ell 378, elapsed: 0.00055694580078125
ell 377, elapsed: 0.000682830810546875
ell 376, elapsed: 0.000598907470703125
ell 375, elapsed: 0.0007050037384033203
ell 374, elapsed: 0.0004990100860595703
ell 373, elapsed: 0.00044989585876464844
ell 372, elapsed: 0.0005779266357421875
ell 371, elapsed: 0.0007369518280029297
ell 370, elapsed: 0.0006210803985595703
ell 369, elapsed: 0.0007331371307373047
ell 368, elapsed: 0.0006201267242431641
ell 367, elapsed: 0.000743865966796875
ell 366, elapsed: 0.0005609989166259766
ell 365, elapsed: 0.0006821155548095703
ell 364, elapsed: 0.0006167888641357422
ell 363, elapsed: 0.0007269382476806641
ell 362, elapsed: 0.00045108795166015625
ell 361, elapsed: 0.0006849765777587891
ell 360, elapsed: 0.0004410743713378906
ell 359, elapsed: 0.0006840229034423828
ell 358, elapsed: 0.0006148815155029297
ell 357, elapsed: 0.0007288455963134766
ell 356, elapsed: 0.0005970001220703125
ell 355, elapsed: 0.0005791187286376953
ell 354, elapsed: 0.00042891502380371094
ell 353, elapsed: 0.0006680488586425781
ell 352, elapsed: 0.0004949569702148438
ell 351, elapsed: 0.0006771087646484375
ell 350, elapsed: 0.0004799365997314453
ell 349, elapsed: 0.0006291866302490234
ell 348, elapsed: 0.0004858970642089844
ell 347, elapsed: 0.0004820823669433594
ell 346, elapsed: 0.00036787986755371094
ell 345, elapsed: 0.00044918060302734375
ell 344, elapsed: 0.0005431175231933594
ell 343, elapsed: 0.0007708072662353516
ell 342, elapsed: 0.00048804283142089844
ell 341, elapsed: 0.00047397613525390625
ell 340, elapsed: 0.0005788803100585938
ell 339, elapsed: 0.0005519390106201172
ell 338, elapsed: 0.0005500316619873047
ell 337, elapsed: 0.0005857944488525391
ell 336, elapsed: 0.0005688667297363281
ell 335, elapsed: 0.0007529258728027344
ell 334, elapsed: 0.0005979537963867188
ell 333, elapsed: 0.0006239414215087891
ell 332, elapsed: 0.0003879070281982422
ell 331, elapsed: 0.0005970001220703125
ell 330, elapsed: 0.0005099773406982422
ell 329, elapsed: 0.0006549358367919922
ell 328, elapsed: 0.0005021095275878906
ell 327, elapsed: 0.0006909370422363281
ell 326, elapsed: 0.00041294097900390625
ell 325, elapsed: 0.0006349086761474609
ell 324, elapsed: 0.0004699230194091797
ell 323, elapsed: 0.00067901611328125
ell 322, elapsed: 0.0006151199340820312
ell 321, elapsed: 0.0006139278411865234
ell 320, elapsed: 0.0003840923309326172
ell 319, elapsed: 0.0006730556488037109
ell 318, elapsed: 0.0005168914794921875
ell 317, elapsed: 0.0004749298095703125
ell 316, elapsed: 0.0005259513854980469
ell 315, elapsed: 0.0007219314575195312
ell 314, elapsed: 0.0005719661712646484
ell 313, elapsed: 0.0006961822509765625
ell 312, elapsed: 0.0006251335144042969
ell 311, elapsed: 0.000637054443359375
ell 310, elapsed: 0.0004069805145263672
ell 309, elapsed: 0.00049591064453125
ell 308, elapsed: 0.00040793418884277344
ell 307, elapsed: 0.0005080699920654297
ell 306, elapsed: 0.00040793418884277344
ell 305, elapsed: 0.00048613548278808594
ell 304, elapsed: 0.00040602684020996094
ell 303, elapsed: 0.00048804283142089844
ell 302, elapsed: 0.00040602684020996094
ell 301, elapsed: 0.0004990100860595703
ell 300, elapsed: 0.00048089027404785156
ell 299, elapsed: 0.0005638599395751953
ell 298, elapsed: 0.00042819976806640625
ell 297, elapsed: 0.000514984130859375
ell 296, elapsed: 0.0004239082336425781
ell 295, elapsed: 0.0005168914794921875
ell 294, elapsed: 0.00042700767517089844
ell 293, elapsed: 0.0005099773406982422
ell 292, elapsed: 0.0004229545593261719
ell 291, elapsed: 0.0005300045013427734
ell 290, elapsed: 0.00042700767517089844
ell 289, elapsed: 0.000514984130859375
ell 288, elapsed: 0.00042510032653808594
ell 287, elapsed: 0.0005249977111816406
ell 286, elapsed: 0.000431060791015625
ell 285, elapsed: 0.0005209445953369141
ell 284, elapsed: 0.0004551410675048828
ell 283, elapsed: 0.0005128383636474609
ell 282, elapsed: 0.0004260540008544922
ell 281, elapsed: 0.0005090236663818359
ell 280, elapsed: 0.0004279613494873047
ell 279, elapsed: 0.0005159378051757812
ell 278, elapsed: 0.00042891502380371094
ell 277, elapsed: 0.0005128383636474609
ell 276, elapsed: 0.00043582916259765625
ell 275, elapsed: 0.0005171298980712891
ell 274, elapsed: 0.00042319297790527344
ell 273, elapsed: 0.0005118846893310547
ell 272, elapsed: 0.0004260540008544922
ell 271, elapsed: 0.0005159378051757812
ell 270, elapsed: 0.0004298686981201172
ell 269, elapsed: 0.0005190372467041016
ell 268, elapsed: 0.0004439353942871094
ell 267, elapsed: 0.0004990100860595703
ell 266, elapsed: 0.00040793418884277344
ell 265, elapsed: 0.000492095947265625
ell 264, elapsed: 0.0004119873046875
ell 263, elapsed: 0.0004999637603759766
ell 262, elapsed: 0.0004119873046875
ell 261, elapsed: 0.0005099773406982422
ell 260, elapsed: 0.0004279613494873047
ell 259, elapsed: 0.0005171298980712891
ell 258, elapsed: 0.00041985511779785156
ell 257, elapsed: 0.0005137920379638672
ell 256, elapsed: 0.0004229545593261719
ell 255, elapsed: 0.0006959438323974609
ell 254, elapsed: 0.0004801750183105469
ell 253, elapsed: 0.000720977783203125
ell 252, elapsed: 0.0004949569702148438
ell 251, elapsed: 0.0006718635559082031
ell 250, elapsed: 0.0006158351898193359
ell 249, elapsed: 0.0005869865417480469
ell 248, elapsed: 0.0005068778991699219
ell 247, elapsed: 0.0006268024444580078
ell 246, elapsed: 0.00042891502380371094
ell 245, elapsed: 0.0004961490631103516
ell 244, elapsed: 0.0005500316619873047
ell 243, elapsed: 0.0007708072662353516
ell 242, elapsed: 0.0006480216979980469
ell 241, elapsed: 0.0007038116455078125
ell 240, elapsed: 0.0005178451538085938
ell 239, elapsed: 0.0004761219024658203
ell 238, elapsed: 0.0003960132598876953
ell 237, elapsed: 0.00048089027404785156
ell 236, elapsed: 0.0005209445953369141
ell 235, elapsed: 0.0007410049438476562
ell 234, elapsed: 0.00055694580078125
ell 233, elapsed: 0.0006198883056640625
ell 232, elapsed: 0.0004019737243652344
ell 231, elapsed: 0.0004830360412597656
ell 230, elapsed: 0.00040793418884277344
ell 229, elapsed: 0.00048613548278808594
ell 228, elapsed: 0.00051116943359375
ell 227, elapsed: 0.0007221698760986328
ell 226, elapsed: 0.0004589557647705078
ell 225, elapsed: 0.0006000995635986328
ell 224, elapsed: 0.0006310939788818359
ell 223, elapsed: 0.0007429122924804688
ell 222, elapsed: 0.0005099773406982422
ell 221, elapsed: 0.0004849433898925781
ell 220, elapsed: 0.0004000663757324219
ell 219, elapsed: 0.0004978179931640625
ell 218, elapsed: 0.0005099773406982422
ell 217, elapsed: 0.0007379055023193359
ell 216, elapsed: 0.0005159378051757812
ell 215, elapsed: 0.0007500648498535156
ell 214, elapsed: 0.0006330013275146484
ell 213, elapsed: 0.0005919933319091797
ell 212, elapsed: 0.00039696693420410156
ell 211, elapsed: 0.0004839897155761719
ell 210, elapsed: 0.0005660057067871094
ell 209, elapsed: 0.000743865966796875
ell 208, elapsed: 0.0005509853363037109
ell 207, elapsed: 0.0006868839263916016
ell 206, elapsed: 0.0006439685821533203
ell 205, elapsed: 0.0007569789886474609
ell 204, elapsed: 0.0006399154663085938
ell 203, elapsed: 0.0007698535919189453
ell 202, elapsed: 0.0006310939788818359
ell 201, elapsed: 0.0005772113800048828
ell 200, elapsed: 0.0005669593811035156
ell 199, elapsed: 0.0007300376892089844
ell 198, elapsed: 0.0005381107330322266
ell 197, elapsed: 0.0006809234619140625
ell 196, elapsed: 0.0006489753723144531
ell 195, elapsed: 0.0007641315460205078
ell 194, elapsed: 0.0006301403045654297
ell 193, elapsed: 0.0007538795471191406
ell 192, elapsed: 0.0006198883056640625
ell 191, elapsed: 0.0007359981536865234
ell 190, elapsed: 0.0005478858947753906
ell 189, elapsed: 0.0005009174346923828
ell 188, elapsed: 0.00041794776916503906
ell 187, elapsed: 0.0006380081176757812
ell 186, elapsed: 0.0005199909210205078
ell 185, elapsed: 0.0004971027374267578
ell 184, elapsed: 0.00041413307189941406
ell 183, elapsed: 0.002604961395263672
ell 182, elapsed: 0.0004169940948486328
ell 181, elapsed: 0.0006139278411865234
ell 180, elapsed: 0.0004858970642089844
ell 179, elapsed: 0.00067901611328125
ell 178, elapsed: 0.00045800209045410156
ell 177, elapsed: 0.0006320476531982422
ell 176, elapsed: 0.0005979537963867188
ell 175, elapsed: 0.0005741119384765625
ell 174, elapsed: 0.0004909038543701172
ell 173, elapsed: 0.0008411407470703125
ell 172, elapsed: 0.0005829334259033203
ell 171, elapsed: 0.0007498264312744141
ell 170, elapsed: 0.0006260871887207031
ell 169, elapsed: 0.0007328987121582031
ell 168, elapsed: 0.000698089599609375
ell 167, elapsed: 0.0007450580596923828
ell 166, elapsed: 0.00049591064453125
ell 165, elapsed: 0.0006620883941650391
ell 164, elapsed: 0.0006210803985595703
ell 163, elapsed: 0.000743865966796875
ell 162, elapsed: 0.0007059574127197266
ell 161, elapsed: 0.0007350444793701172
ell 160, elapsed: 0.0004940032958984375
ell 159, elapsed: 0.0006489753723144531
ell 158, elapsed: 0.0006279945373535156
ell 157, elapsed: 0.0007269382476806641
ell 156, elapsed: 0.0007169246673583984
ell 155, elapsed: 0.0006890296936035156
ell 154, elapsed: 0.0006229877471923828
ell 153, elapsed: 0.0007219314575195312
ell 152, elapsed: 0.0005619525909423828
ell 151, elapsed: 0.0007481575012207031
ell 150, elapsed: 0.0006339550018310547
ell 149, elapsed: 0.00074005126953125
ell 148, elapsed: 0.0006251335144042969
ell 147, elapsed: 0.0007338523864746094
ell 146, elapsed: 0.0006289482116699219
ell 145, elapsed: 0.0007810592651367188
ell 144, elapsed: 0.0004961490631103516
ell 143, elapsed: 0.0006189346313476562
ell 142, elapsed: 0.0005009174346923828
ell 141, elapsed: 0.0006539821624755859
ell 140, elapsed: 0.0006241798400878906
ell 139, elapsed: 0.0007572174072265625
ell 138, elapsed: 0.0004680156707763672
ell 137, elapsed: 0.0006160736083984375
ell 136, elapsed: 0.0006229877471923828
ell 135, elapsed: 0.0005769729614257812
ell 134, elapsed: 0.00048804283142089844
ell 133, elapsed: 0.0007729530334472656
ell 132, elapsed: 0.0005991458892822266
ell 131, elapsed: 0.0007419586181640625
ell 130, elapsed: 0.0006380081176757812
ell 129, elapsed: 0.0007278919219970703
ell 128, elapsed: 0.00047278404235839844
ell 127, elapsed: 0.0005059242248535156
ell 126, elapsed: 0.0005359649658203125
ell 125, elapsed: 0.0007331371307373047
ell 124, elapsed: 0.0005259513854980469
ell 123, elapsed: 0.0006849765777587891
ell 122, elapsed: 0.0006260871887207031
ell 121, elapsed: 0.0007700920104980469
ell 120, elapsed: 0.0006251335144042969
ell 119, elapsed: 0.0007281303405761719
ell 118, elapsed: 0.0006201267242431641
ell 117, elapsed: 0.0007998943328857422
ell 116, elapsed: 0.0005309581756591797
ell 115, elapsed: 0.0007309913635253906
ell 114, elapsed: 0.0005490779876708984
ell 113, elapsed: 0.0007581710815429688
ell 112, elapsed: 0.0006399154663085938
ell 111, elapsed: 0.0007550716400146484
ell 110, elapsed: 0.0006659030914306641
ell 109, elapsed: 0.0007598400115966797
ell 108, elapsed: 0.00055694580078125
ell 107, elapsed: 0.0007491111755371094
ell 106, elapsed: 0.0006389617919921875
ell 105, elapsed: 0.0006160736083984375
ell 104, elapsed: 0.0006208419799804688
ell 103, elapsed: 0.0007948875427246094
ell 102, elapsed: 0.0006129741668701172
ell 101, elapsed: 0.0006010532379150391
ell 100, elapsed: 0.00040912628173828125
ell 99, elapsed: 0.00049591064453125
ell 98, elapsed: 0.00043010711669921875
ell 97, elapsed: 0.0006279945373535156
ell 96, elapsed: 0.0006089210510253906
ell 95, elapsed: 0.0007488727569580078
ell 94, elapsed: 0.0006051063537597656
ell 93, elapsed: 0.0007379055023193359
ell 92, elapsed: 0.0006389617919921875
ell 91, elapsed: 0.0007541179656982422
ell 90, elapsed: 0.0006270408630371094
ell 89, elapsed: 0.0007500648498535156
ell 88, elapsed: 0.0006229877471923828
ell 87, elapsed: 0.0007679462432861328
ell 86, elapsed: 0.0005240440368652344
ell 85, elapsed: 0.0004980564117431641
ell 84, elapsed: 0.0004799365997314453
ell 83, elapsed: 0.0007538795471191406
ell 82, elapsed: 0.00043702125549316406
ell 81, elapsed: 0.0005710124969482422
ell 80, elapsed: 0.0005600452423095703
ell 79, elapsed: 0.0006480216979980469
ell 78, elapsed: 0.0006351470947265625
ell 77, elapsed: 0.0006451606750488281
ell 76, elapsed: 0.00039196014404296875
ell 75, elapsed: 0.00046896934509277344
ell 74, elapsed: 0.0003910064697265625
ell 73, elapsed: 0.0005040168762207031
ell 72, elapsed: 0.0005559921264648438
ell 71, elapsed: 0.0007700920104980469
ell 70, elapsed: 0.0006430149078369141
ell 69, elapsed: 0.0007688999176025391
ell 68, elapsed: 0.0006392002105712891
ell 67, elapsed: 0.000682830810546875
ell 66, elapsed: 0.00039696693420410156
ell 65, elapsed: 0.0004830360412597656
ell 64, elapsed: 0.0004019737243652344
ell 63, elapsed: 0.0006508827209472656
ell 62, elapsed: 0.0005898475646972656
ell 61, elapsed: 0.0008499622344970703
ell 60, elapsed: 0.0005638599395751953
ell 59, elapsed: 0.0005700588226318359
ell 58, elapsed: 0.00046896934509277344
ell 57, elapsed: 0.0005731582641601562
ell 56, elapsed: 0.00047397613525390625
ell 55, elapsed: 0.0005800724029541016
ell 54, elapsed: 0.0004630088806152344
ell 53, elapsed: 0.0005381107330322266
ell 52, elapsed: 0.00043702125549316406
ell 51, elapsed: 0.0005259513854980469
ell 50, elapsed: 0.00043892860412597656
ell 49, elapsed: 0.0005290508270263672
ell 48, elapsed: 0.00043582916259765625
ell 47, elapsed: 0.0005290508270263672
ell 46, elapsed: 0.00045013427734375
ell 45, elapsed: 0.0005269050598144531
ell 44, elapsed: 0.0004391670227050781
ell 43, elapsed: 0.0005288124084472656
ell 42, elapsed: 0.0004420280456542969
ell 41, elapsed: 0.0005400180816650391
ell 40, elapsed: 0.0004379749298095703
ell 39, elapsed: 0.0005240440368652344
ell 38, elapsed: 0.0005679130554199219
ell 37, elapsed: 0.0006589889526367188
ell 36, elapsed: 0.000576019287109375
ell 35, elapsed: 0.0007541179656982422
ell 34, elapsed: 0.00047588348388671875
ell 33, elapsed: 0.0004839897155761719
ell 32, elapsed: 0.0008928775787353516
ell 31, elapsed: 0.0005578994750976562
ell 30, elapsed: 0.00044083595275878906
ell 29, elapsed: 0.0005509853363037109
ell 28, elapsed: 0.0004448890686035156
ell 27, elapsed: 0.0005412101745605469
ell 26, elapsed: 0.0004458427429199219
ell 25, elapsed: 0.0010221004486083984
ell 24, elapsed: 0.00043892860412597656
ell 23, elapsed: 0.0005309581756591797
ell 22, elapsed: 0.0004410743713378906
ell 21, elapsed: 0.0005309581756591797
ell 20, elapsed: 0.0004420280456542969
ell 19, elapsed: 0.0005278587341308594
ell 18, elapsed: 0.0009019374847412109
ell 17, elapsed: 0.0005359649658203125
ell 16, elapsed: 0.0005209445953369141
ell 15, elapsed: 0.0006220340728759766
ell 14, elapsed: 0.0005710124969482422
ell 13, elapsed: 0.000553131103515625
ell 12, elapsed: 0.0009109973907470703
ell 11, elapsed: 0.0005400180816650391
ell 10, elapsed: 0.0004379749298095703
ell 9, elapsed: 0.0005419254302978516
ell 8, elapsed: 0.0004401206970214844
ell 7, elapsed: 0.0005309581756591797
ell 6, elapsed: 0.0004429817199707031
ell 5, elapsed: 0.0005428791046142578
ell 4, elapsed: 0.0004379749298095703
ell 3, elapsed: 0.0005331039428710938
ell 2, elapsed: 0.00049591064453125
ell 1, elapsed: 0.0007619857788085938
ell 0, elapsed: 0.00048613548278808594
  0.700335 seconds (41.19 k allocations: 2.939 MiB)
elapsed: 0.0006601810455322266
step:          0.070771 sec (0 allocations: 0 byte, 0.0% gc time)
swapping:      0.000921 sec (0 allocations: 0 byte, 0.0% gc time)
calc_Mellell!: 0.012291 sec (0 allocations: 0 byte, 0.0% gc time)
  t0 :  0.002593 sec (0 allocations: 0 byte, 0.0% gc time)
  tm2 : 0.110184 sec (0 allocations: 0 byte, 0.0% gc time)
  tm2s: 0.00223 sec (0 allocations: 0 byte, 0.0% gc time)
  tm4 : 0.282331 sec (0 allocations: 0 byte, 0.0% gc time)
  tp2 : 0.0 sec (0 allocations: 0 byte, 0.0% gc time)
  tp2s: 0.0 sec (0 allocations: 0 byte, 0.0% gc time)
  tp4 : 0.0 sec (0 allocations: 0 byte, 0.0% gc time)
calc_wtdll!:   0.417787 sec (9.87 k allocations: 1.043 MB, 0.0% gc time)
calc_wljj!:    0.04256 sec (689 allocations: 10.766 KB, 0.0% gc time)
mult_prefac!:  0.0 sec (0 allocations: 0 byte, 0.0% gc time)
convert:       0.0 sec (0 allocations: 0 byte, 0.0% gc time)
write:         0.065339 sec (0 allocations: 0 byte, 0.0% gc time)
test_rand_2f1: 0.0 sec (0 allocations: 0 byte, 0.0% gc time)
Closing outfile out/Ml21-cache.bin...   0.027925 seconds
  0.000434 seconds (52 allocations: 28.297 KiB)
make_phi():   0.002887 seconds (8.20 k allocations: 238.016 KiB)
  0.185825 seconds (146.69 k allocations: 3.629 MiB)
tskip:       0.00133 sec (0 allocations: 0 byte, 0.0% gc time)
tread:       0.023815 sec (19 allocations: 10.688 KB, 0.0% gc time)
tmultphi:    0.015215 sec (0 allocations: 0 byte, 0.0% gc time)
tbrfft:      0.044878 sec (9.592 k allocations: 449.625 KB, 0.0% gc time)
tmultprefac: 0.038075 sec (0 allocations: 0 byte, 0.0% gc time)
toutfunc:    0.060536 sec (129.905 k allocations: 2.421 MB, 0.0% gc time)
Testing R=1.0 ... passed
Calculating fmax: 
  dlrec    = 4
  dlrecRg1 = -4
  q=1.1, R=0.9:	  0.552431 seconds (116.47 k allocations: 15.614 MiB)

  0.552699 seconds (116.50 k allocations: 15.647 MiB)
ℓ = 1202
Δℓ = 4
ΔℓRg1 = -4
N = 1600
q = 1.1
kmin = 1.0e-5
kmax = 100000.00000000004
χ0 = 0.023029999999999995
RR = RR.tsv
ℓmax = ℓmax.bin
f21 = f21.bin
kmin = 1.0e-5
kmax = 100000.0
dlrec    = 4
dlrecRg1 = -4
Output size: 5741568 bytes = 0.005347251892089844 GiB
Output size: 51264 bytes = 4.774332046508789e-5 GiB
Reading 'out/F21EllCache'...   0.001412 seconds (267 allocations: 84.656 KiB)
ellmax: 1202
lmaxcache: 1202
fell[:,1,1] = Complex{Float64}[1.3482014726274674e-57 - 3.302141236118086e-73im, 1.357860004724329e-57 - 3.3257978169518355e-73im]
ell 1202, elapsed: 2.4080276489257812e-5
ell 1201, elapsed: 0.0006690025329589844
ell 1200, elapsed: 0.0006220340728759766
ell 1199, elapsed: 0.0006120204925537109
ell 1198, elapsed: 0.0006289482116699219
ell 1002, elapsed: 0.011055946350097656
ell 1001, elapsed: 0.0006690025329589844
ell 1000, elapsed: 0.0005559921264648438
ell 999, elapsed: 0.0005619525909423828
ell 998, elapsed: 0.0005459785461425781
ell 902, elapsed: 0.005860090255737305
ell 901, elapsed: 0.0005891323089599609
ell 900, elapsed: 0.0017299652099609375
ell 899, elapsed: 0.0005590915679931641
ell 898, elapsed: 0.0005500316619873047
ell 802, elapsed: 0.005961894989013672
ell 801, elapsed: 0.0005919933319091797
ell 800, elapsed: 0.0005691051483154297
ell 799, elapsed: 0.0005578994750976562
ell 798, elapsed: 0.0005669593811035156
ell 702, elapsed: 0.0057621002197265625
ell 701, elapsed: 0.0005879402160644531
ell 700, elapsed: 0.0005528926849365234
ell 699, elapsed: 0.0005490779876708984
ell 698, elapsed: 0.0006899833679199219
ell 602, elapsed: 0.0063860416412353516
ell 601, elapsed: 0.0005857944488525391
ell 600, elapsed: 0.0006928443908691406
ell 599, elapsed: 0.0005638599395751953
ell 598, elapsed: 0.0005559921264648438
ell 502, elapsed: 0.0060808658599853516
ell 501, elapsed: 0.0006539821624755859
ell 500, elapsed: 0.001405954360961914
ell 499, elapsed: 0.0005590915679931641
ell 498, elapsed: 0.0014801025390625
ell 402, elapsed: 0.006574153900146484
ell 401, elapsed: 0.0006048679351806641
ell 400, elapsed: 0.0005741119384765625
ell 399, elapsed: 0.0005829334259033203
ell 398, elapsed: 0.0005500316619873047
ell 302, elapsed: 0.0058400630950927734
ell 301, elapsed: 0.0005319118499755859
ell 300, elapsed: 0.000576019287109375
ell 299, elapsed: 0.0005459785461425781
ell 298, elapsed: 0.0005450248718261719
ell 202, elapsed: 0.005853176116943359
ell 201, elapsed: 0.0005738735198974609
ell 200, elapsed: 0.0005609989166259766
ell 199, elapsed: 0.0005471706390380859
ell 198, elapsed: 0.0005440711975097656
ell 152, elapsed: 0.003103971481323242
ell 151, elapsed: 0.0003750324249267578
ell 150, elapsed: 0.0003459453582763672
ell 149, elapsed: 0.0004799365997314453
ell 148, elapsed: 0.00045108795166015625
ell 127, elapsed: 0.001547098159790039
ell 126, elapsed: 0.00035691261291503906
ell 125, elapsed: 0.0004677772521972656
ell 124, elapsed: 0.0005459785461425781
ell 123, elapsed: 0.0005471706390380859
ell 114, elapsed: 0.000993967056274414
ell 113, elapsed: 0.0005478858947753906
ell 112, elapsed: 0.0005481243133544922
ell 111, elapsed: 0.0005450248718261719
ell 110, elapsed: 0.0005440711975097656
ell 102, elapsed: 0.0013301372528076172
ell 101, elapsed: 0.0005540847778320312
ell 100, elapsed: 0.0005800724029541016
ell 99, elapsed: 0.0005469322204589844
ell 98, elapsed: 0.0005450248718261719
ell 97, elapsed: 0.0006160736083984375
ell 96, elapsed: 0.0007550716400146484
ell 95, elapsed: 0.0006151199340820312
ell 94, elapsed: 0.0007898807525634766
ell 93, elapsed: 0.0006148815155029297
ell 92, elapsed: 0.0007250308990478516
ell 91, elapsed: 0.0006110668182373047
ell 90, elapsed: 0.0007269382476806641
ell 89, elapsed: 0.0006101131439208984
ell 88, elapsed: 0.00074005126953125
ell 87, elapsed: 0.0006060600280761719
ell 86, elapsed: 0.0007219314575195312
ell 85, elapsed: 0.0006070137023925781
ell 84, elapsed: 0.0007150173187255859
ell 83, elapsed: 0.0006270408630371094
ell 82, elapsed: 0.001293182373046875
ell 81, elapsed: 0.0006110668182373047
ell 80, elapsed: 0.0007240772247314453
ell 79, elapsed: 0.0006070137023925781
ell 78, elapsed: 0.0007488727569580078
ell 77, elapsed: 0.0006129741668701172
ell 76, elapsed: 0.0007200241088867188
ell 75, elapsed: 0.0006110668182373047
ell 74, elapsed: 0.0007159709930419922
ell 73, elapsed: 0.0006101131439208984
ell 72, elapsed: 0.0007178783416748047
ell 71, elapsed: 0.0006120204925537109
ell 70, elapsed: 0.0007200241088867188
ell 69, elapsed: 0.0006201267242431641
ell 68, elapsed: 0.0007200241088867188
ell 67, elapsed: 0.0006349086761474609
ell 66, elapsed: 0.0007231235504150391
ell 65, elapsed: 0.0006089210510253906
ell 64, elapsed: 0.0007150173187255859
ell 63, elapsed: 0.0006110668182373047
ell 62, elapsed: 0.0007190704345703125
ell 61, elapsed: 0.0006279945373535156
ell 60, elapsed: 0.0007281303405761719
ell 59, elapsed: 0.0006120204925537109
ell 58, elapsed: 0.0007262229919433594
ell 57, elapsed: 0.0006151199340820312
ell 56, elapsed: 0.0007581710815429688
ell 55, elapsed: 0.0006129741668701172
ell 54, elapsed: 0.0007259845733642578
ell 53, elapsed: 0.0006091594696044922
ell 52, elapsed: 0.0007259845733642578
ell 51, elapsed: 0.0006139278411865234
ell 50, elapsed: 0.0007369518280029297
ell 49, elapsed: 0.0006189346313476562
ell 48, elapsed: 0.0007221698760986328
ell 47, elapsed: 0.0006160736083984375
ell 46, elapsed: 0.0007281303405761719
ell 45, elapsed: 0.0006480216979980469
ell 44, elapsed: 0.0007250308990478516
ell 43, elapsed: 0.00061798095703125
ell 42, elapsed: 0.000720977783203125
ell 41, elapsed: 0.0006120204925537109
ell 40, elapsed: 0.0007300376892089844
ell 39, elapsed: 0.0006339550018310547
ell 38, elapsed: 0.0007359981536865234
ell 37, elapsed: 0.0006148815155029297
ell 36, elapsed: 0.0007200241088867188
ell 35, elapsed: 0.0006191730499267578
ell 34, elapsed: 0.0007491111755371094
ell 33, elapsed: 0.0006158351898193359
ell 32, elapsed: 0.00072479248046875
ell 31, elapsed: 0.0006139278411865234
ell 30, elapsed: 0.0007269382476806641
ell 29, elapsed: 0.0006151199340820312
ell 28, elapsed: 0.0007479190826416016
ell 27, elapsed: 0.0006139278411865234
ell 26, elapsed: 0.0007219314575195312
ell 25, elapsed: 0.0006148815155029297
ell 24, elapsed: 0.0007369518280029297
ell 23, elapsed: 0.000637054443359375
ell 22, elapsed: 0.0007269382476806641
ell 21, elapsed: 0.0006139278411865234
ell 20, elapsed: 0.0007231235504150391
ell 19, elapsed: 0.0006158351898193359
ell 18, elapsed: 0.0007379055023193359
ell 17, elapsed: 0.0006358623504638672
ell 16, elapsed: 0.0007259845733642578
ell 15, elapsed: 0.0006151199340820312
ell 14, elapsed: 0.0007340908050537109
ell 13, elapsed: 0.0006160736083984375
ell 12, elapsed: 0.0007410049438476562
ell 11, elapsed: 0.0006160736083984375
ell 10, elapsed: 0.0007259845733642578
ell 9, elapsed: 0.0006239414215087891
ell 8, elapsed: 0.0007278919219970703
ell 7, elapsed: 0.0005781650543212891
ell 6, elapsed: 0.0007569789886474609
ell 5, elapsed: 0.0006189346313476562
ell 4, elapsed: 0.0007240772247314453
ell 3, elapsed: 0.0006167888641357422
ell 2, elapsed: 0.0007269382476806641
ell 1, elapsed: 0.0006167888641357422
ell 0, elapsed: 0.0007259845733642578
  0.175646 seconds (10.83 k allocations: 697.938 KiB)
elapsed: 0.0007739067077636719
step:          0.068618 sec (0 allocations: 0 byte, 0.0% gc time)
swapping:      0.000695 sec (0 allocations: 0 byte, 0.0% gc time)
calc_Mellell!: 0.002265 sec (0 allocations: 0 byte, 0.0% gc time)
  t0 :  0.000521 sec (0 allocations: 0 byte, 0.0% gc time)
  tm2 : 0.020431 sec (0 allocations: 0 byte, 0.0% gc time)
  tm2s: 0.0005 sec (0 allocations: 0 byte, 0.0% gc time)
  tm4 : 0.053454 sec (0 allocations: 0 byte, 0.0% gc time)
  tp2 : 0.0 sec (0 allocations: 0 byte, 0.0% gc time)
  tp2s: 0.0 sec (0 allocations: 0 byte, 0.0% gc time)
  tp4 : 0.0 sec (0 allocations: 0 byte, 0.0% gc time)
calc_wtdll!:   0.07563 sec (1.344 k allocations: 147.0 KB, 0.0% gc time)
calc_wljj!:    0.006293 sec (6 allocations: 96 byte, 0.0% gc time)
mult_prefac!:  0.0 sec (0 allocations: 0 byte, 0.0% gc time)
convert:       0.0 sec (0 allocations: 0 byte, 0.0% gc time)
write:         0.007058 sec (0 allocations: 0 byte, 0.0% gc time)
test_rand_2f1: 0.0 sec (0 allocations: 0 byte, 0.0% gc time)
Closing outfile out/Ml21-cache.bin...   0.004695 seconds
  0.000262 seconds (52 allocations: 28.297 KiB)
make_phi():   0.002926 seconds (8.20 k allocations: 238.016 KiB)
  0.018593 seconds (12.10 k allocations: 322.000 KiB)
tskip:       2.2e-5 sec (0 allocations: 0 byte, 0.0% gc time)
tread:       0.002532 sec (19 allocations: 2.172 KB, 0.0% gc time)
tmultphi:    0.001418 sec (0 allocations: 0 byte, 0.0% gc time)
tbrfft:      0.004237 sec (896 allocations: 42.0 KB, 0.0% gc time)
tmultprefac: 0.003763 sec (0 allocations: 0 byte, 0.0% gc time)
toutfunc:    0.006584 sec (10.528 k allocations: 206.5 KB, 0.0% gc time)
Testing R=0.9 ... passed
Calculating fmax: 
  dlrec    = 4
  dlrecRg1 = -4
  q=1.1, R=0.8:	  0.372496 seconds (113.61 k allocations: 15.166 MiB)

  0.372804 seconds (113.65 k allocations: 15.200 MiB)
ℓ = 1202
Δℓ = 4
ΔℓRg1 = -4
N = 1600
q = 1.1
kmin = 1.0e-5
kmax = 100000.00000000004
χ0 = 0.023029999999999995
RR = RR.tsv
ℓmax = ℓmax.bin
f21 = f21.bin
kmin = 1.0e-5
kmax = 100000.0
dlrec    = 4
dlrecRg1 = -4
Output size: 5741568 bytes = 0.005347251892089844 GiB
Output size: 51264 bytes = 4.774332046508789e-5 GiB
Reading 'out/F21EllCache'...   0.001153 seconds (267 allocations: 84.656 KiB)
ellmax: 1202
lmaxcache: 1202
fell[:,1,1] = Complex{Float64}[7.519068145690986e-120 - 1.8416405474382574e-135im, 7.541664537386155e-120 - 1.847175067190611e-135im]
ell 1202, elapsed: 2.288818359375e-5
ell 1201, elapsed: 0.0006670951843261719
ell 1200, elapsed: 0.0006198883056640625
ell 1199, elapsed: 0.0006349086761474609
ell 1198, elapsed: 0.0006129741668701172
ell 1002, elapsed: 0.010832071304321289
ell 1001, elapsed: 0.0006008148193359375
ell 1000, elapsed: 0.0005619525909423828
ell 999, elapsed: 0.0005519390106201172
ell 998, elapsed: 0.0005509853363037109
ell 902, elapsed: 0.005754947662353516
ell 901, elapsed: 0.0005609989166259766
ell 900, elapsed: 0.0005681514739990234
ell 899, elapsed: 0.0005550384521484375
ell 898, elapsed: 0.0005481243133544922
ell 802, elapsed: 0.005834102630615234
ell 801, elapsed: 0.0005509853363037109
ell 800, elapsed: 0.0005590915679931641
ell 799, elapsed: 0.0005619525909423828
ell 798, elapsed: 0.0005500316619873047
ell 702, elapsed: 0.0057790279388427734
ell 701, elapsed: 0.0005991458892822266
ell 700, elapsed: 0.0005650520324707031
ell 699, elapsed: 0.0005629062652587891
ell 698, elapsed: 0.00055694580078125
ell 602, elapsed: 0.005877971649169922
ell 601, elapsed: 0.0005860328674316406
ell 600, elapsed: 0.00055694580078125
ell 599, elapsed: 0.0005600452423095703
ell 598, elapsed: 0.0005519390106201172
ell 502, elapsed: 0.0057909488677978516
ell 501, elapsed: 0.0006008148193359375
ell 500, elapsed: 0.0005679130554199219
ell 499, elapsed: 0.0005700588226318359
ell 498, elapsed: 0.0005559921264648438
ell 402, elapsed: 0.0058820247650146484
ell 401, elapsed: 0.0005919933319091797
ell 400, elapsed: 0.0005619525909423828
ell 399, elapsed: 0.00055694580078125
ell 398, elapsed: 0.0005769729614257812
ell 302, elapsed: 0.005893230438232422
ell 301, elapsed: 0.0007340908050537109
ell 300, elapsed: 0.0006918907165527344
ell 299, elapsed: 0.0006549358367919922
ell 298, elapsed: 0.0005688667297363281
ell 202, elapsed: 0.00606989860534668
ell 201, elapsed: 0.0007879734039306641
ell 200, elapsed: 0.00067901611328125
ell 199, elapsed: 0.0006091594696044922
ell 198, elapsed: 0.0005578994750976562
ell 152, elapsed: 0.003325939178466797
ell 151, elapsed: 0.0005838871002197266
ell 150, elapsed: 0.0005490779876708984
ell 149, elapsed: 0.0008690357208251953
ell 148, elapsed: 0.0006339550018310547
ell 127, elapsed: 0.002012014389038086
ell 126, elapsed: 0.0005910396575927734
ell 125, elapsed: 0.0007572174072265625
ell 124, elapsed: 0.0006830692291259766
ell 123, elapsed: 0.0007200241088867188
ell 114, elapsed: 0.0012879371643066406
ell 113, elapsed: 0.0005650520324707031
ell 112, elapsed: 0.0005469322204589844
ell 111, elapsed: 0.0005490779876708984
ell 110, elapsed: 0.0005540847778320312
ell 102, elapsed: 0.001322031021118164
ell 101, elapsed: 0.0006401538848876953
ell 100, elapsed: 0.0005490779876708984
ell 99, elapsed: 0.0005490779876708984
ell 98, elapsed: 0.0005538463592529297
ell 97, elapsed: 0.0006279945373535156
ell 96, elapsed: 0.0007488727569580078
ell 95, elapsed: 0.0006430149078369141
ell 94, elapsed: 0.0007309913635253906
ell 93, elapsed: 0.0006248950958251953
ell 92, elapsed: 0.0007388591766357422
ell 91, elapsed: 0.0006148815155029297
ell 90, elapsed: 0.0007658004760742188
ell 89, elapsed: 0.0006129741668701172
ell 88, elapsed: 0.0007340908050537109
ell 87, elapsed: 0.0006139278411865234
ell 86, elapsed: 0.0007259845733642578
ell 85, elapsed: 0.0006189346313476562
ell 84, elapsed: 0.0007529258728027344
ell 83, elapsed: 0.0006129741668701172
ell 82, elapsed: 0.0007390975952148438
ell 81, elapsed: 0.0006339550018310547
ell 80, elapsed: 0.0007548332214355469
ell 79, elapsed: 0.0007448196411132812
ell 78, elapsed: 0.0007390975952148438
ell 77, elapsed: 0.0006248950958251953
ell 76, elapsed: 0.0007410049438476562
ell 75, elapsed: 0.0006220340728759766
ell 74, elapsed: 0.0007419586181640625
ell 73, elapsed: 0.0007669925689697266
ell 72, elapsed: 0.0007588863372802734
ell 71, elapsed: 0.0006170272827148438
ell 70, elapsed: 0.00074005126953125
ell 69, elapsed: 0.0006268024444580078
ell 68, elapsed: 0.0008800029754638672
ell 67, elapsed: 0.000640869140625
ell 66, elapsed: 0.0007290840148925781
ell 65, elapsed: 0.0006158351898193359
ell 64, elapsed: 0.00074005126953125
ell 63, elapsed: 0.0007600784301757812
ell 62, elapsed: 0.0007579326629638672
ell 61, elapsed: 0.0006220340728759766
ell 60, elapsed: 0.0007381439208984375
ell 59, elapsed: 0.0006289482116699219
ell 58, elapsed: 0.0007548332214355469
ell 57, elapsed: 0.00061798095703125
ell 56, elapsed: 0.000743865966796875
ell 55, elapsed: 0.0006158351898193359
ell 54, elapsed: 0.0007350444793701172
ell 53, elapsed: 0.0006151199340820312
ell 52, elapsed: 0.0007450580596923828
ell 51, elapsed: 0.0006210803985595703
ell 50, elapsed: 0.0007278919219970703
ell 49, elapsed: 0.0006258487701416016
ell 48, elapsed: 0.0007379055023193359
ell 47, elapsed: 0.0006120204925537109
ell 46, elapsed: 0.0007381439208984375
ell 45, elapsed: 0.00061798095703125
ell 44, elapsed: 0.0007350444793701172
ell 43, elapsed: 0.0006239414215087891
ell 42, elapsed: 0.0007319450378417969
ell 41, elapsed: 0.0006449222564697266
ell 40, elapsed: 0.0007278919219970703
ell 39, elapsed: 0.00061798095703125
ell 38, elapsed: 0.0007488727569580078
ell 37, elapsed: 0.0006170272827148438
ell 36, elapsed: 0.0007600784301757812
ell 35, elapsed: 0.0006201267242431641
ell 34, elapsed: 0.0007369518280029297
ell 33, elapsed: 0.0006248950958251953
ell 32, elapsed: 0.0007421970367431641
ell 31, elapsed: 0.00061798095703125
ell 30, elapsed: 0.0007770061492919922
ell 29, elapsed: 0.0006189346313476562
ell 28, elapsed: 0.0007479190826416016
ell 27, elapsed: 0.00061798095703125
ell 26, elapsed: 0.00074005126953125
ell 25, elapsed: 0.000759124755859375
ell 24, elapsed: 0.0007569789886474609
ell 23, elapsed: 0.00061798095703125
ell 22, elapsed: 0.0007469654083251953
ell 21, elapsed: 0.0006158351898193359
ell 20, elapsed: 0.0007460117340087891
ell 19, elapsed: 0.0007548332214355469
ell 18, elapsed: 0.00074005126953125
ell 17, elapsed: 0.0006301403045654297
ell 16, elapsed: 0.0007331371307373047
ell 15, elapsed: 0.0006289482116699219
ell 14, elapsed: 0.0008909702301025391
ell 13, elapsed: 0.0006239414215087891
[...]
ell 789, elapsed: 0.0008170604705810547
ell 788, elapsed: 0.0008158683776855469
ell 782, elapsed: 0.0015740394592285156
ell 781, elapsed: 0.0008249282836914062
ell 780, elapsed: 0.0008230209350585938
ell 779, elapsed: 0.0008070468902587891
ell 778, elapsed: 0.0008380413055419922
ell 772, elapsed: 0.0016019344329833984
ell 771, elapsed: 0.0008680820465087891
ell 770, elapsed: 0.0008640289306640625
ell 769, elapsed: 0.0008339881896972656
ell 768, elapsed: 0.0008411407470703125
ell 762, elapsed: 0.0015490055084228516
ell 761, elapsed: 0.0008289813995361328
ell 760, elapsed: 0.0008149147033691406
ell 759, elapsed: 0.0008628368377685547
ell 758, elapsed: 0.001065969467163086
ell 752, elapsed: 0.00150299072265625
ell 751, elapsed: 0.0007319450378417969
ell 750, elapsed: 0.0007388591766357422
ell 749, elapsed: 0.0007250308990478516
ell 748, elapsed: 0.0007319450378417969
ell 742, elapsed: 0.0013930797576904297
ell 741, elapsed: 0.0007240772247314453
ell 740, elapsed: 0.0007178783416748047
ell 739, elapsed: 0.0007719993591308594
ell 738, elapsed: 0.0008299350738525391
ell 732, elapsed: 0.0015349388122558594
ell 731, elapsed: 0.0008289813995361328
ell 730, elapsed: 0.0008060932159423828
ell 729, elapsed: 0.0008440017700195312
ell 728, elapsed: 0.0007951259613037109
ell 722, elapsed: 0.0015621185302734375
ell 721, elapsed: 0.0008170604705810547
ell 720, elapsed: 0.0010340213775634766
ell 719, elapsed: 0.0008208751678466797
ell 718, elapsed: 0.0008308887481689453
ell 712, elapsed: 0.001605987548828125
ell 711, elapsed: 0.0008361339569091797
ell 710, elapsed: 0.0008280277252197266
ell 709, elapsed: 0.0008358955383300781
ell 708, elapsed: 0.000823974609375
ell 702, elapsed: 0.0015289783477783203
ell 701, elapsed: 0.0008199214935302734
ell 700, elapsed: 0.0008161067962646484
ell 699, elapsed: 0.0008149147033691406
ell 698, elapsed: 0.0009059906005859375
ell 692, elapsed: 0.0018498897552490234
ell 691, elapsed: 0.0007832050323486328
ell 690, elapsed: 0.0008318424224853516
ell 689, elapsed: 0.0008161067962646484
ell 688, elapsed: 0.0008177757263183594
ell 682, elapsed: 0.001550912857055664
ell 681, elapsed: 0.0008318424224853516
ell 680, elapsed: 0.000843048095703125
ell 679, elapsed: 0.0008459091186523438
ell 678, elapsed: 0.0008459091186523438
ell 672, elapsed: 0.0016109943389892578
ell 671, elapsed: 0.0008311271667480469
ell 670, elapsed: 0.0008330345153808594
ell 669, elapsed: 0.0008189678192138672
ell 668, elapsed: 0.0008230209350585938
ell 662, elapsed: 0.0015101432800292969
ell 661, elapsed: 0.0008130073547363281
ell 660, elapsed: 0.0008380413055419922
ell 659, elapsed: 0.0008299350738525391
ell 658, elapsed: 0.0008180141448974609
ell 652, elapsed: 0.0015587806701660156
ell 651, elapsed: 0.0008089542388916016
ell 650, elapsed: 0.0008549690246582031
ell 649, elapsed: 0.0008018016815185547
ell 648, elapsed: 0.0008041858673095703
ell 642, elapsed: 0.001522064208984375
ell 641, elapsed: 0.0008118152618408203
ell 640, elapsed: 0.0008139610290527344
ell 639, elapsed: 0.0008120536804199219
ell 638, elapsed: 0.0008330345153808594
ell 632, elapsed: 0.0015819072723388672
ell 631, elapsed: 0.000804901123046875
ell 630, elapsed: 0.0007920265197753906
ell 629, elapsed: 0.0008280277252197266
ell 628, elapsed: 0.001116037368774414
ell 622, elapsed: 0.001603841781616211
ell 621, elapsed: 0.0008511543273925781
ell 620, elapsed: 0.000865936279296875
ell 619, elapsed: 0.0008471012115478516
ell 618, elapsed: 0.0008559226989746094
ell 612, elapsed: 0.001634836196899414
ell 611, elapsed: 0.0011439323425292969
ell 610, elapsed: 0.0011980533599853516
ell 609, elapsed: 0.0008451938629150391
ell 608, elapsed: 0.0008931159973144531
ell 602, elapsed: 0.0017099380493164062
ell 601, elapsed: 0.0007870197296142578
ell 600, elapsed: 0.0007929801940917969
ell 599, elapsed: 0.0008020401000976562
ell 598, elapsed: 0.0008070468902587891
ell 592, elapsed: 0.0015130043029785156
ell 591, elapsed: 0.0008270740509033203
ell 590, elapsed: 0.001049041748046875
ell 589, elapsed: 0.0008041858673095703
ell 588, elapsed: 0.0007970333099365234
ell 582, elapsed: 0.0017459392547607422
ell 581, elapsed: 0.0008268356323242188
ell 580, elapsed: 0.0009639263153076172
ell 579, elapsed: 0.000782012939453125
ell 578, elapsed: 0.0009369850158691406
ell 572, elapsed: 0.0016529560089111328
ell 571, elapsed: 0.0007920265197753906
ell 570, elapsed: 0.0009310245513916016
ell 569, elapsed: 0.0008001327514648438
ell 568, elapsed: 0.0011639595031738281
ell 562, elapsed: 0.0015330314636230469
ell 561, elapsed: 0.0008189678192138672
ell 560, elapsed: 0.0008208751678466797
ell 559, elapsed: 0.0007960796356201172
ell 558, elapsed: 0.0008268356323242188
ell 552, elapsed: 0.0014841556549072266
ell 551, elapsed: 0.0008311271667480469
ell 550, elapsed: 0.0007908344268798828
ell 549, elapsed: 0.0007939338684082031
ell 548, elapsed: 0.0008101463317871094
ell 542, elapsed: 0.0015411376953125
ell 541, elapsed: 0.0007939338684082031
ell 540, elapsed: 0.0008080005645751953
ell 539, elapsed: 0.0007998943328857422
ell 538, elapsed: 0.0008640289306640625
ell 532, elapsed: 0.0018301010131835938
ell 531, elapsed: 0.0007960796356201172
ell 530, elapsed: 0.0008330345153808594
ell 529, elapsed: 0.000843048095703125
ell 528, elapsed: 0.0011949539184570312
ell 522, elapsed: 0.002093076705932617
ell 521, elapsed: 0.0012431144714355469
ell 520, elapsed: 0.0008740425109863281
ell 519, elapsed: 0.0008342266082763672
ell 518, elapsed: 0.000827789306640625
ell 512, elapsed: 0.0015799999237060547
ell 511, elapsed: 0.0008349418640136719
ell 510, elapsed: 0.0008280277252197266
ell 509, elapsed: 0.0008318424224853516
ell 508, elapsed: 0.0008871555328369141
ell 502, elapsed: 0.001580953598022461
ell 501, elapsed: 0.0011239051818847656
ell 500, elapsed: 0.0008859634399414062
ell 499, elapsed: 0.0008368492126464844
ell 498, elapsed: 0.0008418560028076172
ell 492, elapsed: 0.0021240711212158203
ell 491, elapsed: 0.0007979869842529297
ell 490, elapsed: 0.001127004623413086
ell 489, elapsed: 0.0008399486541748047
ell 488, elapsed: 0.0008449554443359375
ell 482, elapsed: 0.001934051513671875
ell 481, elapsed: 0.00080108642578125
ell 480, elapsed: 0.0008471012115478516
ell 479, elapsed: 0.0008590221405029297
ell 478, elapsed: 0.0008490085601806641
ell 472, elapsed: 0.0018310546875
ell 471, elapsed: 0.0008962154388427734
ell 470, elapsed: 0.0008690357208251953
ell 469, elapsed: 0.0008649826049804688
ell 468, elapsed: 0.0008671283721923828
ell 462, elapsed: 0.002240896224975586
ell 461, elapsed: 0.0009369850158691406
ell 460, elapsed: 0.0012772083282470703
ell 459, elapsed: 0.0009598731994628906
ell 458, elapsed: 0.0012500286102294922
ell 452, elapsed: 0.002031087875366211
ell 451, elapsed: 0.0009338855743408203
ell 450, elapsed: 0.0015568733215332031
ell 449, elapsed: 0.0010039806365966797
ell 448, elapsed: 0.0013189315795898438
ell 442, elapsed: 0.002129077911376953
ell 441, elapsed: 0.0009119510650634766
ell 440, elapsed: 0.0012500286102294922
ell 439, elapsed: 0.0008878707885742188
ell 438, elapsed: 0.0012590885162353516
ell 432, elapsed: 0.002095937728881836
ell 431, elapsed: 0.0009028911590576172
ell 430, elapsed: 0.0012879371643066406
ell 429, elapsed: 0.0009579658508300781
ell 428, elapsed: 0.0012829303741455078
ell 422, elapsed: 0.002093076705932617
ell 421, elapsed: 0.0012919902801513672
ell 420, elapsed: 0.0013110637664794922
ell 419, elapsed: 0.0009310245513916016
ell 418, elapsed: 0.0012850761413574219
ell 412, elapsed: 0.0020949840545654297
ell 411, elapsed: 0.0009112358093261719
ell 410, elapsed: 0.0012950897216796875
ell 409, elapsed: 0.001302957534790039
ell 408, elapsed: 0.0013289451599121094
ell 402, elapsed: 0.002379179000854492
ell 401, elapsed: 0.0009129047393798828
ell 400, elapsed: 0.0012619495391845703
ell 399, elapsed: 0.0009219646453857422
ell 398, elapsed: 0.001299142837524414
ell 392, elapsed: 0.0021240711212158203
ell 391, elapsed: 0.0009419918060302734
ell 390, elapsed: 0.0014100074768066406
ell 389, elapsed: 0.0009319782257080078
ell 388, elapsed: 0.001271963119506836
ell 382, elapsed: 0.002092123031616211
ell 381, elapsed: 0.0009000301361083984
ell 380, elapsed: 0.0012729167938232422
ell 379, elapsed: 0.0008988380432128906
ell 378, elapsed: 0.0012600421905517578
ell 372, elapsed: 0.002045869827270508
ell 371, elapsed: 0.0012841224670410156
ell 370, elapsed: 0.0012850761413574219
ell 369, elapsed: 0.0009300708770751953
ell 368, elapsed: 0.0012900829315185547
ell 362, elapsed: 0.0020799636840820312
ell 361, elapsed: 0.001280069351196289
ell 360, elapsed: 0.0012669563293457031
ell 359, elapsed: 0.0009388923645019531
ell 358, elapsed: 0.0012772083282470703
ell 352, elapsed: 0.0020940303802490234
ell 351, elapsed: 0.0012869834899902344
ell 350, elapsed: 0.0010619163513183594
ell 349, elapsed: 0.0006549358367919922
ell 348, elapsed: 0.0006489753723144531
ell 342, elapsed: 0.0011680126190185547
ell 341, elapsed: 0.0006339550018310547
ell 340, elapsed: 0.0006527900695800781
ell 339, elapsed: 0.0006339550018310547
ell 338, elapsed: 0.0006430149078369141
ell 332, elapsed: 0.001146078109741211
ell 331, elapsed: 0.0012650489807128906
ell 330, elapsed: 0.0009138584136962891
ell 329, elapsed: 0.001280069351196289
ell 328, elapsed: 0.0009179115295410156
ell 322, elapsed: 0.0020830631256103516
ell 321, elapsed: 0.000885009765625
ell 320, elapsed: 0.0012710094451904297
ell 319, elapsed: 0.0009160041809082031
ell 318, elapsed: 0.001275777816772461
ell 312, elapsed: 0.0020329952239990234
ell 311, elapsed: 0.0012700557708740234
ell 310, elapsed: 0.0009291172027587891
ell 309, elapsed: 0.0012788772583007812
ell 308, elapsed: 0.0009248256683349609
ell 302, elapsed: 0.0021271705627441406
ell 301, elapsed: 0.0009369850158691406
ell 300, elapsed: 0.0012650489807128906
ell 299, elapsed: 0.0012760162353515625
ell 298, elapsed: 0.0008749961853027344
ell 292, elapsed: 0.0016438961029052734
ell 291, elapsed: 0.000843048095703125
ell 290, elapsed: 0.0008459091186523438
ell 289, elapsed: 0.0008530616760253906
ell 288, elapsed: 0.0008440017700195312
ell 282, elapsed: 0.0016260147094726562
ell 281, elapsed: 0.0008389949798583984
ell 280, elapsed: 0.0008599758148193359
ell 279, elapsed: 0.0008428096771240234
ell 278, elapsed: 0.0008428096771240234
ell 272, elapsed: 0.0018398761749267578
ell 271, elapsed: 0.00080108642578125
ell 270, elapsed: 0.0008461475372314453
ell 269, elapsed: 0.0008399486541748047
ell 268, elapsed: 0.0008471012115478516
ell 262, elapsed: 0.001653909683227539
ell 261, elapsed: 0.0008521080017089844
ell 260, elapsed: 0.0008499622344970703
ell 259, elapsed: 0.0008461475372314453
ell 258, elapsed: 0.0008611679077148438
ell 252, elapsed: 0.001641988754272461
ell 251, elapsed: 0.0008580684661865234
ell 250, elapsed: 0.0009009838104248047
ell 249, elapsed: 0.0008521080017089844
ell 248, elapsed: 0.0008499622344970703
ell 242, elapsed: 0.001631021499633789
ell 241, elapsed: 0.0008740425109863281
ell 240, elapsed: 0.00084686279296875
ell 239, elapsed: 0.0008318424224853516
ell 238, elapsed: 0.0008511543273925781
ell 232, elapsed: 0.0016520023345947266
ell 231, elapsed: 0.0011210441589355469
ell 230, elapsed: 0.00086212158203125
ell 229, elapsed: 0.000865936279296875
ell 228, elapsed: 0.00084686279296875
ell 222, elapsed: 0.0016210079193115234
ell 221, elapsed: 0.0008490085601806641
ell 220, elapsed: 0.0008599758148193359
ell 219, elapsed: 0.0008411407470703125
ell 218, elapsed: 0.0011200904846191406
ell 212, elapsed: 0.0019168853759765625
ell 211, elapsed: 0.0011398792266845703
ell 210, elapsed: 0.0008480548858642578
ell 209, elapsed: 0.0008587837219238281
ell 208, elapsed: 0.0008738040924072266
ell 202, elapsed: 0.0019381046295166016
ell 201, elapsed: 0.0007910728454589844
ell 200, elapsed: 0.0008161067962646484
ell 199, elapsed: 0.0008440017700195312
ell 198, elapsed: 0.0008208751678466797
ell 192, elapsed: 0.0019221305847167969
ell 191, elapsed: 0.0009019374847412109
ell 190, elapsed: 0.0008540153503417969
ell 189, elapsed: 0.0008549690246582031
ell 188, elapsed: 0.0008311271667480469
ell 182, elapsed: 0.0015988349914550781
ell 181, elapsed: 0.0008280277252197266
ell 180, elapsed: 0.0008299350738525391
ell 179, elapsed: 0.0008180141448974609
ell 178, elapsed: 0.0008389949798583984
ell 172, elapsed: 0.0015940666198730469
ell 171, elapsed: 0.0008261203765869141
ell 170, elapsed: 0.0008368492126464844
ell 169, elapsed: 0.0008389949798583984
ell 168, elapsed: 0.0008249282836914062
ell 162, elapsed: 0.0015990734100341797
ell 161, elapsed: 0.0008280277252197266
ell 160, elapsed: 0.0008389949798583984
ell 159, elapsed: 0.0008220672607421875
ell 158, elapsed: 0.0008189678192138672
ell 152, elapsed: 0.0017828941345214844
ell 151, elapsed: 0.0008220672607421875
ell 150, elapsed: 0.000823974609375
ell 149, elapsed: 0.000823974609375
ell 148, elapsed: 0.0008220672607421875
ell 142, elapsed: 0.0018129348754882812
ell 141, elapsed: 0.0007739067077636719
ell 140, elapsed: 0.0008139610290527344
ell 139, elapsed: 0.0008170604705810547
ell 138, elapsed: 0.0008389949798583984
ell 132, elapsed: 0.0015749931335449219
ell 131, elapsed: 0.000823974609375
ell 130, elapsed: 0.0008349418640136719
ell 129, elapsed: 0.0008242130279541016
ell 128, elapsed: 0.0008230209350585938
ell 122, elapsed: 0.0017809867858886719
ell 121, elapsed: 0.0008449554443359375
ell 120, elapsed: 0.0008330345153808594
ell 119, elapsed: 0.0008230209350585938
ell 118, elapsed: 0.0008318424224853516
ell 112, elapsed: 0.001644134521484375
ell 111, elapsed: 0.0008380413055419922
ell 110, elapsed: 0.0008330345153808594
ell 109, elapsed: 0.0008299350738525391
ell 108, elapsed: 0.0008449554443359375
ell 102, elapsed: 0.001750946044921875
ell 101, elapsed: 0.004261970520019531
ell 100, elapsed: 0.004500150680541992
ell 99, elapsed: 0.004378080368041992
ell 98, elapsed: 0.0045778751373291016
ell 92, elapsed: 0.0069620609283447266
ell 91, elapsed: 0.004624128341674805
ell 90, elapsed: 0.004673957824707031
ell 89, elapsed: 0.0046100616455078125
ell 88, elapsed: 0.0046770572662353516
ell 82, elapsed: 0.007493019104003906
ell 81, elapsed: 0.004659891128540039
ell 80, elapsed: 0.004718780517578125
ell 79, elapsed: 0.004991054534912109
ell 78, elapsed: 0.004511117935180664
ell 72, elapsed: 0.007637977600097656
ell 71, elapsed: 0.0040318965911865234
ell 70, elapsed: 0.004697084426879883
ell 69, elapsed: 0.004132986068725586
ell 68, elapsed: 0.003983020782470703
ell 62, elapsed: 0.006569862365722656
ell 61, elapsed: 0.003818988800048828
ell 60, elapsed: 0.004705905914306641
ell 59, elapsed: 0.004663944244384766
ell 58, elapsed: 0.004631996154785156
ell 52, elapsed: 0.007493019104003906
ell 51, elapsed: 0.004681825637817383
ell 50, elapsed: 0.0038220882415771484
ell 49, elapsed: 0.0045130252838134766
ell 48, elapsed: 0.004409074783325195
ell 42, elapsed: 0.005856990814208984
ell 41, elapsed: 0.004187107086181641
ell 40, elapsed: 0.0034530162811279297
ell 39, elapsed: 0.003782033920288086
ell 38, elapsed: 0.003946065902709961
ell 32, elapsed: 0.006520986557006836
ell 31, elapsed: 0.004576921463012695
ell 30, elapsed: 0.004625082015991211
ell 29, elapsed: 0.0047740936279296875
ell 28, elapsed: 0.0045430660247802734
ell 22, elapsed: 0.007399082183837891
ell 21, elapsed: 0.004683971405029297
ell 20, elapsed: 0.004658937454223633
ell 19, elapsed: 0.004570960998535156
ell 18, elapsed: 0.004456043243408203
ell 12, elapsed: 0.007382869720458984
ell 11, elapsed: 0.004706859588623047
ell 10, elapsed: 0.00477910041809082
ell 9, elapsed: 0.00466609001159668
ell 8, elapsed: 0.004534006118774414
  0.859085 seconds (66.75 k allocations: 12.139 MiB)
elapsed: 0.00563502311706543
step:          0.081959 sec (0 allocations: 0 byte, 0.0% gc time)
swapping:      0.0008 sec (0 allocations: 0 byte, 0.0% gc time)
calc_Mellell!: 0.038206 sec (0 allocations: 0 byte, 0.0% gc time)
  t0 :  0.010703 sec (0 allocations: 0 byte, 0.0% gc time)
  tm2 : 0.088121 sec (0 allocations: 0 byte, 0.0% gc time)
  tm2s: 0.009346 sec (0 allocations: 0 byte, 0.0% gc time)
  tm4 : 0.214481 sec (0 allocations: 0 byte, 0.0% gc time)
  tp2 : 0.0 sec (0 allocations: 0 byte, 0.0% gc time)
  tp2s: 0.0 sec (0 allocations: 0 byte, 0.0% gc time)
  tp4 : 0.0 sec (0 allocations: 0 byte, 0.0% gc time)
calc_wtdll!:   0.597581 sec (49.2 k allocations: 11.133 MB, 0.0% gc time)
calc_wljj!:    0.044055 sec (69 allocations: 1.078 KB, 0.0% gc time)
mult_prefac!:  0.0 sec (0 allocations: 0 byte, 0.0% gc time)
convert:       0.0 sec (0 allocations: 0 byte, 0.0% gc time)
write:         0.039839 sec (0 allocations: 0 byte, 0.0% gc time)
test_rand_2f1: 0.0 sec (0 allocations: 0 byte, 0.0% gc time)
Closing outfile out/MlCache/MlCache.bin...   0.000010 seconds
xi, l=0, nu=0:   0.414648 seconds (551.85 k allocations: 26.842 MiB, 3.26% gc time)
xi, l=0, nu=-2:  0.002377 seconds (144 allocations: 149.562 KiB)
Created 'out/xi.tsv'.
  q=1.1, R=0.6:	  0.732253 seconds (291.08 k allocations: 38.895 MiB, 1.60% gc time)
  q=1.1, R=0.7:	  0.840377 seconds (304.75 k allocations: 40.996 MiB, 1.04% gc time)
  q=1.1, R=0.8:	  0.881803 seconds (299.14 k allocations: 40.132 MiB, 0.76% gc time)
  q=1.1, R=0.9:	  0.980576 seconds (293.57 k allocations: 39.286 MiB, 0.68% gc time)
  q=1.1, R=0.998:	 20.838851 seconds (10.67 M allocations: 823.453 MiB, 0.22% gc time)
  q=1.1, R=1.0:	  0.004258 seconds (10.24 k allocations: 768.375 KiB)

ℓ = 1000
Δℓ = 4
ΔℓRg1 = -4
N = 4096
q = 1.1
kmin = 1.0e-5
kmax = 1000.0
χ0 = 0.001
RR = RR.tsv
ℓmax = ℓmax.bin
f21 = f21.bin
kmin = 1.0e-5
kmax = 1000.0
dlrec    = 4
dlrecRg1 = -4
Output size: 1573632 bytes = 0.0014655590057373047 GiB
Output size: 786816 bytes = 0.0007327795028686523 GiB
Reading 'out/F21EllCache'...   0.001390 seconds (268 allocations: 533.531 KiB)
ellmax: 1002
lmaxcache: 1000
fell[:,1,1] = Complex{Float64}[1.7262928128202118e-224 - 4.2281979352226944e-240im, 1.7282693092099662e-224 - 4.233038955177176e-240im]
ell 1002, elapsed: 2.4080276489257812e-5
ell 1001, elapsed: 0.0007250308990478516
ell 1000, elapsed: 0.0006899833679199219
ell 999, elapsed: 0.006744861602783203
ell 998, elapsed: 0.006767988204956055
ell 44, elapsed: 0.6229681968688965
ell 43, elapsed: 0.007179975509643555
ell 42, elapsed: 0.007762908935546875
ell 41, elapsed: 0.006965160369873047
ell 40, elapsed: 0.006976127624511719
  0.675042 seconds (4.55 k allocations: 320.031 KiB)
elapsed: 0.00789189338684082
step:          0.619245 sec (0 allocations: 0 byte, 0.0% gc time)
swapping:      0.000644 sec (0 allocations: 0 byte, 0.0% gc time)
calc_Mellell!: 0.001081 sec (0 allocations: 0 byte, 0.0% gc time)
  t0 :  0.000438 sec (0 allocations: 0 byte, 0.0% gc time)
  tm2 : 0.013054 sec (0 allocations: 0 byte, 0.0% gc time)
  tm2s: 0.000313 sec (0 allocations: 0 byte, 0.0% gc time)
  tm4 : 0.034592 sec (0 allocations: 0 byte, 0.0% gc time)
  tp2 : 0.0 sec (0 allocations: 0 byte, 0.0% gc time)
  tp2s: 0.0 sec (0 allocations: 0 byte, 0.0% gc time)
  tp4 : 0.0 sec (0 allocations: 0 byte, 0.0% gc time)
calc_wtdll!:   0.048634 sec (480 allocations: 52.5 KB, 0.0% gc time)
calc_wljj!:    0.001033 sec (1 allocations: 16 byte, 0.0% gc time)
mult_prefac!:  0.0 sec (0 allocations: 0 byte, 0.0% gc time)
convert:       0.0 sec (0 allocations: 0 byte, 0.0% gc time)
write:         0.001032 sec (0 allocations: 0 byte, 0.0% gc time)
test_rand_2f1: 0.0 sec (0 allocations: 0 byte, 0.0% gc time)
Closing outfile out/MlCache/MlCache.bin...   0.001076 seconds
  0.509487 seconds (54 allocations: 67.203 KiB)
make_phi():   0.010132 seconds (80 allocations: 276.297 KiB)
  0.003733 seconds (108 allocations: 5.812 KiB)
tskip:       1.0e-6 sec (0 allocations: 0 byte, 0.0% gc time)
tread:       0.000652 sec (19 allocations: 1.312 KB, 0.0% gc time)
tmultphi:    0.000352 sec (0 allocations: 0 byte, 0.0% gc time)
tbrfft:      0.001642 sec (96 allocations: 4.5 KB, 0.0% gc time)
tmultprefac: 0.001042 sec (0 allocations: 0 byte, 0.0% gc time)
toutfunc:    0.000144 sec (0 allocations: 0 byte, 0.0% gc time)
Created 'out/wl42_jj00.tsv'.
Created 'out/wl42_jj02.tsv'.
   Testing TwoFAST tests passed 
