Julia Version 1.4.0-DEV.564
Commit 1d8d9c1793 (2019-12-06 23:22 UTC)
Platform Info:
  OS: Linux (x86_64-linux-gnu)
  CPU: Intel(R) Xeon(R) Silver 4114 CPU @ 2.20GHz
  WORD_SIZE: 64
  LIBM: libopenlibm
  LLVM: libLLVM-8.0.1 (ORCJIT, skylake)

   Cloning default registries into `~/.julia`
   Cloning registry from "https://github.com/JuliaRegistries/General.git"
[?25l    Fetching: [>                                        ]  0.0 %    Fetching: [==============>                          ]  33.3 %    Fetching: [==================================>      ]  83.1 %[2K[?25h     Added registry `General` to `~/.julia/registries/General`
 Resolving package versions...
 Installed IncGammaBeta ───── v0.1.0
 Installed VersionParsing ─── v1.1.3
 Installed Conda ──────────── v1.3.0
 Installed Compat ─────────── v2.2.0
 Installed FFTW ───────────── v1.1.0
 Installed BinDeps ────────── v1.0.0
 Installed JSON ───────────── v0.21.0
 Installed TwoFAST ────────── v0.1.0
 Installed Reexport ───────── v0.2.0
 Installed AbstractFFTs ───── v0.5.0
 Installed SpecialFunctions ─ v0.8.0
 Installed AbstractAlgebra ── v0.7.1
 Installed URIParser ──────── v0.4.0
 Installed Parsers ────────── v0.3.10
 Installed BinaryProvider ─── v0.5.8
 Installed Nemo ───────────── v0.15.1
  Updating `~/.julia/environments/v1.4/Project.toml`
  [0dd23c3e] + TwoFAST v0.1.0
  Updating `~/.julia/environments/v1.4/Manifest.toml`
  [c3fe647b] + AbstractAlgebra v0.7.1
  [621f4979] + AbstractFFTs v0.5.0
  [9e28174c] + BinDeps v1.0.0
  [b99e7846] + BinaryProvider v0.5.8
  [34da2185] + Compat v2.2.0
  [8f4d0f93] + Conda v1.3.0
  [7a1cc6ca] + FFTW v1.1.0
  [5087d2c0] + IncGammaBeta v0.1.0
  [682c06a0] + JSON v0.21.0
  [2edaba10] + Nemo v0.15.1
  [69de0a69] + Parsers v0.3.10
  [189a3867] + Reexport v0.2.0
  [276daf66] + SpecialFunctions v0.8.0
  [0dd23c3e] + TwoFAST v0.1.0
  [30578b45] + URIParser v0.4.0
  [81def892] + VersionParsing v1.1.3
  [2a0f44e3] + Base64 
  [ade2ca70] + Dates 
  [8bb1440f] + DelimitedFiles 
  [8ba89e20] + Distributed 
  [b77e0a4c] + InteractiveUtils 
  [76f85450] + LibGit2 
  [8f399da3] + Libdl 
  [37e2e46d] + LinearAlgebra 
  [56ddb016] + Logging 
  [d6f4376e] + Markdown 
  [a63ad114] + Mmap 
  [44cfe95a] + Pkg 
  [de0858da] + Printf 
  [3fa0cd96] + REPL 
  [9a3f8284] + Random 
  [ea8e919c] + SHA 
  [9e88b42a] + Serialization 
  [1a1011a3] + SharedArrays 
  [6462fe0b] + Sockets 
  [2f01184e] + SparseArrays 
  [10745b16] + Statistics 
  [8dfed614] + Test 
  [cf7118a7] + UUIDs 
  [4ec0a83e] + Unicode 
  Building Conda ───────────→ `~/.julia/packages/Conda/kLXeC/deps/build.log`
  Building FFTW ────────────→ `~/.julia/packages/FFTW/loJ3F/deps/build.log`
  Building SpecialFunctions → `~/.julia/packages/SpecialFunctions/ne2iw/deps/build.log`
  Building Nemo ────────────→ `~/.julia/packages/Nemo/qzx0m/deps/build.log`
   Testing TwoFAST
 Resolving package versions...

gzip: stdin: not in gzip format
tar: Child returned status 1
tar: Error is not recoverable: exiting now
┌ Warning: failed to extract archive downloaded from https://github.com/kbarbary/Dierckx.jl.git
└ @ Pkg.Operations /workspace/srcdir/julia/usr/share/julia/stdlib/v1.4/Pkg/src/Operations.jl:481
   Cloning[?25l [39dd38d3-220a-591b-8e3c-4c3a8c710a94] Dierckx from https://github.com/kbarbary/Dierckx.jl.git
    Fetching: [>                                        ]  0.0 %[2K[?25h Installed Dierckx ─ v0.4.1
  Building Dierckx → `~/.julia/packages/Dierckx/9SY4A/deps/build.log`
Status `/tmp/jl_5s83rm/Manifest.toml`
  [c3fe647b] AbstractAlgebra v0.7.1
  [621f4979] AbstractFFTs v0.5.0
  [9e28174c] BinDeps v1.0.0
  [b99e7846] BinaryProvider v0.5.8
  [34da2185] Compat v2.2.0
  [8f4d0f93] Conda v1.3.0
  [39dd38d3] Dierckx v0.4.1
  [7a1cc6ca] FFTW v1.1.0
  [5087d2c0] IncGammaBeta v0.1.0
  [682c06a0] JSON v0.21.0
  [2edaba10] Nemo v0.15.1
  [69de0a69] Parsers v0.3.10
  [189a3867] Reexport v0.2.0
  [276daf66] SpecialFunctions v0.8.0
  [0dd23c3e] TwoFAST v0.1.0
  [30578b45] URIParser v0.4.0
  [81def892] VersionParsing v1.1.3
  [2a0f44e3] Base64  [`@stdlib/Base64`]
  [ade2ca70] Dates  [`@stdlib/Dates`]
  [8bb1440f] DelimitedFiles  [`@stdlib/DelimitedFiles`]
  [8ba89e20] Distributed  [`@stdlib/Distributed`]
  [b77e0a4c] InteractiveUtils  [`@stdlib/InteractiveUtils`]
  [76f85450] LibGit2  [`@stdlib/LibGit2`]
  [8f399da3] Libdl  [`@stdlib/Libdl`]
  [37e2e46d] LinearAlgebra  [`@stdlib/LinearAlgebra`]
  [56ddb016] Logging  [`@stdlib/Logging`]
  [d6f4376e] Markdown  [`@stdlib/Markdown`]
  [a63ad114] Mmap  [`@stdlib/Mmap`]
  [44cfe95a] Pkg  [`@stdlib/Pkg`]
  [de0858da] Printf  [`@stdlib/Printf`]
  [3fa0cd96] REPL  [`@stdlib/REPL`]
  [9a3f8284] Random  [`@stdlib/Random`]
  [ea8e919c] SHA  [`@stdlib/SHA`]
  [9e88b42a] Serialization  [`@stdlib/Serialization`]
  [1a1011a3] SharedArrays  [`@stdlib/SharedArrays`]
  [6462fe0b] Sockets  [`@stdlib/Sockets`]
  [2f01184e] SparseArrays  [`@stdlib/SparseArrays`]
  [10745b16] Statistics  [`@stdlib/Statistics`]
  [8dfed614] Test  [`@stdlib/Test`]
  [cf7118a7] UUIDs  [`@stdlib/UUIDs`]
  [4ec0a83e] Unicode  [`@stdlib/Unicode`]

Welcome to Nemo version 0.15.1

Nemo comes with absolutely no warranty whatsoever


Welcome to Nemo version 0.15.1

Nemo comes with absolutely no warranty whatsoever

Testing ξ(r), ℓ=0, ν=-1 ... passed
Testing ξ(r), ℓ=0, ν=0 ... passed
Testing ξ(r), ℓ=0, ν=1 ... passed
Testing ξ(r), ℓ=0, ν=2 ... passed
Testing ξ(r), ℓ=0, ν=3 ... passed
Testing ξ(r), ℓ=1, ν=0 ... passed
Testing ξ(r), ℓ=1, ν=1 ... passed
Testing ξ(r), ℓ=1, ν=2 ... passed
Testing ξ(r), ℓ=1, ν=3 ... passed
Testing ξ(r), ℓ=2, ν=-1 ... passed
Testing ξ(r), ℓ=2, ν=0 ... passed
Testing ξ(r), ℓ=2, ν=1 ... passed
Testing ξ(r), ℓ=2, ν=2 ... passed
Testing ξ(r), ℓ=2, ν=3 ... passed
Testing ξ(r), ℓ=3, ν=-1 ... passed
Testing ξ(r), ℓ=3, ν=0 ... passed
Testing ξ(r), ℓ=3, ν=1 ... passed
Testing ξ(r), ℓ=3, ν=2 ... passed
Testing ξ(r), ℓ=3, ν=3 ... passed
Testing ξ(r), ℓ=4, ν=-1 ... passed
Testing ξ(r), ℓ=4, ν=0 ... passed
Testing ξ(r), ℓ=4, ν=1 ... passed
Testing ξ(r), ℓ=4, ν=2 ... passed
Testing ξ(r), ℓ=4, ν=3 ... passed
Testing ξ(r) ... passed
Testing ξ′(r) ... passed
Testing ξ″(r) ... passed
Calculating fmax: 
  dlrec    = 4
  dlrecRg1 = -4
  q=1.1, R=1.1:	  4.940354 seconds (1.20 M allocations: 67.974 MiB, 1.38% gc time)

  4.984642 seconds (1.22 M allocations: 69.084 MiB, 1.37% gc time)
ℓ = 1202
Δℓ = 4
ΔℓRg1 = -4
N = 1600
q = 1.1
kmin = 1.0e-5
kmax = 100000.00000000004
χ0 = 0.023029999999999995
RR = RR.tsv
ℓmax = ℓmax.bin
f21 = f21.bin
kmin = 1.0e-5
kmax = 100000.0
dlrec    = 4
dlrecRg1 = -4
Output size: 5741568 bytes = 0.005347251892089844 GiB
Output size: 51264 bytes = 4.774332046508789e-5 GiB
Reading 'out/F21EllCache'...   0.588168 seconds (314.59 k allocations: 16.145 MiB)
ellmax: 1202
lmaxcache: 1202
fell[:,1,1] = Complex{Float64}[3.9583795592771634e-52 - 9.695233714158177e-68im, 3.990121772925759e-52 - 9.772979714843386e-68im]
ell 1202, elapsed: 0.00010704994201660156
ell 1201, elapsed: 2.1112148761749268
ell 1200, elapsed: 0.0005140304565429688
ell 1199, elapsed: 0.00047898292541503906
ell 1198, elapsed: 0.0004761219024658203
ell 1002, elapsed: 0.009480953216552734
ell 1001, elapsed: 0.0004889965057373047
ell 1000, elapsed: 0.00047206878662109375
ell 999, elapsed: 0.0004801750183105469
ell 998, elapsed: 0.00047397613525390625
ell 902, elapsed: 0.004851818084716797
ell 901, elapsed: 0.00051116943359375
ell 900, elapsed: 0.00047898292541503906
ell 899, elapsed: 0.0004761219024658203
ell 898, elapsed: 0.00047206878662109375
ell 802, elapsed: 0.0049610137939453125
ell 801, elapsed: 0.0005018711090087891
ell 800, elapsed: 0.0004868507385253906
ell 799, elapsed: 0.0004990100860595703
ell 798, elapsed: 0.0004799365997314453
ell 702, elapsed: 0.005014896392822266
ell 701, elapsed: 0.0005118846893310547
ell 700, elapsed: 0.0004971027374267578
ell 699, elapsed: 0.00047898292541503906
ell 698, elapsed: 0.0004711151123046875
ell 602, elapsed: 0.0050089359283447266
ell 601, elapsed: 0.0004928112030029297
ell 600, elapsed: 0.0004918575286865234
ell 599, elapsed: 0.00048804283142089844
ell 598, elapsed: 0.00046896934509277344
ell 502, elapsed: 0.004864931106567383
ell 501, elapsed: 0.0005359649658203125
ell 500, elapsed: 0.00048613548278808594
ell 499, elapsed: 0.00046706199645996094
ell 498, elapsed: 0.0004630088806152344
ell 402, elapsed: 0.005227088928222656
ell 401, elapsed: 0.0004820823669433594
ell 400, elapsed: 0.0004990100860595703
ell 399, elapsed: 0.00047588348388671875
ell 398, elapsed: 0.0004699230194091797
ell 302, elapsed: 0.0048940181732177734
ell 301, elapsed: 0.0005078315734863281
ell 300, elapsed: 0.0004749298095703125
ell 299, elapsed: 0.0004680156707763672
ell 298, elapsed: 0.0004918575286865234
ell 202, elapsed: 0.005020856857299805
ell 201, elapsed: 0.0004971027374267578
ell 200, elapsed: 0.0004711151123046875
ell 199, elapsed: 0.0004730224609375
ell 198, elapsed: 0.00047206878662109375
ell 152, elapsed: 0.002627134323120117
ell 151, elapsed: 0.0004830360412597656
ell 150, elapsed: 0.00047397613525390625
ell 149, elapsed: 0.0005450248718261719
ell 148, elapsed: 0.0005459785461425781
ell 127, elapsed: 0.0015511512756347656
ell 126, elapsed: 0.00048089027404785156
ell 125, elapsed: 0.0004761219024658203
ell 124, elapsed: 0.0004730224609375
ell 123, elapsed: 0.000492095947265625
ell 114, elapsed: 0.0009639263153076172
ell 113, elapsed: 0.0004999637603759766
ell 112, elapsed: 0.0004839897155761719
ell 111, elapsed: 0.00047707557678222656
ell 110, elapsed: 0.02336406707763672
ell 102, elapsed: 0.0010750293731689453
ell 101, elapsed: 0.00048279762268066406
ell 100, elapsed: 0.00048089027404785156
ell 99, elapsed: 0.0004680156707763672
ell 98, elapsed: 0.0004639625549316406
ell 97, elapsed: 0.0005958080291748047
ell 96, elapsed: 0.0007579326629638672
ell 95, elapsed: 0.0005199909210205078
ell 94, elapsed: 0.0006110668182373047
ell 93, elapsed: 0.0005249977111816406
ell 92, elapsed: 0.0005991458892822266
ell 91, elapsed: 0.000514984130859375
ell 90, elapsed: 0.0006191730499267578
ell 89, elapsed: 0.0005090236663818359
ell 88, elapsed: 0.0005919933319091797
ell 87, elapsed: 0.0005559921264648438
ell 86, elapsed: 0.0006070137023925781
ell 85, elapsed: 0.0005121231079101562
ell 84, elapsed: 0.0006570816040039062
ell 83, elapsed: 0.0005540847778320312
ell 82, elapsed: 0.0006039142608642578
ell 81, elapsed: 0.0005249977111816406
ell 80, elapsed: 0.0005970001220703125
ell 79, elapsed: 0.0005099773406982422
ell 78, elapsed: 0.0006229877471923828
ell 77, elapsed: 0.0005729198455810547
ell 76, elapsed: 0.0005950927734375
ell 75, elapsed: 0.0005769729614257812
ell 74, elapsed: 0.0005970001220703125
ell 73, elapsed: 0.0005109310150146484
ell 72, elapsed: 0.0007998943328857422
ell 71, elapsed: 0.0006411075592041016
ell 70, elapsed: 0.0007638931274414062
ell 69, elapsed: 0.0007441043853759766
ell 68, elapsed: 0.0008060932159423828
ell 67, elapsed: 0.0007038116455078125
ell 66, elapsed: 0.0007798671722412109
ell 65, elapsed: 0.0006921291351318359
ell 64, elapsed: 0.0008339881896972656
ell 63, elapsed: 0.0006999969482421875
ell 62, elapsed: 0.0007960796356201172
ell 61, elapsed: 0.0007259845733642578
ell 60, elapsed: 0.0008330345153808594
ell 59, elapsed: 0.0007288455963134766
ell 58, elapsed: 0.0007970333099365234
ell 57, elapsed: 0.0007021427154541016
ell 56, elapsed: 0.0008518695831298828
ell 55, elapsed: 0.0007238388061523438
ell 54, elapsed: 0.0007801055908203125
ell 53, elapsed: 0.0006978511810302734
ell 52, elapsed: 0.0007991790771484375
ell 51, elapsed: 0.0007190704345703125
ell 50, elapsed: 0.0007941722869873047
ell 49, elapsed: 0.0006988048553466797
ell 48, elapsed: 0.00080108642578125
ell 47, elapsed: 0.0007150173187255859
ell 46, elapsed: 0.0007839202880859375
ell 45, elapsed: 0.0007040500640869141
ell 44, elapsed: 0.0007920265197753906
ell 43, elapsed: 0.000701904296875
ell 42, elapsed: 0.000827789306640625
ell 41, elapsed: 0.0005211830139160156
ell 40, elapsed: 0.0006520748138427734
ell 39, elapsed: 0.0006010532379150391
ell 38, elapsed: 0.0006039142608642578
ell 37, elapsed: 0.0005130767822265625
ell 36, elapsed: 0.00061798095703125
ell 35, elapsed: 0.0005090236663818359
ell 34, elapsed: 0.0005970001220703125
ell 33, elapsed: 0.0005109310150146484
ell 32, elapsed: 0.0005960464477539062
ell 31, elapsed: 0.0005137920379638672
ell 30, elapsed: 0.0006020069122314453
ell 29, elapsed: 0.0005328655242919922
ell 28, elapsed: 0.0006051063537597656
ell 27, elapsed: 0.0005030632019042969
ell 26, elapsed: 0.0005888938903808594
ell 25, elapsed: 0.0005040168762207031
ell 24, elapsed: 0.0005810260772705078
ell 23, elapsed: 0.0005199909210205078
ell 22, elapsed: 0.0006029605865478516
ell 21, elapsed: 0.0005049705505371094
ell 20, elapsed: 0.0005981922149658203
ell 19, elapsed: 0.0005118846893310547
ell 18, elapsed: 0.0006110668182373047
ell 17, elapsed: 0.0005130767822265625
ell 16, elapsed: 0.0005879402160644531
ell 15, elapsed: 0.0005159378051757812
ell 14, elapsed: 0.0005960464477539062
ell 13, elapsed: 0.0005040168762207031
ell 12, elapsed: 0.0005929470062255859
ell 11, elapsed: 0.0005061626434326172
ell 10, elapsed: 0.0005991458892822266
ell 9, elapsed: 0.0006000995635986328
ell 8, elapsed: 0.0005919933319091797
ell 7, elapsed: 0.0005090236663818359
ell 6, elapsed: 0.0005998611450195312
ell 5, elapsed: 0.0005009174346923828
ell 4, elapsed: 0.0005939006805419922
ell 3, elapsed: 0.0005099773406982422
ell 2, elapsed: 0.0006158351898193359
ell 1, elapsed: 0.000514984130859375
ell 0, elapsed: 0.0005981922149658203
  3.016319 seconds (1.73 M allocations: 84.830 MiB, 1.58% gc time)
elapsed: 0.0006289482116699219
step:          0.715311 sec (402.839 k allocations: 20.301 MB, 0.0% gc time)
swapping:      0.000563 sec (0 allocations: 0 byte, 0.0% gc time)
calc_Mellell!: 0.542066 sec (296.625 k allocations: 14.967 MB, 4.55% gc time)
  t0 :  0.0 sec (0 allocations: 0 byte, 0.0% gc time)
  tm2 : 0.0 sec (0 allocations: 0 byte, 0.0% gc time)
  tm2s: 0.0 sec (0 allocations: 0 byte, 0.0% gc time)
  tm4 : 0.0 sec (0 allocations: 0 byte, 0.0% gc time)
  tp2 : 0.0 sec (0 allocations: 0 byte, 0.0% gc time)
  tp2s: 0.0 sec (0 allocations: 0 byte, 0.0% gc time)
  tp4 : 0.0 sec (0 allocations: 0 byte, 0.0% gc time)
calc_wtdll!:   0.976373 sec (526.041 k allocations: 26.383 MB, 0.0% gc time)
calc_wljj!:    0.003565 sec (6 allocations: 96 byte, 0.0% gc time)
mult_prefac!:  0.0 sec (0 allocations: 0 byte, 0.0% gc time)
convert:       0.0 sec (0 allocations: 0 byte, 0.0% gc time)
write:         0.00549 sec (0 allocations: 0 byte, 0.0% gc time)
test_rand_2f1: 0.0 sec (0 allocations: 0 byte, 0.0% gc time)
Closing outfile out/Ml21-cache.bin...   0.000111 seconds
  1.030816 seconds (8.65 k allocations: 420.781 KiB)
make_phi():   0.012887 seconds (8.20 k allocations: 238.016 KiB)
  0.206532 seconds (121.80 k allocations: 5.905 MiB)
tskip:       2.2e-5 sec (0 allocations: 0 byte, 0.0% gc time)
tread:       0.002727 sec (19 allocations: 2.172 KB, 0.0% gc time)
tmultphi:    0.040258 sec (26.067 k allocations: 1.34 MB, 0.0% gc time)
tbrfft:      0.004702 sec (896 allocations: 42.0 KB, 0.0% gc time)
tmultprefac: 0.002829 sec (0 allocations: 0 byte, 0.0% gc time)
toutfunc:    0.15593 sec (94.16 k allocations: 4.453 MB, 0.0% gc time)
Testing R=1.1 ... passed
Calculating fmax: 
  dlrec    = 4
  dlrecRg1 = -4
  q=1.1, R=1.0:	  0.001780 seconds (4.00 k allocations: 300.375 KiB)

  0.001973 seconds (4.04 k allocations: 334.734 KiB)
ℓ = 1202
Δℓ = 4
ΔℓRg1 = -4
N = 1600
q = 1.1
kmin = 1.0e-5
kmax = 100000.00000000004
χ0 = 0.023029999999999995
RR = RR.tsv
ℓmax = ℓmax.bin
f21 = f21.bin
kmin = 1.0e-5
kmax = 100000.0
dlrec    = 4
dlrecRg1 = -4
Output size: 61465536 bytes = 0.05724424123764038 GiB
Output size: 51264 bytes = 4.774332046508789e-5 GiB
Reading 'out/F21EllCache'...   0.001038 seconds (267 allocations: 84.656 KiB)
ellmax: 1202
lmaxcache: 1202
fell[:,1,1] = Complex{Float64}[809.6031528389767 - 1.9829558194077161e-13im, 0.0 + 0.0im]
ell 1202, elapsed: 2.4080276489257812e-5
ell 1201, elapsed: 0.015486001968383789
ell 1200, elapsed: 0.0003619194030761719
ell 1199, elapsed: 0.0005099773406982422
ell 1198, elapsed: 0.0005831718444824219
ell 1197, elapsed: 0.0005211830139160156
ell 1196, elapsed: 0.0004069805145263672
ell 1195, elapsed: 0.000492095947265625
ell 1194, elapsed: 0.00038695335388183594
ell 1193, elapsed: 0.0004849433898925781
ell 1192, elapsed: 0.0003960132598876953
ell 1191, elapsed: 0.0004849433898925781
ell 1190, elapsed: 0.00047707557678222656
ell 1189, elapsed: 0.0006189346313476562
ell 1188, elapsed: 0.0005698204040527344
ell 1187, elapsed: 0.0006279945373535156
ell 1186, elapsed: 0.0005049705505371094
ell 1185, elapsed: 0.0006308555603027344
ell 1184, elapsed: 0.0003941059112548828
ell 1183, elapsed: 0.00049591064453125
ell 1182, elapsed: 0.00039505958557128906
ell 1181, elapsed: 0.00048804283142089844
ell 1180, elapsed: 0.0005199909210205078
ell 1179, elapsed: 0.0006060600280761719
ell 1178, elapsed: 0.00038504600524902344
ell 1177, elapsed: 0.0004761219024658203
ell 1176, elapsed: 0.00038504600524902344
ell 1175, elapsed: 0.0007688999176025391
ell 1174, elapsed: 0.0005469322204589844
ell 1173, elapsed: 0.0005829334259033203
ell 1172, elapsed: 0.0003910064697265625
ell 1171, elapsed: 0.000476837158203125
ell 1170, elapsed: 0.0003859996795654297
ell 1169, elapsed: 0.0004818439483642578
ell 1168, elapsed: 0.0004818439483642578
ell 1167, elapsed: 0.0004799365997314453
ell 1166, elapsed: 0.000392913818359375
ell 1165, elapsed: 0.0004901885986328125
ell 1164, elapsed: 0.0005640983581542969
ell 1163, elapsed: 0.0006630420684814453
ell 1162, elapsed: 0.0003972053527832031
ell 1161, elapsed: 0.0004780292510986328
ell 1160, elapsed: 0.0004050731658935547
ell 1159, elapsed: 0.0004839897155761719
ell 1158, elapsed: 0.00039386749267578125
ell 1157, elapsed: 0.0004849433898925781
ell 1156, elapsed: 0.0004038810729980469
ell 1155, elapsed: 0.0004930496215820312
ell 1154, elapsed: 0.0004780292510986328
ell 1153, elapsed: 0.000637054443359375
ell 1152, elapsed: 0.0004010200500488281
ell 1151, elapsed: 0.0004680156707763672
ell 1150, elapsed: 0.0004050731658935547
ell 1149, elapsed: 0.0007379055023193359
ell 1148, elapsed: 0.0005259513854980469
ell 1147, elapsed: 0.0007369518280029297
ell 1146, elapsed: 0.00047278404235839844
ell 1145, elapsed: 0.0004811286926269531
ell 1144, elapsed: 0.0005121231079101562
ell 1143, elapsed: 0.0006051063537597656
ell 1142, elapsed: 0.0003838539123535156
ell 1141, elapsed: 0.0004730224609375
ell 1140, elapsed: 0.00039005279541015625
ell 1139, elapsed: 0.0006608963012695312
ell 1138, elapsed: 0.0004379749298095703
ell 1137, elapsed: 0.0005910396575927734
ell 1136, elapsed: 0.0004649162292480469
ell 1135, elapsed: 0.0004780292510986328
ell 1134, elapsed: 0.0003848075866699219
ell 1133, elapsed: 0.0005960464477539062
ell 1132, elapsed: 0.0005049705505371094
ell 1131, elapsed: 0.0005691051483154297
ell 1130, elapsed: 0.0005459785461425781
ell 1129, elapsed: 0.0007300376892089844
ell 1128, elapsed: 0.0006089210510253906
ell 1127, elapsed: 0.000698089599609375
ell 1126, elapsed: 0.0005819797515869141
ell 1125, elapsed: 0.0007278919219970703
ell 1124, elapsed: 0.0004818439483642578
ell 1123, elapsed: 0.0006170272827148438
ell 1122, elapsed: 0.00049591064453125
ell 1121, elapsed: 0.0006780624389648438
ell 1120, elapsed: 0.0005900859832763672
ell 1119, elapsed: 0.0007460117340087891
ell 1118, elapsed: 0.0004909038543701172
ell 1117, elapsed: 0.0006628036499023438
ell 1116, elapsed: 0.0004930496215820312
ell 1115, elapsed: 0.0004630088806152344
ell 1114, elapsed: 0.00037598609924316406
ell 1113, elapsed: 0.0006649494171142578
ell 1112, elapsed: 0.00046896934509277344
ell 1111, elapsed: 0.0006811618804931641
ell 1110, elapsed: 0.0005121231079101562
ell 1109, elapsed: 0.0004718303680419922
ell 1108, elapsed: 0.0003879070281982422
ell 1107, elapsed: 0.00047206878662109375
ell 1106, elapsed: 0.00038909912109375
ell 1105, elapsed: 0.00047588348388671875
ell 1104, elapsed: 0.0005550384521484375
ell 1103, elapsed: 0.0005471706390380859
ell 1102, elapsed: 0.00038313865661621094
ell 1101, elapsed: 0.00048089027404785156
ell 1100, elapsed: 0.00038886070251464844
ell 1099, elapsed: 0.0004658699035644531
ell 1098, elapsed: 0.0003848075866699219
ell 1097, elapsed: 0.00047397613525390625
ell 1096, elapsed: 0.0003979206085205078
ell 1095, elapsed: 0.0004799365997314453
ell 1094, elapsed: 0.0005199909210205078
ell 1093, elapsed: 0.0005941390991210938
ell 1092, elapsed: 0.0003871917724609375
ell 1091, elapsed: 0.00047397613525390625
ell 1090, elapsed: 0.0003879070281982422
ell 1089, elapsed: 0.00048804283142089844
ell 1088, elapsed: 0.0006949901580810547
ell 1087, elapsed: 0.0004761219024658203
ell 1086, elapsed: 0.00038814544677734375
ell 1085, elapsed: 0.00047397613525390625
ell 1084, elapsed: 0.00038695335388183594
ell 1083, elapsed: 0.0006561279296875
ell 1082, elapsed: 0.0004448890686035156
ell 1081, elapsed: 0.0005581378936767578
ell 1080, elapsed: 0.0005881786346435547
ell 1079, elapsed: 0.0007269382476806641
ell 1078, elapsed: 0.00061798095703125
ell 1077, elapsed: 0.0007240772247314453
ell 1076, elapsed: 0.0006170272827148438
ell 1075, elapsed: 0.0008502006530761719
ell 1074, elapsed: 0.0005648136138916016
ell 1073, elapsed: 0.0006918907165527344
ell 1072, elapsed: 0.0005640983581542969
ell 1071, elapsed: 0.0007159709930419922
ell 1070, elapsed: 0.0006270408630371094
ell 1069, elapsed: 0.0007088184356689453
ell 1068, elapsed: 0.00055694580078125
ell 1067, elapsed: 0.0005710124969482422
ell 1066, elapsed: 0.0003859996795654297
ell 1065, elapsed: 0.0005710124969482422
ell 1064, elapsed: 0.0006060600280761719
ell 1063, elapsed: 0.0008420944213867188
ell 1062, elapsed: 0.0005559921264648438
ell 1061, elapsed: 0.0005850791931152344
ell 1060, elapsed: 0.0004870891571044922
ell 1059, elapsed: 0.0007228851318359375
ell 1058, elapsed: 0.0005960464477539062
ell 1057, elapsed: 0.0008370876312255859
ell 1056, elapsed: 0.0005080699920654297
ell 1055, elapsed: 0.0006551742553710938
ell 1054, elapsed: 0.00044417381286621094
ell 1053, elapsed: 0.0006008148193359375
ell 1052, elapsed: 0.0005071163177490234
ell 1051, elapsed: 0.0007078647613525391
ell 1050, elapsed: 0.0004589557647705078
ell 1049, elapsed: 0.0005888938903808594
ell 1048, elapsed: 0.0005269050598144531
ell 1047, elapsed: 0.000614166259765625
ell 1046, elapsed: 0.0005249977111816406
ell 1045, elapsed: 0.00046706199645996094
ell 1044, elapsed: 0.0006721019744873047
ell 1043, elapsed: 0.0007078647613525391
ell 1042, elapsed: 0.0005609989166259766
ell 1041, elapsed: 0.0007231235504150391
ell 1040, elapsed: 0.0005338191986083984
ell 1039, elapsed: 0.0006990432739257812
ell 1038, elapsed: 0.000621795654296875
ell 1037, elapsed: 0.0006728172302246094
ell 1036, elapsed: 0.0006029605865478516
ell 1035, elapsed: 0.0007331371307373047
ell 1034, elapsed: 0.0006110668182373047
ell 1033, elapsed: 0.0006349086761474609
ell 1032, elapsed: 0.0007379055023193359
ell 1031, elapsed: 0.0007240772247314453
ell 1030, elapsed: 0.0004711151123046875
ell 1029, elapsed: 0.0005891323089599609
ell 1028, elapsed: 0.0006189346313476562
ell 1027, elapsed: 0.0008420944213867188
ell 1026, elapsed: 0.0006091594696044922
ell 1025, elapsed: 0.0006721019744873047
ell 1024, elapsed: 0.0005278587341308594
ell 1023, elapsed: 0.0007319450378417969
ell 1022, elapsed: 0.0005440711975097656
ell 1021, elapsed: 0.00046896934509277344
ell 1020, elapsed: 0.0005791187286376953
ell 1019, elapsed: 0.0006070137023925781
ell 1018, elapsed: 0.0004978179931640625
ell 1017, elapsed: 0.0005731582641601562
ell 1016, elapsed: 0.0003819465637207031
ell 1015, elapsed: 0.0004730224609375
ell 1014, elapsed: 0.0004889965057373047
ell 1013, elapsed: 0.0006959438323974609
ell 1012, elapsed: 0.0005311965942382812
ell 1011, elapsed: 0.0006999969482421875
ell 1010, elapsed: 0.0004360675811767578
ell 1009, elapsed: 0.0005998611450195312
ell 1008, elapsed: 0.0005831718444824219
ell 1007, elapsed: 0.0008289813995361328
ell 1006, elapsed: 0.0005800724029541016
ell 1005, elapsed: 0.0005347728729248047
ell 1004, elapsed: 0.0005340576171875
ell 1003, elapsed: 0.0007140636444091797
ell 1002, elapsed: 0.0006060600280761719
ell 1001, elapsed: 0.0008389949798583984
ell 1000, elapsed: 0.000431060791015625
ell 999, elapsed: 0.0006690025329589844
ell 998, elapsed: 0.0006029605865478516
ell 997, elapsed: 0.000537872314453125
ell 996, elapsed: 0.0005002021789550781
ell 995, elapsed: 0.0008349418640136719
ell 994, elapsed: 0.0006198883056640625
ell 993, elapsed: 0.0006451606750488281
ell 992, elapsed: 0.0004520416259765625
ell 991, elapsed: 0.0007588863372802734
ell 990, elapsed: 0.0006229877471923828
ell 989, elapsed: 0.0007710456848144531
ell 988, elapsed: 0.0004668235778808594
ell 987, elapsed: 0.0007350444793701172
ell 986, elapsed: 0.0005881786346435547
ell 985, elapsed: 0.0007131099700927734
ell 984, elapsed: 0.0004930496215820312
ell 983, elapsed: 0.0007920265197753906
ell 982, elapsed: 0.0005221366882324219
ell 981, elapsed: 0.0007240772247314453
ell 980, elapsed: 0.0006239414215087891
ell 979, elapsed: 0.0005631446838378906
ell 978, elapsed: 0.0005090236663818359
ell 977, elapsed: 0.0007390975952148438
ell 976, elapsed: 0.0005640983581542969
ell 975, elapsed: 0.0007259845733642578
ell 974, elapsed: 0.0005040168762207031
ell 973, elapsed: 0.0005540847778320312
ell 972, elapsed: 0.0005550384521484375
ell 971, elapsed: 0.0005838871002197266
ell 970, elapsed: 0.0003840923309326172
ell 969, elapsed: 0.0006468296051025391
ell 968, elapsed: 0.00045418739318847656
ell 967, elapsed: 0.0004749298095703125
ell 966, elapsed: 0.00037407875061035156
ell 965, elapsed: 0.0005729198455810547
ell 964, elapsed: 0.0005300045013427734
ell 963, elapsed: 0.0005819797515869141
ell 962, elapsed: 0.0005218982696533203
ell 961, elapsed: 0.0005700588226318359
ell 960, elapsed: 0.0004620552062988281
ell 959, elapsed: 0.0006320476531982422
ell 958, elapsed: 0.00038504600524902344
ell 957, elapsed: 0.00046706199645996094
ell 956, elapsed: 0.00043010711669921875
ell 955, elapsed: 0.0003809928894042969
ell 954, elapsed: 0.0004839897155761719
ell 953, elapsed: 0.0007529258728027344
ell 952, elapsed: 0.0006639957427978516
ell 951, elapsed: 0.0005099773406982422
ell 950, elapsed: 0.0005550384521484375
ell 949, elapsed: 0.0006358623504638672
ell 948, elapsed: 0.0005960464477539062
ell 947, elapsed: 0.0005660057067871094
ell 946, elapsed: 0.0002830028533935547
ell 945, elapsed: 0.0003390312194824219
ell 944, elapsed: 0.0002770423889160156
ell 943, elapsed: 0.00033402442932128906
ell 942, elapsed: 0.0002789497375488281
ell 941, elapsed: 0.00033402442932128906
ell 940, elapsed: 0.00031185150146484375
ell 939, elapsed: 0.0005838871002197266
ell 938, elapsed: 0.0006129741668701172
ell 937, elapsed: 0.0007290840148925781
ell 936, elapsed: 0.00044083595275878906
ell 935, elapsed: 0.0004749298095703125
ell 934, elapsed: 0.0004820823669433594
ell 933, elapsed: 0.0007510185241699219
ell 932, elapsed: 0.0005478858947753906
ell 931, elapsed: 0.0007390975952148438
ell 930, elapsed: 0.0005700588226318359
ell 929, elapsed: 0.0007150173187255859
ell 928, elapsed: 0.0005440711975097656
ell 927, elapsed: 0.0007369518280029297
ell 926, elapsed: 0.0006198883056640625
ell 925, elapsed: 0.0006639957427978516
ell 924, elapsed: 0.0005128383636474609
ell 923, elapsed: 0.000720977783203125
ell 922, elapsed: 0.0005190372467041016
ell 921, elapsed: 0.012690067291259766
ell 920, elapsed: 0.0004100799560546875
ell 919, elapsed: 0.000476837158203125
ell 918, elapsed: 0.0006129741668701172
ell 917, elapsed: 0.0005431175231933594
ell 916, elapsed: 0.00039196014404296875
ell 915, elapsed: 0.0004642009735107422
ell 914, elapsed: 0.0006289482116699219
ell 913, elapsed: 0.0005698204040527344
ell 912, elapsed: 0.00039505958557128906
ell 911, elapsed: 0.0004649162292480469
ell 910, elapsed: 0.0003910064697265625
ell 909, elapsed: 0.00047779083251953125
ell 908, elapsed: 0.00039315223693847656
ell 907, elapsed: 0.0004589557647705078
ell 906, elapsed: 0.0006690025329589844
ell 905, elapsed: 0.0004858970642089844
ell 904, elapsed: 0.0003941059112548828
ell 903, elapsed: 0.00046706199645996094
ell 902, elapsed: 0.00039196014404296875
ell 901, elapsed: 0.0004630088806152344
ell 900, elapsed: 0.00039005279541015625
ell 899, elapsed: 0.0004749298095703125
ell 898, elapsed: 0.0004458427429199219
ell 897, elapsed: 0.00047707557678222656
ell 896, elapsed: 0.0003910064697265625
ell 895, elapsed: 0.0004639625549316406
ell 894, elapsed: 0.0003921985626220703
ell 893, elapsed: 0.0004458427429199219
ell 892, elapsed: 0.0005939006805419922
ell 891, elapsed: 0.0006380081176757812
ell 890, elapsed: 0.00045800209045410156
ell 889, elapsed: 0.00047588348388671875
ell 888, elapsed: 0.0003910064697265625
ell 887, elapsed: 0.0004601478576660156
ell 886, elapsed: 0.0003879070281982422
ell 885, elapsed: 0.0004620552062988281
ell 884, elapsed: 0.0003910064697265625
ell 883, elapsed: 0.0004630088806152344
ell 882, elapsed: 0.00039196014404296875
ell 881, elapsed: 0.0005259513854980469
ell 880, elapsed: 0.00039196014404296875
ell 879, elapsed: 0.0006461143493652344
ell 878, elapsed: 0.0005919933319091797
ell 877, elapsed: 0.0007240772247314453
ell 876, elapsed: 0.0004432201385498047
ell 875, elapsed: 0.0004658699035644531
ell 874, elapsed: 0.0003991127014160156
ell 873, elapsed: 0.00047516822814941406
ell 872, elapsed: 0.000392913818359375
ell 871, elapsed: 0.0004677772521972656
ell 870, elapsed: 0.000392913818359375
ell 869, elapsed: 0.0004661083221435547
ell 868, elapsed: 0.0003941059112548828
ell 867, elapsed: 0.0004658699035644531
ell 866, elapsed: 0.0004820823669433594
ell 865, elapsed: 0.0006539821624755859
ell 864, elapsed: 0.0005278587341308594
ell 863, elapsed: 0.00046706199645996094
ell 862, elapsed: 0.0003879070281982422
ell 861, elapsed: 0.0004570484161376953
ell 860, elapsed: 0.00038695335388183594
ell 859, elapsed: 0.0006060600280761719
ell 858, elapsed: 0.0005850791931152344
ell 857, elapsed: 0.0004839897155761719
ell 856, elapsed: 0.00038886070251464844
ell 855, elapsed: 0.00047278404235839844
ell 854, elapsed: 0.00039196014404296875
ell 853, elapsed: 0.00047898292541503906
ell 852, elapsed: 0.0003859996795654297
ell 851, elapsed: 0.000476837158203125
ell 850, elapsed: 0.0005040168762207031
ell 849, elapsed: 0.0004851818084716797
ell 848, elapsed: 0.0004019737243652344
ell 847, elapsed: 0.0004661083221435547
ell 846, elapsed: 0.0003879070281982422
ell 845, elapsed: 0.00046896934509277344
ell 844, elapsed: 0.0005500316619873047
ell 843, elapsed: 0.0007381439208984375
ell 842, elapsed: 0.00039386749267578125
ell 841, elapsed: 0.0005109310150146484
ell 840, elapsed: 0.0006029605865478516
ell 839, elapsed: 0.0006461143493652344
ell 838, elapsed: 0.00039505958557128906
ell 837, elapsed: 0.0004639625549316406
ell 836, elapsed: 0.0005221366882324219
ell 835, elapsed: 0.0006749629974365234
ell 834, elapsed: 0.0003910064697265625
ell 833, elapsed: 0.00046896934509277344
ell 832, elapsed: 0.00039005279541015625
ell 831, elapsed: 0.0004658699035644531
ell 830, elapsed: 0.00038909912109375
ell 829, elapsed: 0.0004649162292480469
ell 828, elapsed: 0.00039005279541015625
ell 827, elapsed: 0.00055694580078125
ell 826, elapsed: 0.0003910064697265625
ell 825, elapsed: 0.0004661083221435547
ell 824, elapsed: 0.000576019287109375
ell 823, elapsed: 0.0007081031799316406
ell 822, elapsed: 0.0005998611450195312
ell 821, elapsed: 0.00047588348388671875
ell 820, elapsed: 0.0004761219024658203
ell 819, elapsed: 0.0004718303680419922
ell 818, elapsed: 0.00039005279541015625
ell 817, elapsed: 0.00046181678771972656
ell 816, elapsed: 0.0003879070281982422
ell 815, elapsed: 0.0005409717559814453
ell 814, elapsed: 0.0006089210510253906
ell 813, elapsed: 0.0005509853363037109
ell 812, elapsed: 0.0006899833679199219
ell 811, elapsed: 0.0004780292510986328
ell 810, elapsed: 0.00039005279541015625
ell 809, elapsed: 0.0004639625549316406
ell 808, elapsed: 0.0003879070281982422
ell 807, elapsed: 0.0004611015319824219
ell 806, elapsed: 0.0003898143768310547
ell 805, elapsed: 0.0004630088806152344
ell 804, elapsed: 0.0006530284881591797
ell 803, elapsed: 0.0004858970642089844
ell 802, elapsed: 0.0003979206085205078
ell 801, elapsed: 0.0004630088806152344
ell 800, elapsed: 0.00039005279541015625
ell 799, elapsed: 0.0004611015319824219
ell 798, elapsed: 0.0003879070281982422
ell 797, elapsed: 0.00045990943908691406
ell 796, elapsed: 0.0006389617919921875
ell 795, elapsed: 0.0004811286926269531
ell 794, elapsed: 0.00039005279541015625
ell 793, elapsed: 0.0004639625549316406
ell 792, elapsed: 0.0003898143768310547
ell 791, elapsed: 0.0004649162292480469
ell 790, elapsed: 0.00038909912109375
ell 789, elapsed: 0.0004620552062988281
ell 788, elapsed: 0.0005030632019042969
ell 787, elapsed: 0.0005090236663818359
ell 786, elapsed: 0.00039696693420410156
ell 785, elapsed: 0.0004820823669433594
ell 784, elapsed: 0.0003941059112548828
ell 783, elapsed: 0.0004661083221435547
ell 782, elapsed: 0.00039196014404296875
ell 781, elapsed: 0.0004661083221435547
ell 780, elapsed: 0.0004088878631591797
ell 779, elapsed: 0.0004661083221435547
ell 778, elapsed: 0.0003910064697265625
ell 777, elapsed: 0.0004761219024658203
ell 776, elapsed: 0.00038886070251464844
ell 775, elapsed: 0.00045800209045410156
ell 774, elapsed: 0.00038886070251464844
ell 773, elapsed: 0.00047016143798828125
ell 772, elapsed: 0.00039696693420410156
ell 771, elapsed: 0.0005309581756591797
ell 770, elapsed: 0.00039196014404296875
ell 769, elapsed: 0.0004630088806152344
ell 768, elapsed: 0.000392913818359375
ell 767, elapsed: 0.00046896934509277344
ell 766, elapsed: 0.0003910064697265625
ell 765, elapsed: 0.0004601478576660156
ell 764, elapsed: 0.00038909912109375
ell 763, elapsed: 0.0004820823669433594
ell 762, elapsed: 0.000392913818359375
ell 761, elapsed: 0.00046896934509277344
ell 760, elapsed: 0.0003910064697265625
ell 759, elapsed: 0.00046706199645996094
ell 758, elapsed: 0.00039196014404296875
ell 757, elapsed: 0.00046896934509277344
ell 756, elapsed: 0.0003921985626220703
ell 755, elapsed: 0.00045800209045410156
ell 754, elapsed: 0.00040602684020996094
ell 753, elapsed: 0.0004639625549316406
ell 752, elapsed: 0.0003910064697265625
ell 751, elapsed: 0.0004630088806152344
ell 750, elapsed: 0.0003921985626220703
ell 749, elapsed: 0.00047206878662109375
ell 748, elapsed: 0.000392913818359375
ell 747, elapsed: 0.0004639625549316406
ell 746, elapsed: 0.0003910064697265625
ell 745, elapsed: 0.0004730224609375
ell 744, elapsed: 0.00039196014404296875
ell 743, elapsed: 0.00046515464782714844
ell 742, elapsed: 0.00039005279541015625
ell 741, elapsed: 0.00046515464782714844
ell 740, elapsed: 0.0003910064697265625
ell 739, elapsed: 0.0005490779876708984
ell 738, elapsed: 0.0004630088806152344
ell 737, elapsed: 0.0006139278411865234
ell 736, elapsed: 0.0004448890686035156
ell 735, elapsed: 0.0004730224609375
ell 734, elapsed: 0.0003898143768310547
ell 733, elapsed: 0.0004611015319824219
ell 732, elapsed: 0.00038909912109375
ell 731, elapsed: 0.0004630088806152344
ell 730, elapsed: 0.0003879070281982422
ell 729, elapsed: 0.0005710124969482422
ell 728, elapsed: 0.00039196014404296875
ell 727, elapsed: 0.0004680156707763672
ell 726, elapsed: 0.0003910064697265625
ell 725, elapsed: 0.0004649162292480469
ell 724, elapsed: 0.00039005279541015625
ell 723, elapsed: 0.0004591941833496094
ell 722, elapsed: 0.00039196014404296875
ell 721, elapsed: 0.0004799365997314453
ell 720, elapsed: 0.00039196014404296875
ell 719, elapsed: 0.0004620552062988281
ell 718, elapsed: 0.00039005279541015625
ell 717, elapsed: 0.0004649162292480469
ell 716, elapsed: 0.0003941059112548828
ell 715, elapsed: 0.00047397613525390625
ell 714, elapsed: 0.0003910064697265625
ell 713, elapsed: 0.0004570484161376953
ell 712, elapsed: 0.0004668235778808594
ell 711, elapsed: 0.0004830360412597656
ell 710, elapsed: 0.0003910064697265625
ell 709, elapsed: 0.0004661083221435547
ell 708, elapsed: 0.00039005279541015625
ell 707, elapsed: 0.00046706199645996094
ell 706, elapsed: 0.0003879070281982422
ell 705, elapsed: 0.0004630088806152344
ell 704, elapsed: 0.0004851818084716797
ell 703, elapsed: 0.0004718303680419922
ell 702, elapsed: 0.0003898143768310547
ell 701, elapsed: 0.0004558563232421875
ell 700, elapsed: 0.00039005279541015625
ell 699, elapsed: 0.0004620552062988281
ell 698, elapsed: 0.00038909912109375
ell 697, elapsed: 0.0004601478576660156
ell 696, elapsed: 0.0003879070281982422
ell 695, elapsed: 0.0004811286926269531
ell 694, elapsed: 0.00039315223693847656
ell 693, elapsed: 0.0004680156707763672
ell 692, elapsed: 0.000392913818359375
ell 691, elapsed: 0.0004601478576660156
ell 690, elapsed: 0.0003910064697265625
ell 689, elapsed: 0.0004661083221435547
ell 688, elapsed: 0.00041103363037109375
ell 687, elapsed: 0.0004868507385253906
ell 686, elapsed: 0.00039505958557128906
ell 685, elapsed: 0.00046896934509277344
ell 684, elapsed: 0.0003941059112548828
ell 683, elapsed: 0.0004680156707763672
ell 682, elapsed: 0.0003921985626220703
ell 681, elapsed: 0.0004620552062988281
ell 680, elapsed: 0.000392913818359375
ell 679, elapsed: 0.0004699230194091797
ell 678, elapsed: 0.0004019737243652344
ell 677, elapsed: 0.0004680156707763672
ell 676, elapsed: 0.0003910064697265625
ell 675, elapsed: 0.00047397613525390625
ell 674, elapsed: 0.0003910064697265625
ell 673, elapsed: 0.0004642009735107422
ell 672, elapsed: 0.0003910064697265625
ell 671, elapsed: 0.0004749298095703125
ell 670, elapsed: 0.00039315223693847656
ell 669, elapsed: 0.00047206878662109375
ell 668, elapsed: 0.0003941059112548828
ell 667, elapsed: 0.00046896934509277344
ell 666, elapsed: 0.0003960132598876953
ell 665, elapsed: 0.00046706199645996094
ell 664, elapsed: 0.00039315223693847656
ell 663, elapsed: 0.0004658699035644531
ell 662, elapsed: 0.00039196014404296875
ell 661, elapsed: 0.0004649162292480469
ell 660, elapsed: 0.0004508495330810547
ell 659, elapsed: 0.0004658699035644531
ell 658, elapsed: 0.0003921985626220703
ell 657, elapsed: 0.0004680156707763672
ell 656, elapsed: 0.0003910064697265625
ell 655, elapsed: 0.00046515464782714844
ell 654, elapsed: 0.00039505958557128906
ell 653, elapsed: 0.0004658699035644531
ell 652, elapsed: 0.00040411949157714844
ell 651, elapsed: 0.0004630088806152344
ell 650, elapsed: 0.00039315223693847656
ell 649, elapsed: 0.0004611015319824219
ell 648, elapsed: 0.0003941059112548828
ell 647, elapsed: 0.00046181678771972656
ell 646, elapsed: 0.0004019737243652344
ell 645, elapsed: 0.0004680156707763672
ell 644, elapsed: 0.00039196014404296875
ell 643, elapsed: 0.0004839897155761719
ell 642, elapsed: 0.0003910064697265625
ell 641, elapsed: 0.00046515464782714844
ell 640, elapsed: 0.00039196014404296875
ell 639, elapsed: 0.0004658699035644531
ell 638, elapsed: 0.00039386749267578125
ell 637, elapsed: 0.0004601478576660156
ell 636, elapsed: 0.000392913818359375
ell 635, elapsed: 0.0004630088806152344
ell 634, elapsed: 0.0005269050598144531
ell 633, elapsed: 0.0005450248718261719
ell 632, elapsed: 0.00039505958557128906
ell 631, elapsed: 0.0004680156707763672
ell 630, elapsed: 0.00038909912109375
ell 629, elapsed: 0.0004630088806152344
ell 628, elapsed: 0.00039005279541015625
ell 627, elapsed: 0.0004589557647705078
ell 626, elapsed: 0.0004000663757324219
ell 625, elapsed: 0.00036406517028808594
ell 624, elapsed: 0.00029206275939941406
ell 623, elapsed: 0.00035500526428222656
ell 622, elapsed: 0.00029087066650390625
ell 621, elapsed: 0.00035309791564941406
ell 620, elapsed: 0.00029277801513671875
ell 619, elapsed: 0.0003528594970703125
ell 618, elapsed: 0.00029087066650390625
ell 617, elapsed: 0.00034999847412109375
ell 616, elapsed: 0.0002930164337158203
ell 615, elapsed: 0.0004811286926269531
ell 614, elapsed: 0.00041604042053222656
ell 613, elapsed: 0.00049591064453125
ell 612, elapsed: 0.00041604042053222656
ell 611, elapsed: 0.0004990100860595703
ell 610, elapsed: 0.0004150867462158203
ell 609, elapsed: 0.00049591064453125
ell 608, elapsed: 0.0003910064697265625
ell 607, elapsed: 0.00048613548278808594
ell 606, elapsed: 0.00039005279541015625
ell 605, elapsed: 0.0004589557647705078
ell 604, elapsed: 0.00039005279541015625
ell 603, elapsed: 0.0004668235778808594
ell 602, elapsed: 0.0003991127014160156
ell 601, elapsed: 0.00047206878662109375
ell 600, elapsed: 0.0003910064697265625
ell 599, elapsed: 0.0004620552062988281
ell 598, elapsed: 0.0004360675811767578
ell 597, elapsed: 0.0004980564117431641
ell 596, elapsed: 0.0004150867462158203
ell 595, elapsed: 0.0004889965057373047
ell 594, elapsed: 0.000415802001953125
ell 593, elapsed: 0.0004980564117431641
ell 592, elapsed: 0.0004119873046875
ell 591, elapsed: 0.0005831718444824219
ell 590, elapsed: 0.0004210472106933594
ell 589, elapsed: 0.0005478858947753906
ell 588, elapsed: 0.00039386749267578125
ell 587, elapsed: 0.0004658699035644531
ell 586, elapsed: 0.0003898143768310547
ell 585, elapsed: 0.0004601478576660156
ell 584, elapsed: 0.00039005279541015625
ell 583, elapsed: 0.00045800209045410156
ell 582, elapsed: 0.00040602684020996094
ell 581, elapsed: 0.0004968643188476562
ell 580, elapsed: 0.00040984153747558594
ell 579, elapsed: 0.0004980564117431641
ell 578, elapsed: 0.0004100799560546875
ell 577, elapsed: 0.0004930496215820312
ell 576, elapsed: 0.0004069805145263672
ell 575, elapsed: 0.00047087669372558594
ell 574, elapsed: 0.00048279762268066406
ell 573, elapsed: 0.0005509853363037109
ell 572, elapsed: 0.0004057884216308594
ell 571, elapsed: 0.0004649162292480469
ell 570, elapsed: 0.00038695335388183594
ell 569, elapsed: 0.0004630088806152344
ell 568, elapsed: 0.00038909912109375
ell 567, elapsed: 0.0004608631134033203
ell 566, elapsed: 0.00039005279541015625
ell 565, elapsed: 0.0004949569702148438
ell 564, elapsed: 0.00039315223693847656
ell 563, elapsed: 0.0005929470062255859
ell 562, elapsed: 0.00039005279541015625
ell 561, elapsed: 0.00045800209045410156
ell 560, elapsed: 0.0004379749298095703
ell 559, elapsed: 0.0004961490631103516
ell 558, elapsed: 0.00038814544677734375
ell 557, elapsed: 0.0005190372467041016
ell 556, elapsed: 0.0004069805145263672
ell 555, elapsed: 0.00048804283142089844
ell 554, elapsed: 0.00040602684020996094
ell 553, elapsed: 0.0004849433898925781
ell 552, elapsed: 0.00040411949157714844
ell 551, elapsed: 0.0004780292510986328
ell 550, elapsed: 0.0004048347473144531
ell 549, elapsed: 0.0004830360412597656
ell 548, elapsed: 0.0004069805145263672
ell 547, elapsed: 0.0004851818084716797
ell 546, elapsed: 0.00040602684020996094
ell 545, elapsed: 0.0005941390991210938
ell 544, elapsed: 0.0004291534423828125
ell 543, elapsed: 0.0005290508270263672
ell 542, elapsed: 0.00039005279541015625
ell 541, elapsed: 0.0004658699035644531
ell 540, elapsed: 0.0004241466522216797
ell 539, elapsed: 0.0004699230194091797
ell 538, elapsed: 0.00038909912109375
ell 537, elapsed: 0.0004620552062988281
ell 536, elapsed: 0.00038909912109375
ell 535, elapsed: 0.000576019287109375
ell 534, elapsed: 0.00039315223693847656
ell 533, elapsed: 0.0005049705505371094
ell 532, elapsed: 0.0005161762237548828
ell 531, elapsed: 0.0005140304565429688
ell 530, elapsed: 0.0003170967102050781
ell 529, elapsed: 0.0003631114959716797
ell 528, elapsed: 0.0002989768981933594
ell 527, elapsed: 0.0003631114959716797
ell 526, elapsed: 0.0002980232238769531
ell 525, elapsed: 0.0003619194030761719
ell 524, elapsed: 0.0003018379211425781
ell 523, elapsed: 0.0003609657287597656
ell 522, elapsed: 0.0003688335418701172
ell 521, elapsed: 0.0004889965057373047
ell 520, elapsed: 0.00039386749267578125
ell 519, elapsed: 0.0005068778991699219
ell 518, elapsed: 0.0003838539123535156
ell 517, elapsed: 0.000469207763671875
ell 516, elapsed: 0.0006318092346191406
ell 515, elapsed: 0.000598907470703125
ell 514, elapsed: 0.000553131103515625
ell 513, elapsed: 0.0006349086761474609
ell 512, elapsed: 0.0004029273986816406
ell 511, elapsed: 0.0004899501800537109
ell 510, elapsed: 0.0004000663757324219
ell 509, elapsed: 0.0004820823669433594
ell 508, elapsed: 0.0004010200500488281
ell 507, elapsed: 0.0005731582641601562
ell 506, elapsed: 0.0004200935363769531
ell 505, elapsed: 0.00048804283142089844
ell 504, elapsed: 0.0004551410675048828
ell 503, elapsed: 0.0005290508270263672
ell 502, elapsed: 0.0003910064697265625
ell 501, elapsed: 0.0004980564117431641
ell 500, elapsed: 0.0003821849822998047
ell 499, elapsed: 0.0004911422729492188
ell 498, elapsed: 0.0003871917724609375
ell 497, elapsed: 0.000476837158203125
ell 496, elapsed: 0.0003879070281982422
ell 495, elapsed: 0.0004699230194091797
ell 494, elapsed: 0.0003838539123535156
ell 493, elapsed: 0.0004680156707763672
ell 492, elapsed: 0.0003800392150878906
ell 491, elapsed: 0.00047397613525390625
ell 490, elapsed: 0.000453948974609375
ell 489, elapsed: 0.0005919933319091797
ell 488, elapsed: 0.00038504600524902344
ell 487, elapsed: 0.00047397613525390625
ell 486, elapsed: 0.00038814544677734375
ell 485, elapsed: 0.00047516822814941406
ell 484, elapsed: 0.0003840923309326172
ell 483, elapsed: 0.0004730224609375
ell 482, elapsed: 0.0004100799560546875
ell 481, elapsed: 0.0004949569702148438
ell 480, elapsed: 0.0003840923309326172
ell 479, elapsed: 0.00047397613525390625
ell 478, elapsed: 0.0003800392150878906
ell 477, elapsed: 0.0004711151123046875
ell 476, elapsed: 0.0003809928894042969
ell 475, elapsed: 0.00046896934509277344
ell 474, elapsed: 0.00047397613525390625
ell 473, elapsed: 0.0005087852478027344
ell 472, elapsed: 0.00041103363037109375
ell 471, elapsed: 0.0004811286926269531
ell 470, elapsed: 0.00038695335388183594
ell 469, elapsed: 0.000476837158203125
ell 468, elapsed: 0.0003979206085205078
ell 467, elapsed: 0.00047397613525390625
ell 466, elapsed: 0.0003840923309326172
ell 465, elapsed: 0.000514984130859375
ell 464, elapsed: 0.00039505958557128906
ell 463, elapsed: 0.00048089027404785156
ell 462, elapsed: 0.00038695335388183594
ell 461, elapsed: 0.000476837158203125
ell 460, elapsed: 0.0003879070281982422
ell 459, elapsed: 0.0004811286926269531
ell 458, elapsed: 0.00038909912109375
ell 457, elapsed: 0.0004930496215820312
ell 456, elapsed: 0.0005609989166259766
ell 455, elapsed: 0.0005488395690917969
ell 454, elapsed: 0.0003879070281982422
ell 453, elapsed: 0.0004742145538330078
ell 452, elapsed: 0.0003859996795654297
ell 451, elapsed: 0.0004961490631103516
ell 450, elapsed: 0.00038814544677734375
ell 449, elapsed: 0.0004899501800537109
ell 448, elapsed: 0.0004031658172607422
ell 447, elapsed: 0.00047898292541503906
ell 446, elapsed: 0.00038814544677734375
ell 445, elapsed: 0.0004761219024658203
ell 444, elapsed: 0.0003979206085205078
ell 443, elapsed: 0.0004999637603759766
ell 442, elapsed: 0.00038909912109375
ell 441, elapsed: 0.0004999637603759766
ell 440, elapsed: 0.0005409717559814453
ell 439, elapsed: 0.0005700588226318359
ell 438, elapsed: 0.00038695335388183594
ell 437, elapsed: 0.00047397613525390625
ell 436, elapsed: 0.0004930496215820312
ell 435, elapsed: 0.0006358623504638672
ell 434, elapsed: 0.00038695335388183594
ell 433, elapsed: 0.00049591064453125
ell 432, elapsed: 0.0003998279571533203
ell 431, elapsed: 0.0004830360412597656
ell 430, elapsed: 0.0004000663757324219
ell 429, elapsed: 0.0004870891571044922
ell 428, elapsed: 0.0004029273986816406
ell 427, elapsed: 0.0004868507385253906
ell 426, elapsed: 0.0003979206085205078
ell 425, elapsed: 0.0004968643188476562
ell 424, elapsed: 0.0004019737243652344
ell 423, elapsed: 0.0004971027374267578
ell 422, elapsed: 0.0004019737243652344
ell 421, elapsed: 0.0004928112030029297
ell 420, elapsed: 0.00040984153747558594
ell 419, elapsed: 0.0004909038543701172
ell 418, elapsed: 0.0004000663757324219
ell 417, elapsed: 0.0005040168762207031
ell 416, elapsed: 0.00038313865661621094
ell 415, elapsed: 0.00047087669372558594
ell 414, elapsed: 0.00037980079650878906
ell 413, elapsed: 0.00047707557678222656
ell 412, elapsed: 0.0003859996795654297
ell 411, elapsed: 0.000492095947265625
ell 410, elapsed: 0.00040602684020996094
ell 409, elapsed: 0.0004980564117431641
ell 408, elapsed: 0.00041484832763671875
ell 407, elapsed: 0.0004949569702148438
ell 406, elapsed: 0.00047898292541503906
ell 405, elapsed: 0.0006711483001708984
ell 404, elapsed: 0.0005040168762207031
ell 403, elapsed: 0.0006511211395263672
ell 402, elapsed: 0.0005791187286376953
ell 401, elapsed: 0.0007529258728027344
ell 400, elapsed: 0.0004608631134033203
ell 399, elapsed: 0.0004940032958984375
ell 398, elapsed: 0.00040221214294433594
ell 397, elapsed: 0.0004971027374267578
ell 396, elapsed: 0.0004069805145263672
ell 395, elapsed: 0.0006299018859863281
ell 394, elapsed: 0.0004999637603759766
ell 393, elapsed: 0.0004749298095703125
ell 392, elapsed: 0.00038504600524902344
ell 391, elapsed: 0.00046706199645996094
ell 390, elapsed: 0.0003809928894042969
ell 389, elapsed: 0.00047588348388671875
ell 388, elapsed: 0.0003879070281982422
ell 387, elapsed: 0.0004792213439941406
ell 386, elapsed: 0.00047898292541503906
ell 385, elapsed: 0.0006430149078369141
ell 384, elapsed: 0.00044083595275878906
ell 383, elapsed: 0.0004780292510986328
ell 382, elapsed: 0.0003819465637207031
ell 381, elapsed: 0.0004820823669433594
ell 380, elapsed: 0.0005640983581542969
ell 379, elapsed: 0.0006940364837646484
ell 378, elapsed: 0.0004730224609375
ell 377, elapsed: 0.0006279945373535156
ell 376, elapsed: 0.00038886070251464844
ell 375, elapsed: 0.0004718303680419922
ell 374, elapsed: 0.0003838539123535156
ell 373, elapsed: 0.0004730224609375
ell 372, elapsed: 0.00045299530029296875
ell 371, elapsed: 0.000865936279296875
ell 370, elapsed: 0.00043892860412597656
ell 369, elapsed: 0.00046896934509277344
ell 368, elapsed: 0.0003859996795654297
ell 367, elapsed: 0.00047588348388671875
ell 366, elapsed: 0.0003829002380371094
ell 365, elapsed: 0.00048089027404785156
ell 364, elapsed: 0.0006191730499267578
ell 363, elapsed: 0.0005290508270263672
ell 362, elapsed: 0.00044608116149902344
ell 361, elapsed: 0.0007278919219970703
ell 360, elapsed: 0.0004169940948486328
ell 359, elapsed: 0.0004730224609375
ell 358, elapsed: 0.00038814544677734375
ell 357, elapsed: 0.0004811286926269531
ell 356, elapsed: 0.0005178451538085938
ell 355, elapsed: 0.0006160736083984375
ell 354, elapsed: 0.00038504600524902344
ell 353, elapsed: 0.00047707557678222656
ell 352, elapsed: 0.0004010200500488281
ell 351, elapsed: 0.0004930496215820312
ell 350, elapsed: 0.00041294097900390625
ell 349, elapsed: 0.0004990100860595703
ell 348, elapsed: 0.0004010200500488281
ell 347, elapsed: 0.0004971027374267578
ell 346, elapsed: 0.0004050731658935547
ell 345, elapsed: 0.0004849433898925781
ell 344, elapsed: 0.0004010200500488281
ell 343, elapsed: 0.0004870891571044922
ell 342, elapsed: 0.0003991127014160156
ell 341, elapsed: 0.0005011558532714844
ell 340, elapsed: 0.0004119873046875
ell 339, elapsed: 0.0004889965057373047
ell 338, elapsed: 0.00040721893310546875
ell 337, elapsed: 0.0004818439483642578
ell 336, elapsed: 0.0003991127014160156
ell 335, elapsed: 0.00047898292541503906
ell 334, elapsed: 0.0003979206085205078
ell 333, elapsed: 0.0004849433898925781
ell 332, elapsed: 0.0004100799560546875
ell 331, elapsed: 0.0004901885986328125
ell 330, elapsed: 0.0003979206085205078
ell 329, elapsed: 0.0004858970642089844
ell 328, elapsed: 0.0004000663757324219
ell 327, elapsed: 0.0004930496215820312
ell 326, elapsed: 0.0004000663757324219
ell 325, elapsed: 0.0004870891571044922
ell 324, elapsed: 0.0004131793975830078
ell 323, elapsed: 0.0004990100860595703
ell 322, elapsed: 0.0004019737243652344
ell 321, elapsed: 0.0004940032958984375
ell 320, elapsed: 0.0004019737243652344
ell 319, elapsed: 0.0004940032958984375
ell 318, elapsed: 0.0004010200500488281
ell 317, elapsed: 0.0004940032958984375
ell 316, elapsed: 0.00041794776916503906
ell 315, elapsed: 0.00048613548278808594
ell 314, elapsed: 0.00040793418884277344
ell 313, elapsed: 0.0006611347198486328
ell 312, elapsed: 0.000431060791015625
ell 311, elapsed: 0.00047516822814941406
ell 310, elapsed: 0.0003840923309326172
ell 309, elapsed: 0.00047707557678222656
ell 308, elapsed: 0.00047588348388671875
ell 307, elapsed: 0.0004899501800537109
ell 306, elapsed: 0.00038504600524902344
ell 305, elapsed: 0.00046896934509277344
ell 304, elapsed: 0.0003910064697265625
ell 303, elapsed: 0.00046896934509277344
ell 302, elapsed: 0.0003819465637207031
ell 301, elapsed: 0.00047707557678222656
ell 300, elapsed: 0.0006670951843261719
ell 299, elapsed: 0.0005440711975097656
ell 298, elapsed: 0.0005471706390380859
ell 297, elapsed: 0.0005519390106201172
ell 296, elapsed: 0.0005459785461425781
ell 295, elapsed: 0.0005459785461425781
ell 294, elapsed: 0.0003859996795654297
ell 293, elapsed: 0.000553131103515625
ell 292, elapsed: 0.0004949569702148438
ell 291, elapsed: 0.0006308555603027344
ell 290, elapsed: 0.0003859996795654297
ell 289, elapsed: 0.0004780292510986328
ell 288, elapsed: 0.00038695335388183594
ell 287, elapsed: 0.0004868507385253906
ell 286, elapsed: 0.0003829002380371094
ell 285, elapsed: 0.0005750656127929688
ell 284, elapsed: 0.0003879070281982422
ell 283, elapsed: 0.0004711151123046875
ell 282, elapsed: 0.00038504600524902344
ell 281, elapsed: 0.0004718303680419922
ell 280, elapsed: 0.0003840923309326172
ell 279, elapsed: 0.00047397613525390625
ell 278, elapsed: 0.00038695335388183594
ell 277, elapsed: 0.00047397613525390625
ell 276, elapsed: 0.0005691051483154297
ell 275, elapsed: 0.0006051063537597656
ell 274, elapsed: 0.0006361007690429688
ell 273, elapsed: 0.0006458759307861328
ell 272, elapsed: 0.0006029605865478516
ell 271, elapsed: 0.0006000995635986328
ell 270, elapsed: 0.0005500316619873047
ell 269, elapsed: 0.0004749298095703125
ell 268, elapsed: 0.0004639625549316406
ell 267, elapsed: 0.0006530284881591797
ell 266, elapsed: 0.00038814544677734375
ell 265, elapsed: 0.00047588348388671875
ell 264, elapsed: 0.0003859996795654297
ell 263, elapsed: 0.0005750656127929688
ell 262, elapsed: 0.0004868507385253906
ell 261, elapsed: 0.000637054443359375
ell 260, elapsed: 0.00047206878662109375
ell 259, elapsed: 0.00047588348388671875
ell 258, elapsed: 0.00038504600524902344
ell 257, elapsed: 0.00047087669372558594
ell 256, elapsed: 0.0004520416259765625
ell 255, elapsed: 0.0006649494171142578
ell 254, elapsed: 0.00038886070251464844
ell 253, elapsed: 0.00047588348388671875
ell 252, elapsed: 0.00038695335388183594
ell 251, elapsed: 0.00047588348388671875
ell 250, elapsed: 0.0004220008850097656
ell 249, elapsed: 0.0005450248718261719
ell 248, elapsed: 0.0004239082336425781
ell 247, elapsed: 0.0004830360412597656
ell 246, elapsed: 0.00036215782165527344
ell 245, elapsed: 0.0004420280456542969
ell 244, elapsed: 0.00041604042053222656
ell 243, elapsed: 0.0004451274871826172
ell 242, elapsed: 0.0003769397735595703
ell 241, elapsed: 0.00045108795166015625
ell 240, elapsed: 0.0003681182861328125
ell 239, elapsed: 0.0005230903625488281
ell 238, elapsed: 0.00038695335388183594
ell 237, elapsed: 0.0003981590270996094
ell 236, elapsed: 0.00028204917907714844
ell 235, elapsed: 0.0003380775451660156
ell 234, elapsed: 0.0002789497375488281
ell 233, elapsed: 0.00033593177795410156
ell 232, elapsed: 0.0002779960632324219
ell 231, elapsed: 0.00033402442932128906
ell 230, elapsed: 0.0002789497375488281
ell 229, elapsed: 0.0003299713134765625
ell 228, elapsed: 0.0002799034118652344
ell 227, elapsed: 0.0005109310150146484
ell 226, elapsed: 0.0004601478576660156
ell 225, elapsed: 0.0005521774291992188
ell 224, elapsed: 0.0004589557647705078
ell 223, elapsed: 0.0005521774291992188
ell 222, elapsed: 0.00046181678771972656
ell 221, elapsed: 0.0006468296051025391
ell 220, elapsed: 0.000492095947265625
ell 219, elapsed: 0.0007748603820800781
ell 218, elapsed: 0.00037980079650878906
ell 217, elapsed: 0.0005619525909423828
ell 216, elapsed: 0.0004570484161376953
ell 215, elapsed: 0.0006620883941650391
ell 214, elapsed: 0.0004601478576660156
ell 213, elapsed: 0.0005648136138916016
ell 212, elapsed: 0.0004639625549316406
ell 211, elapsed: 0.0006809234619140625
ell 210, elapsed: 0.0004649162292480469
ell 209, elapsed: 0.0004298686981201172
ell 208, elapsed: 0.0002949237823486328
ell 207, elapsed: 0.0003490447998046875
ell 206, elapsed: 0.0002880096435546875
ell 205, elapsed: 0.00034809112548828125
ell 204, elapsed: 0.00030803680419921875
ell 203, elapsed: 0.00035691261291503906
ell 202, elapsed: 0.0002942085266113281
ell 201, elapsed: 0.00035381317138671875
ell 200, elapsed: 0.0002911090850830078
ell 199, elapsed: 0.0003528594970703125
ell 198, elapsed: 0.00029015541076660156
ell 197, elapsed: 0.0003478527069091797
ell 196, elapsed: 0.0002930164337158203
ell 195, elapsed: 0.0003571510314941406
ell 194, elapsed: 0.00029206275939941406
ell 193, elapsed: 0.0003840923309326172
ell 192, elapsed: 0.0002970695495605469
ell 191, elapsed: 0.0003600120544433594
ell 190, elapsed: 0.00043201446533203125
ell 189, elapsed: 0.0005359649658203125
ell 188, elapsed: 0.0003781318664550781
ell 187, elapsed: 0.0003597736358642578
ell 186, elapsed: 0.0003020763397216797
ell 185, elapsed: 0.0003628730773925781
ell 184, elapsed: 0.0003349781036376953
ell 183, elapsed: 0.0004029273986816406
ell 182, elapsed: 0.00034809112548828125
ell 181, elapsed: 0.0004010200500488281
ell 180, elapsed: 0.0003039836883544922
ell 179, elapsed: 0.000370025634765625
ell 178, elapsed: 0.0003058910369873047
ell 177, elapsed: 0.0003590583801269531
ell 176, elapsed: 0.0003001689910888672
ell 175, elapsed: 0.00036215782165527344
ell 174, elapsed: 0.00030112266540527344
ell 173, elapsed: 0.00039696693420410156
ell 172, elapsed: 0.0003800392150878906
ell 171, elapsed: 0.00037288665771484375
ell 170, elapsed: 0.0003058910369873047
ell 169, elapsed: 0.000370025634765625
ell 168, elapsed: 0.00030684471130371094
ell 167, elapsed: 0.00036907196044921875
ell 166, elapsed: 0.00031495094299316406
ell 165, elapsed: 0.0005190372467041016
ell 164, elapsed: 0.0003979206085205078
ell 163, elapsed: 0.0003809928894042969
ell 162, elapsed: 0.000308990478515625
ell 161, elapsed: 0.00036787986755371094
ell 160, elapsed: 0.00030493736267089844
ell 159, elapsed: 0.0003650188446044922
ell 158, elapsed: 0.00030612945556640625
ell 157, elapsed: 0.00036978721618652344
ell 156, elapsed: 0.00030612945556640625
ell 155, elapsed: 0.00036907196044921875
ell 154, elapsed: 0.00030493736267089844
ell 153, elapsed: 0.00041103363037109375
ell 152, elapsed: 0.00045013427734375
ell 151, elapsed: 0.0005040168762207031
ell 150, elapsed: 0.0002830028533935547
ell 149, elapsed: 0.00034117698669433594
ell 148, elapsed: 0.00028204917907714844
ell 147, elapsed: 0.00037097930908203125
ell 146, elapsed: 0.0003139972686767578
ell 145, elapsed: 0.0003619194030761719
ell 144, elapsed: 0.0002830028533935547
ell 143, elapsed: 0.00034308433532714844
ell 142, elapsed: 0.0003528594970703125
ell 141, elapsed: 0.0003750324249267578
ell 140, elapsed: 0.0003101825714111328
ell 139, elapsed: 0.0004410743713378906
ell 138, elapsed: 0.00046181678771972656
ell 137, elapsed: 0.0004379749298095703
ell 136, elapsed: 0.0003299713134765625
ell 135, elapsed: 0.00037407875061035156
ell 134, elapsed: 0.00030303001403808594
ell 133, elapsed: 0.0003559589385986328
ell 132, elapsed: 0.0003230571746826172
ell 131, elapsed: 0.0005280971527099609
ell 130, elapsed: 0.0003991127014160156
ell 129, elapsed: 0.0005199909210205078
ell 128, elapsed: 0.0004029273986816406
ell 127, elapsed: 0.000370025634765625
ell 126, elapsed: 0.0002980232238769531
ell 125, elapsed: 0.00036406517028808594
ell 124, elapsed: 0.0003001689910888672
ell 123, elapsed: 0.00040912628173828125
ell 122, elapsed: 0.00031304359436035156
ell 121, elapsed: 0.00036597251892089844
ell 120, elapsed: 0.0002980232238769531
ell 119, elapsed: 0.000370025634765625
ell 118, elapsed: 0.0003070831298828125
ell 117, elapsed: 0.00036597251892089844
ell 116, elapsed: 0.0003018379211425781
ell 115, elapsed: 0.00037097930908203125
ell 114, elapsed: 0.0002999305725097656
ell 113, elapsed: 0.00036406517028808594
ell 112, elapsed: 0.0003159046173095703
ell 111, elapsed: 0.00037598609924316406
ell 110, elapsed: 0.0002989768981933594
ell 109, elapsed: 0.00037097930908203125
ell 108, elapsed: 0.0002989768981933594
ell 107, elapsed: 0.0003719329833984375
ell 106, elapsed: 0.00030612945556640625
ell 105, elapsed: 0.0003650188446044922
ell 104, elapsed: 0.0002999305725097656
ell 103, elapsed: 0.00036406517028808594
ell 102, elapsed: 0.0002980232238769531
ell 101, elapsed: 0.0003859996795654297
ell 100, elapsed: 0.0004391670227050781
ell 99, elapsed: 0.0004901885986328125
ell 98, elapsed: 0.0002999305725097656
ell 97, elapsed: 0.0003650188446044922
ell 96, elapsed: 0.00030612945556640625
ell 95, elapsed: 0.00036597251892089844
ell 94, elapsed: 0.0002999305725097656
ell 93, elapsed: 0.0003662109375
ell 92, elapsed: 0.0002980232238769531
ell 91, elapsed: 0.00039505958557128906
ell 90, elapsed: 0.0003209114074707031
ell 89, elapsed: 0.00036597251892089844
ell 88, elapsed: 0.0002899169921875
ell 87, elapsed: 0.00035309791564941406
ell 86, elapsed: 0.00028896331787109375
ell 85, elapsed: 0.0003490447998046875
ell 84, elapsed: 0.00028705596923828125
ell 83, elapsed: 0.0003490447998046875
ell 82, elapsed: 0.0002949237823486328
ell 81, elapsed: 0.00034999847412109375
ell 80, elapsed: 0.0002880096435546875
ell 79, elapsed: 0.00055694580078125
ell 78, elapsed: 0.0004279613494873047
ell 77, elapsed: 0.00037097930908203125
ell 76, elapsed: 0.0003108978271484375
ell 75, elapsed: 0.00036907196044921875
ell 74, elapsed: 0.0003070831298828125
ell 73, elapsed: 0.0003650188446044922
ell 72, elapsed: 0.00030112266540527344
ell 71, elapsed: 0.00037288665771484375
ell 70, elapsed: 0.00030303001403808594
ell 69, elapsed: 0.00038313865661621094
ell 68, elapsed: 0.000308990478515625
ell 67, elapsed: 0.0003790855407714844
ell 66, elapsed: 0.00030994415283203125
ell 65, elapsed: 0.00037288665771484375
ell 64, elapsed: 0.00030112266540527344
ell 63, elapsed: 0.0003750324249267578
ell 62, elapsed: 0.00030112266540527344
ell 61, elapsed: 0.00036597251892089844
ell 60, elapsed: 0.00030803680419921875
ell 59, elapsed: 0.00037598609924316406
ell 58, elapsed: 0.000331878662109375
ell 57, elapsed: 0.00037598609924316406
ell 56, elapsed: 0.00031304359436035156
ell 55, elapsed: 0.00040912628173828125
ell 54, elapsed: 0.0003199577331542969
ell 53, elapsed: 0.0003762245178222656
ell 52, elapsed: 0.0003249645233154297
ell 51, elapsed: 0.000370025634765625
ell 50, elapsed: 0.0003020763397216797
ell 49, elapsed: 0.00036716461181640625
ell 48, elapsed: 0.00035500526428222656
ell 47, elapsed: 0.0003731250762939453
ell 46, elapsed: 0.00031685829162597656
ell 45, elapsed: 0.00036597251892089844
ell 44, elapsed: 0.0003008842468261719
ell 43, elapsed: 0.000370025634765625
ell 42, elapsed: 0.000308990478515625
ell 41, elapsed: 0.00037384033203125
ell 40, elapsed: 0.00030303001403808594
ell 39, elapsed: 0.00036907196044921875
ell 38, elapsed: 0.00030303001403808594
ell 37, elapsed: 0.0004191398620605469
ell 36, elapsed: 0.0003209114074707031
ell 35, elapsed: 0.0003719329833984375
ell 34, elapsed: 0.00030493736267089844
ell 33, elapsed: 0.0003719329833984375
ell 32, elapsed: 0.00030303001403808594
ell 31, elapsed: 0.00037097930908203125
ell 30, elapsed: 0.00030422210693359375
ell 29, elapsed: 0.0003719329833984375
ell 28, elapsed: 0.00030493736267089844
ell 27, elapsed: 0.00037789344787597656
ell 26, elapsed: 0.0003039836883544922
ell 25, elapsed: 0.0003681182861328125
ell 24, elapsed: 0.00029397010803222656
ell 23, elapsed: 0.0003561973571777344
ell 22, elapsed: 0.00044608116149902344
ell 21, elapsed: 0.0005118846893310547
ell 20, elapsed: 0.0002970695495605469
ell 19, elapsed: 0.00036907196044921875
ell 18, elapsed: 0.0005090236663818359
ell 17, elapsed: 0.0007929801940917969
ell 16, elapsed: 0.0006542205810546875
ell 15, elapsed: 0.0007390975952148438
ell 14, elapsed: 0.0006151199340820312
ell 13, elapsed: 0.0007610321044921875
ell 12, elapsed: 0.00061798095703125
ell 11, elapsed: 0.0005509853363037109
ell 10, elapsed: 0.0002980232238769531
ell 9, elapsed: 0.00034308433532714844
ell 8, elapsed: 0.0002849102020263672
ell 7, elapsed: 0.0003478527069091797
ell 6, elapsed: 0.0002830028533935547
ell 5, elapsed: 0.0003390312194824219
ell 4, elapsed: 0.00029087066650390625
ell 3, elapsed: 0.0005950927734375
ell 2, elapsed: 0.0006229877471923828
ell 1, elapsed: 0.000720977783203125
ell 0, elapsed: 0.000598907470703125
  0.627750 seconds (41.19 k allocations: 2.939 MiB)
elapsed: 0.0008699893951416016
step:          0.065253 sec (0 allocations: 0 byte, 0.0% gc time)
swapping:      0.000829 sec (0 allocations: 0 byte, 0.0% gc time)
calc_Mellell!: 0.009894 sec (0 allocations: 0 byte, 0.0% gc time)
  t0 :  0.002315 sec (0 allocations: 0 byte, 0.0% gc time)
  tm2 : 0.100759 sec (0 allocations: 0 byte, 0.0% gc time)
  tm2s: 0.001633 sec (0 allocations: 0 byte, 0.0% gc time)
  tm4 : 0.261188 sec (0 allocations: 0 byte, 0.0% gc time)
  tp2 : 0.0 sec (0 allocations: 0 byte, 0.0% gc time)
  tp2s: 0.0 sec (0 allocations: 0 byte, 0.0% gc time)
  tp4 : 0.0 sec (0 allocations: 0 byte, 0.0% gc time)
calc_wtdll!:   0.384889 sec (9.87 k allocations: 1.043 MB, 0.0% gc time)
calc_wljj!:    0.039979 sec (689 allocations: 10.766 KB, 0.0% gc time)
mult_prefac!:  0.0 sec (0 allocations: 0 byte, 0.0% gc time)
convert:       0.0 sec (0 allocations: 0 byte, 0.0% gc time)
write:         0.054766 sec (0 allocations: 0 byte, 0.0% gc time)
test_rand_2f1: 0.0 sec (0 allocations: 0 byte, 0.0% gc time)
Closing outfile out/Ml21-cache.bin...   0.030645 seconds
  0.000302 seconds (52 allocations: 28.297 KiB)
make_phi():   0.002313 seconds (8.20 k allocations: 238.016 KiB)
  0.217898 seconds (146.69 k allocations: 3.629 MiB)
tskip:       0.001061 sec (0 allocations: 0 byte, 0.0% gc time)
tread:       0.032676 sec (19 allocations: 10.688 KB, 0.0% gc time)
tmultphi:    0.015453 sec (0 allocations: 0 byte, 0.0% gc time)
tbrfft:      0.051047 sec (9.592 k allocations: 449.625 KB, 0.0% gc time)
tmultprefac: 0.033181 sec (0 allocations: 0 byte, 0.0% gc time)
toutfunc:    0.080565 sec (129.905 k allocations: 2.421 MB, 0.0% gc time)
Testing R=1.0 ... passed
Calculating fmax: 
  dlrec    = 4
  dlrecRg1 = -4
  q=1.1, R=0.9:	  0.457882 seconds (116.47 k allocations: 15.614 MiB)

  0.458164 seconds (116.50 k allocations: 15.647 MiB)
ℓ = 1202
Δℓ = 4
ΔℓRg1 = -4
N = 1600
q = 1.1
kmin = 1.0e-5
kmax = 100000.00000000004
χ0 = 0.023029999999999995
RR = RR.tsv
ℓmax = ℓmax.bin
f21 = f21.bin
kmin = 1.0e-5
kmax = 100000.0
dlrec    = 4
dlrecRg1 = -4
Output size: 5741568 bytes = 0.005347251892089844 GiB
Output size: 51264 bytes = 4.774332046508789e-5 GiB
Reading 'out/F21EllCache'...   0.001622 seconds (267 allocations: 84.656 KiB)
ellmax: 1202
lmaxcache: 1202
fell[:,1,1] = Complex{Float64}[1.3482014726274674e-57 - 3.302141236118086e-73im, 1.357860004724329e-57 - 3.3257978169518355e-73im]
ell 1202, elapsed: 3.0994415283203125e-5
ell 1201, elapsed: 0.000453948974609375
ell 1200, elapsed: 0.0003871917724609375
ell 1199, elapsed: 0.00039696693420410156
ell 1198, elapsed: 0.0003879070281982422
ell 1002, elapsed: 0.009244918823242188
ell 1001, elapsed: 0.00036597251892089844
ell 1000, elapsed: 0.00034499168395996094
ell 999, elapsed: 0.00034689903259277344
ell 998, elapsed: 0.00034689903259277344
ell 902, elapsed: 0.004814863204956055
ell 901, elapsed: 0.0003650188446044922
ell 900, elapsed: 0.00034618377685546875
ell 899, elapsed: 0.0003428459167480469
ell 898, elapsed: 0.00034499168395996094
ell 802, elapsed: 0.004809141159057617
ell 801, elapsed: 0.00036597251892089844
ell 800, elapsed: 0.00034499168395996094
ell 799, elapsed: 0.0003681182861328125
ell 798, elapsed: 0.0003478527069091797
ell 702, elapsed: 0.004719972610473633
ell 701, elapsed: 0.0003650188446044922
ell 700, elapsed: 0.0003509521484375
ell 699, elapsed: 0.0003478527069091797
ell 698, elapsed: 0.00034689903259277344
ell 602, elapsed: 0.004798173904418945
ell 601, elapsed: 0.0003819465637207031
ell 600, elapsed: 0.00034999847412109375
ell 599, elapsed: 0.00034499168395996094
ell 598, elapsed: 0.0003459453582763672
ell 502, elapsed: 0.004683971405029297
ell 501, elapsed: 0.0003609657287597656
ell 500, elapsed: 0.0003459453582763672
ell 499, elapsed: 0.0003559589385986328
ell 498, elapsed: 0.00039505958557128906
ell 402, elapsed: 0.004878997802734375
ell 401, elapsed: 0.0003600120544433594
ell 400, elapsed: 0.0003540515899658203
ell 399, elapsed: 0.0003459453582763672
ell 398, elapsed: 0.0003440380096435547
ell 302, elapsed: 0.004697084426879883
ell 301, elapsed: 0.0003581047058105469
ell 300, elapsed: 0.00034499168395996094
ell 299, elapsed: 0.0003490447998046875
ell 298, elapsed: 0.0003600120544433594
ell 202, elapsed: 0.00480198860168457
ell 201, elapsed: 0.00036406517028808594
ell 200, elapsed: 0.00034499168395996094
ell 199, elapsed: 0.00034809112548828125
ell 198, elapsed: 0.00034499168395996094
ell 152, elapsed: 0.002482891082763672
ell 151, elapsed: 0.0003571510314941406
ell 150, elapsed: 0.00034689903259277344
ell 149, elapsed: 0.0003440380096435547
ell 148, elapsed: 0.0003459453582763672
ell 127, elapsed: 0.001466989517211914
ell 126, elapsed: 0.0003540515899658203
ell 125, elapsed: 0.00034499168395996094
ell 124, elapsed: 0.00034618377685546875
ell 123, elapsed: 0.00034499168395996094
ell 114, elapsed: 0.0007889270782470703
ell 113, elapsed: 0.0003440380096435547
ell 112, elapsed: 0.0003440380096435547
ell 111, elapsed: 0.00034499168395996094
ell 110, elapsed: 0.00034689903259277344
ell 102, elapsed: 0.0008687973022460938
ell 101, elapsed: 0.0003609657287597656
ell 100, elapsed: 0.0003490447998046875
ell 99, elapsed: 0.0003418922424316406
ell 98, elapsed: 0.0003459453582763672
ell 97, elapsed: 0.00039005279541015625
ell 96, elapsed: 0.0004811286926269531
ell 95, elapsed: 0.0003840923309326172
ell 94, elapsed: 0.0004830360412597656
ell 93, elapsed: 0.00038504600524902344
ell 92, elapsed: 0.00044918060302734375
ell 91, elapsed: 0.0003819465637207031
ell 90, elapsed: 0.00045490264892578125
ell 89, elapsed: 0.0003840923309326172
ell 88, elapsed: 0.00045680999755859375
ell 87, elapsed: 0.0003879070281982422
ell 86, elapsed: 0.00045800209045410156
ell 85, elapsed: 0.0004019737243652344
ell 84, elapsed: 0.0004620552062988281
ell 83, elapsed: 0.0003859996795654297
ell 82, elapsed: 0.0004630088806152344
ell 81, elapsed: 0.0003879070281982422
ell 80, elapsed: 0.0004570484161376953
ell 79, elapsed: 0.0003840923309326172
ell 78, elapsed: 0.00045990943908691406
ell 77, elapsed: 0.00038313865661621094
ell 76, elapsed: 0.00047397613525390625
ell 75, elapsed: 0.00038504600524902344
ell 74, elapsed: 0.0004601478576660156
ell 73, elapsed: 0.0003859996795654297
ell 72, elapsed: 0.0004551410675048828
ell 71, elapsed: 0.00038313865661621094
ell 70, elapsed: 0.00045490264892578125
ell 69, elapsed: 0.00038695335388183594
ell 68, elapsed: 0.00045800209045410156
ell 67, elapsed: 0.0003979206085205078
ell 66, elapsed: 0.00046515464782714844
ell 65, elapsed: 0.00038695335388183594
ell 64, elapsed: 0.0004601478576660156
ell 63, elapsed: 0.0003859996795654297
ell 62, elapsed: 0.00045609474182128906
ell 61, elapsed: 0.00038504600524902344
ell 60, elapsed: 0.0004630088806152344
ell 59, elapsed: 0.0003840923309326172
ell 58, elapsed: 0.00047397613525390625
ell 57, elapsed: 0.0003840923309326172
ell 56, elapsed: 0.00045990943908691406
ell 55, elapsed: 0.0003879070281982422
ell 54, elapsed: 0.0004608631134033203
ell 53, elapsed: 0.0003871917724609375
ell 52, elapsed: 0.0004601478576660156
ell 51, elapsed: 0.0003840923309326172
ell 50, elapsed: 0.0004680156707763672
ell 49, elapsed: 0.00038886070251464844
ell 48, elapsed: 0.0005118846893310547
ell 47, elapsed: 0.0003960132598876953
ell 46, elapsed: 0.0004839897155761719
ell 45, elapsed: 0.00039386749267578125
ell 44, elapsed: 0.0004711151123046875
ell 43, elapsed: 0.00039196014404296875
ell 42, elapsed: 0.000469207763671875
ell 41, elapsed: 0.0004038810729980469
ell 40, elapsed: 0.0004601478576660156
ell 39, elapsed: 0.00038504600524902344
ell 38, elapsed: 0.0004620552062988281
ell 37, elapsed: 0.0003879070281982422
ell 36, elapsed: 0.0004630088806152344
ell 35, elapsed: 0.0003859996795654297
ell 34, elapsed: 0.0004780292510986328
ell 33, elapsed: 0.0003910064697265625
ell 32, elapsed: 0.0004930496215820312
ell 31, elapsed: 0.00038695335388183594
ell 30, elapsed: 0.0004630088806152344
ell 29, elapsed: 0.0003879070281982422
ell 28, elapsed: 0.00046896934509277344
ell 27, elapsed: 0.00038695335388183594
ell 26, elapsed: 0.0004611015319824219
ell 25, elapsed: 0.0003979206085205078
ell 24, elapsed: 0.0005199909210205078
ell 23, elapsed: 0.0003910064697265625
ell 22, elapsed: 0.0004677772521972656
ell 21, elapsed: 0.0003910064697265625
ell 20, elapsed: 0.0004589557647705078
ell 19, elapsed: 0.00039386749267578125
ell 18, elapsed: 0.0004608631134033203
ell 17, elapsed: 0.0003960132598876953
ell 16, elapsed: 0.0004611015319824219
ell 15, elapsed: 0.00040411949157714844
ell 14, elapsed: 0.00046515464782714844
ell 13, elapsed: 0.0003859996795654297
ell 12, elapsed: 0.0004849433898925781
ell 11, elapsed: 0.00038695335388183594
ell 10, elapsed: 0.00046706199645996094
ell 9, elapsed: 0.0003879070281982422
ell 8, elapsed: 0.0004680156707763672
ell 7, elapsed: 0.0003879070281982422
ell 6, elapsed: 0.0004801750183105469
ell 5, elapsed: 0.0003910064697265625
ell 4, elapsed: 0.00046706199645996094
ell 3, elapsed: 0.00039005279541015625
ell 2, elapsed: 0.0004630088806152344
ell 1, elapsed: 0.0003910064697265625
ell 0, elapsed: 0.0004630088806152344
  0.120477 seconds (10.83 k allocations: 697.938 KiB)
elapsed: 0.0004909038543701172
step:          0.053659 sec (0 allocations: 0 byte, 0.0% gc time)
swapping:      0.000497 sec (0 allocations: 0 byte, 0.0% gc time)
calc_Mellell!: 0.001238 sec (0 allocations: 0 byte, 0.0% gc time)
  t0 :  0.000354 sec (0 allocations: 0 byte, 0.0% gc time)
  tm2 : 0.012592 sec (0 allocations: 0 byte, 0.0% gc time)
  tm2s: 0.000286 sec (0 allocations: 0 byte, 0.0% gc time)
  tm4 : 0.033211 sec (0 allocations: 0 byte, 0.0% gc time)
  tp2 : 0.0 sec (0 allocations: 0 byte, 0.0% gc time)
  tp2s: 0.0 sec (0 allocations: 0 byte, 0.0% gc time)
  tp4 : 0.0 sec (0 allocations: 0 byte, 0.0% gc time)
calc_wtdll!:   0.046873 sec (1.344 k allocations: 147.0 KB, 0.0% gc time)
calc_wljj!:    0.003827 sec (6 allocations: 96 byte, 0.0% gc time)
mult_prefac!:  0.0 sec (0 allocations: 0 byte, 0.0% gc time)
convert:       0.0 sec (0 allocations: 0 byte, 0.0% gc time)
write:         0.004845 sec (0 allocations: 0 byte, 0.0% gc time)
test_rand_2f1: 0.0 sec (0 allocations: 0 byte, 0.0% gc time)
Closing outfile out/Ml21-cache.bin...   0.002179 seconds
  0.000363 seconds (52 allocations: 28.297 KiB)
make_phi():   0.002646 seconds (8.20 k allocations: 238.016 KiB)
  0.016082 seconds (12.10 k allocations: 322.000 KiB)
tskip:       1.9e-5 sec (0 allocations: 0 byte, 0.0% gc time)
tread:       0.002339 sec (19 allocations: 2.172 KB, 0.0% gc time)
tmultphi:    0.001358 sec (0 allocations: 0 byte, 0.0% gc time)
tbrfft:      0.004348 sec (896 allocations: 42.0 KB, 0.0% gc time)
tmultprefac: 0.002933 sec (0 allocations: 0 byte, 0.0% gc time)
toutfunc:    0.005093 sec (10.528 k allocations: 206.5 KB, 0.0% gc time)
Testing R=0.9 ... passed
Calculating fmax: 
  dlrec    = 4
  dlrecRg1 = -4
  q=1.1, R=0.8:	  0.385425 seconds (113.61 k allocations: 15.166 MiB, 10.68% gc time)

  0.385760 seconds (113.66 k allocations: 15.200 MiB, 10.67% gc time)
ℓ = 1202
Δℓ = 4
ΔℓRg1 = -4
N = 1600
q = 1.1
kmin = 1.0e-5
kmax = 100000.00000000004
χ0 = 0.023029999999999995
RR = RR.tsv
ℓmax = ℓmax.bin
f21 = f21.bin
kmin = 1.0e-5
kmax = 100000.0
dlrec    = 4
dlrecRg1 = -4
Output size: 5741568 bytes = 0.005347251892089844 GiB
Output size: 51264 bytes = 4.774332046508789e-5 GiB
Reading 'out/F21EllCache'...   0.001058 seconds (267 allocations: 84.656 KiB)
ellmax: 1202
lmaxcache: 1202
fell[:,1,1] = Complex{Float64}[7.519068145690986e-120 - 1.8416405474382574e-135im, 7.541664537386155e-120 - 1.847175067190611e-135im]
ell 1202, elapsed: 1.7881393432617188e-5
ell 1201, elapsed: 0.0003581047058105469
ell 1200, elapsed: 0.00034999847412109375
ell 1199, elapsed: 0.0003478527069091797
ell 1198, elapsed: 0.0003459453582763672
ell 1002, elapsed: 0.009525060653686523
ell 1001, elapsed: 0.000370025634765625
ell 1000, elapsed: 0.0003650188446044922
ell 999, elapsed: 0.00038909912109375
ell 998, elapsed: 0.0003650188446044922
ell 902, elapsed: 0.0047168731689453125
ell 901, elapsed: 0.0003631114959716797
ell 900, elapsed: 0.00034809112548828125
ell 899, elapsed: 0.00034809112548828125
ell 898, elapsed: 0.00035691261291503906
ell 802, elapsed: 0.004786968231201172
ell 801, elapsed: 0.0003650188446044922
ell 800, elapsed: 0.00034999847412109375
ell 799, elapsed: 0.00034689903259277344
ell 798, elapsed: 0.00034999847412109375
ell 702, elapsed: 0.004712104797363281
ell 701, elapsed: 0.0003578662872314453
ell 700, elapsed: 0.00034809112548828125
ell 699, elapsed: 0.0003540515899658203
ell 698, elapsed: 0.00034809112548828125
ell 602, elapsed: 0.0047969818115234375
ell 601, elapsed: 0.0003612041473388672
ell 600, elapsed: 0.00034689903259277344
ell 599, elapsed: 0.00034809112548828125
ell 598, elapsed: 0.00034689903259277344
ell 502, elapsed: 0.0046999454498291016
ell 501, elapsed: 0.000392913818359375
ell 500, elapsed: 0.0003490447998046875
ell 499, elapsed: 0.000347137451171875
ell 498, elapsed: 0.0003478527069091797
ell 402, elapsed: 0.004794120788574219
ell 401, elapsed: 0.0003590583801269531
ell 400, elapsed: 0.0003459453582763672
ell 399, elapsed: 0.00034499168395996094
ell 398, elapsed: 0.0003459453582763672
ell 302, elapsed: 0.004708051681518555
ell 301, elapsed: 0.00037598609924316406
ell 300, elapsed: 0.0003490447998046875
ell 299, elapsed: 0.00034618377685546875
ell 298, elapsed: 0.0003437995910644531
ell 202, elapsed: 0.004790067672729492
ell 201, elapsed: 0.0003578662872314453
ell 200, elapsed: 0.00034809112548828125
ell 199, elapsed: 0.00035381317138671875
ell 198, elapsed: 0.00044083595275878906
ell 152, elapsed: 0.0025680065155029297
ell 151, elapsed: 0.0003590583801269531
ell 150, elapsed: 0.0003509521484375
ell 149, elapsed: 0.0003838539123535156
ell 148, elapsed: 0.00034499168395996094
ell 127, elapsed: 0.0014638900756835938
ell 126, elapsed: 0.00035381317138671875
ell 125, elapsed: 0.0003578662872314453
ell 124, elapsed: 0.000347137451171875
ell 123, elapsed: 0.00034689903259277344
ell 114, elapsed: 0.0008091926574707031
ell 113, elapsed: 0.00034880638122558594
ell 112, elapsed: 0.0003540515899658203
ell 111, elapsed: 0.00034499168395996094
ell 110, elapsed: 0.00034499168395996094
ell 102, elapsed: 0.0008358955383300781
ell 101, elapsed: 0.0003540515899658203
ell 100, elapsed: 0.00034618377685546875
ell 99, elapsed: 0.0003440380096435547
ell 98, elapsed: 0.0003631114959716797
ell 97, elapsed: 0.0003859996795654297
ell 96, elapsed: 0.0004811286926269531
ell 95, elapsed: 0.0003859996795654297
ell 94, elapsed: 0.00045990943908691406
ell 93, elapsed: 0.00038909912109375
ell 92, elapsed: 0.0004601478576660156
ell 91, elapsed: 0.00038695335388183594
ell 90, elapsed: 0.0004591941833496094
ell 89, elapsed: 0.0004048347473144531
ell 88, elapsed: 0.000469207763671875
ell 87, elapsed: 0.00038695335388183594
ell 86, elapsed: 0.0004630088806152344
ell 85, elapsed: 0.00038504600524902344
ell 84, elapsed: 0.0004627704620361328
ell 83, elapsed: 0.00038504600524902344
ell 82, elapsed: 0.0004649162292480469
ell 81, elapsed: 0.0003840923309326172
ell 80, elapsed: 0.0004928112030029297
ell 79, elapsed: 0.0003859996795654297
ell 78, elapsed: 0.0004711151123046875
[...]
ell 788, elapsed: 0.0008859634399414062
ell 782, elapsed: 0.0016698837280273438
ell 781, elapsed: 0.0008411407470703125
ell 780, elapsed: 0.0008192062377929688
ell 779, elapsed: 0.0008220672607421875
ell 778, elapsed: 0.000823974609375
ell 772, elapsed: 0.0015578269958496094
ell 771, elapsed: 0.0008130073547363281
ell 770, elapsed: 0.0008180141448974609
ell 769, elapsed: 0.0008068084716796875
ell 768, elapsed: 0.0008170604705810547
ell 762, elapsed: 0.0015740394592285156
ell 761, elapsed: 0.0008170604705810547
ell 760, elapsed: 0.0008170604705810547
ell 759, elapsed: 0.0008280277252197266
ell 758, elapsed: 0.0008177757263183594
ell 752, elapsed: 0.0015490055084228516
ell 751, elapsed: 0.0008108615875244141
ell 750, elapsed: 0.0008318424224853516
ell 749, elapsed: 0.0008130073547363281
ell 748, elapsed: 0.0008118152618408203
ell 742, elapsed: 0.0015261173248291016
ell 741, elapsed: 0.000823974609375
ell 740, elapsed: 0.0008130073547363281
ell 739, elapsed: 0.0008101463317871094
ell 738, elapsed: 0.0008151531219482422
ell 732, elapsed: 0.0015380382537841797
ell 731, elapsed: 0.0008120536804199219
ell 730, elapsed: 0.0008120536804199219
ell 729, elapsed: 0.0008108615875244141
ell 728, elapsed: 0.0008180141448974609
ell 722, elapsed: 0.001566171646118164
ell 721, elapsed: 0.0008189678192138672
ell 720, elapsed: 0.0008130073547363281
ell 719, elapsed: 0.0008170604705810547
ell 718, elapsed: 0.0008249282836914062
ell 712, elapsed: 0.0015790462493896484
ell 711, elapsed: 0.000823974609375
ell 710, elapsed: 0.0008389949798583984
ell 709, elapsed: 0.000823974609375
ell 708, elapsed: 0.0008220672607421875
ell 702, elapsed: 0.0015740394592285156
ell 701, elapsed: 0.0008299350738525391
ell 700, elapsed: 0.0008170604705810547
ell 699, elapsed: 0.001107931137084961
ell 698, elapsed: 0.0007710456848144531
ell 692, elapsed: 0.0015969276428222656
ell 691, elapsed: 0.0008130073547363281
ell 690, elapsed: 0.0008158683776855469
ell 689, elapsed: 0.0008130073547363281
ell 688, elapsed: 0.0008299350738525391
ell 682, elapsed: 0.0015571117401123047
ell 681, elapsed: 0.0008118152618408203
ell 680, elapsed: 0.0008149147033691406
ell 679, elapsed: 0.0008280277252197266
ell 678, elapsed: 0.0008158683776855469
ell 672, elapsed: 0.001558065414428711
ell 671, elapsed: 0.0008058547973632812
ell 670, elapsed: 0.0008270740509033203
ell 669, elapsed: 0.0008080005645751953
ell 668, elapsed: 0.0008080005645751953
ell 662, elapsed: 0.0015540122985839844
ell 661, elapsed: 0.0008208751678466797
ell 660, elapsed: 0.0008380413055419922
ell 659, elapsed: 0.0008130073547363281
ell 658, elapsed: 0.0008180141448974609
ell 652, elapsed: 0.001567840576171875
ell 651, elapsed: 0.0008168220520019531
ell 650, elapsed: 0.0007681846618652344
ell 649, elapsed: 0.0007939338684082031
ell 648, elapsed: 0.0008130073547363281
ell 642, elapsed: 0.0014660358428955078
ell 641, elapsed: 0.0007760524749755859
ell 640, elapsed: 0.0007989406585693359
ell 639, elapsed: 0.0007898807525634766
ell 638, elapsed: 0.0007979869842529297
ell 632, elapsed: 0.0014820098876953125
ell 631, elapsed: 0.0008208751678466797
ell 630, elapsed: 0.0007951259613037109
ell 629, elapsed: 0.0007789134979248047
ell 628, elapsed: 0.0007929801940917969
ell 622, elapsed: 0.0015079975128173828
ell 621, elapsed: 0.0007810592651367188
ell 620, elapsed: 0.0007798671722412109
ell 619, elapsed: 0.0007939338684082031
ell 618, elapsed: 0.0008599758148193359
ell 612, elapsed: 0.0015308856964111328
ell 611, elapsed: 0.0008881092071533203
ell 610, elapsed: 0.000885009765625
ell 609, elapsed: 0.0008578300476074219
ell 608, elapsed: 0.0008602142333984375
ell 602, elapsed: 0.0015490055084228516
ell 601, elapsed: 0.0007979869842529297
ell 600, elapsed: 0.0010747909545898438
ell 599, elapsed: 0.0008080005645751953
ell 598, elapsed: 0.0008671283721923828
ell 592, elapsed: 0.0017709732055664062
ell 591, elapsed: 0.0008549690246582031
ell 590, elapsed: 0.0007519721984863281
ell 589, elapsed: 0.0007910728454589844
ell 588, elapsed: 0.0008101463317871094
ell 582, elapsed: 0.001522064208984375
ell 581, elapsed: 0.0007770061492919922
ell 580, elapsed: 0.0008101463317871094
ell 579, elapsed: 0.0010118484497070312
ell 578, elapsed: 0.0007960796356201172
ell 572, elapsed: 0.0017101764678955078
ell 571, elapsed: 0.0007898807525634766
ell 570, elapsed: 0.0008220672607421875
ell 569, elapsed: 0.0008149147033691406
ell 568, elapsed: 0.0007979869842529297
ell 562, elapsed: 0.0015270709991455078
ell 561, elapsed: 0.0008151531219482422
ell 560, elapsed: 0.0008060932159423828
ell 559, elapsed: 0.0008111000061035156
ell 558, elapsed: 0.0008151531219482422
ell 552, elapsed: 0.001461029052734375
ell 551, elapsed: 0.0007870197296142578
ell 550, elapsed: 0.0007879734039306641
ell 549, elapsed: 0.0007829666137695312
ell 548, elapsed: 0.0007498264312744141
ell 542, elapsed: 0.0015358924865722656
ell 541, elapsed: 0.000804901123046875
ell 540, elapsed: 0.0008001327514648438
ell 539, elapsed: 0.0007898807525634766
ell 538, elapsed: 0.0008158683776855469
ell 532, elapsed: 0.0015339851379394531
ell 531, elapsed: 0.0008080005645751953
ell 530, elapsed: 0.0007760524749755859
ell 529, elapsed: 0.0008139610290527344
ell 528, elapsed: 0.0007998943328857422
ell 522, elapsed: 0.0014908313751220703
ell 521, elapsed: 0.0008080005645751953
ell 520, elapsed: 0.0008220672607421875
ell 519, elapsed: 0.0008070468902587891
ell 518, elapsed: 0.0008080005645751953
ell 512, elapsed: 0.0017230510711669922
ell 511, elapsed: 0.0007848739624023438
ell 510, elapsed: 0.0007719993591308594
ell 509, elapsed: 0.0007579326629638672
ell 508, elapsed: 0.0007870197296142578
ell 502, elapsed: 0.0015020370483398438
ell 501, elapsed: 0.0008020401000976562
ell 500, elapsed: 0.0008149147033691406
ell 499, elapsed: 0.0007939338684082031
ell 498, elapsed: 0.0008199214935302734
ell 492, elapsed: 0.0015499591827392578
ell 491, elapsed: 0.0008170604705810547
ell 490, elapsed: 0.0008089542388916016
ell 489, elapsed: 0.0008609294891357422
ell 488, elapsed: 0.0007989406585693359
ell 482, elapsed: 0.0015099048614501953
ell 481, elapsed: 0.0008099079132080078
ell 480, elapsed: 0.0008330345153808594
ell 479, elapsed: 0.0008039474487304688
ell 478, elapsed: 0.0007998943328857422
ell 472, elapsed: 0.0015990734100341797
ell 471, elapsed: 0.0008840560913085938
ell 470, elapsed: 0.0009028911590576172
ell 469, elapsed: 0.0008609294891357422
ell 468, elapsed: 0.0009100437164306641
ell 462, elapsed: 0.0016601085662841797
ell 461, elapsed: 0.0008130073547363281
ell 460, elapsed: 0.0008070468902587891
ell 459, elapsed: 0.0008311271667480469
ell 458, elapsed: 0.0008080005645751953
ell 452, elapsed: 0.0014619827270507812
ell 451, elapsed: 0.0007708072662353516
ell 450, elapsed: 0.0007719993591308594
ell 449, elapsed: 0.0007939338684082031
ell 448, elapsed: 0.0007588863372802734
ell 442, elapsed: 0.001528024673461914
ell 441, elapsed: 0.0008192062377929688
ell 440, elapsed: 0.0008730888366699219
ell 439, elapsed: 0.0008671283721923828
ell 438, elapsed: 0.0008931159973144531
ell 432, elapsed: 0.0015559196472167969
ell 431, elapsed: 0.0008089542388916016
ell 430, elapsed: 0.0008170604705810547
ell 429, elapsed: 0.0007970333099365234
ell 428, elapsed: 0.0008249282836914062
ell 422, elapsed: 0.001833200454711914
ell 421, elapsed: 0.0007560253143310547
ell 420, elapsed: 0.0008170604705810547
ell 419, elapsed: 0.0008180141448974609
ell 418, elapsed: 0.0008020401000976562
ell 412, elapsed: 0.0017499923706054688
ell 411, elapsed: 0.0008058547973632812
ell 410, elapsed: 0.0008039474487304688
ell 409, elapsed: 0.0007908344268798828
ell 408, elapsed: 0.0007941722869873047
ell 402, elapsed: 0.0014801025390625
ell 401, elapsed: 0.0007870197296142578
ell 400, elapsed: 0.0007700920104980469
ell 399, elapsed: 0.0007760524749755859
ell 398, elapsed: 0.0007948875427246094
ell 392, elapsed: 0.001737833023071289
ell 391, elapsed: 0.0007870197296142578
ell 390, elapsed: 0.0008101463317871094
ell 389, elapsed: 0.0008230209350585938
ell 388, elapsed: 0.0008120536804199219
ell 382, elapsed: 0.0014908313751220703
ell 381, elapsed: 0.0007879734039306641
ell 380, elapsed: 0.0007829666137695312
ell 379, elapsed: 0.0007691383361816406
ell 378, elapsed: 0.0007839202880859375
ell 372, elapsed: 0.0018439292907714844
ell 371, elapsed: 0.0009021759033203125
ell 370, elapsed: 0.0008840560913085938
ell 369, elapsed: 0.0008680820465087891
ell 368, elapsed: 0.0008897781372070312
ell 362, elapsed: 0.0015630722045898438
ell 361, elapsed: 0.0008158683776855469
ell 360, elapsed: 0.0008199214935302734
ell 359, elapsed: 0.0008308887481689453
ell 358, elapsed: 0.0008139610290527344
ell 352, elapsed: 0.0017018318176269531
ell 351, elapsed: 0.0007529258728027344
ell 350, elapsed: 0.0008308887481689453
ell 349, elapsed: 0.0007889270782470703
ell 348, elapsed: 0.0008029937744140625
ell 342, elapsed: 0.0015590190887451172
ell 341, elapsed: 0.0008280277252197266
ell 340, elapsed: 0.0008170604705810547
ell 339, elapsed: 0.0008039474487304688
ell 338, elapsed: 0.0008058547973632812
ell 332, elapsed: 0.001569986343383789
ell 331, elapsed: 0.0008099079132080078
ell 330, elapsed: 0.0007989406585693359
ell 329, elapsed: 0.0008041858673095703
ell 328, elapsed: 0.0008070468902587891
ell 322, elapsed: 0.0017421245574951172
ell 321, elapsed: 0.0007731914520263672
ell 320, elapsed: 0.0008060932159423828
ell 319, elapsed: 0.0008180141448974609
ell 318, elapsed: 0.0007989406585693359
ell 312, elapsed: 0.0015110969543457031
ell 311, elapsed: 0.0007991790771484375
ell 310, elapsed: 0.000823974609375
ell 309, elapsed: 0.000804901123046875
ell 308, elapsed: 0.0008139610290527344
ell 302, elapsed: 0.001789093017578125
ell 301, elapsed: 0.0008249282836914062
ell 300, elapsed: 0.0008177757263183594
ell 299, elapsed: 0.0007700920104980469
ell 298, elapsed: 0.0008149147033691406
ell 292, elapsed: 0.0015249252319335938
ell 291, elapsed: 0.0008080005645751953
ell 290, elapsed: 0.0008141994476318359
ell 289, elapsed: 0.0008020401000976562
ell 288, elapsed: 0.0008270740509033203
ell 282, elapsed: 0.0015430450439453125
ell 281, elapsed: 0.0008108615875244141
ell 280, elapsed: 0.0008089542388916016
ell 279, elapsed: 0.0008118152618408203
ell 278, elapsed: 0.0008020401000976562
ell 272, elapsed: 0.001814126968383789
ell 271, elapsed: 0.0008189678192138672
ell 270, elapsed: 0.0008308887481689453
ell 269, elapsed: 0.0008127689361572266
ell 268, elapsed: 0.0008039474487304688
ell 262, elapsed: 0.0017549991607666016
ell 261, elapsed: 0.0007460117340087891
ell 260, elapsed: 0.0008211135864257812
ell 259, elapsed: 0.0008051395416259766
ell 258, elapsed: 0.0008170604705810547
ell 252, elapsed: 0.0015149116516113281
ell 251, elapsed: 0.0007939338684082031
ell 250, elapsed: 0.0007791519165039062
ell 249, elapsed: 0.00078582763671875
ell 248, elapsed: 0.0008101463317871094
ell 242, elapsed: 0.001676797866821289
ell 241, elapsed: 0.0007340908050537109
ell 240, elapsed: 0.0009942054748535156
ell 239, elapsed: 0.0007998943328857422
ell 238, elapsed: 0.0007641315460205078
ell 232, elapsed: 0.0014998912811279297
ell 231, elapsed: 0.0008060932159423828
ell 230, elapsed: 0.0008192062377929688
ell 229, elapsed: 0.0008039474487304688
ell 228, elapsed: 0.0008001327514648438
ell 222, elapsed: 0.001463174819946289
ell 221, elapsed: 0.0008058547973632812
ell 220, elapsed: 0.0008111000061035156
ell 219, elapsed: 0.0007910728454589844
ell 218, elapsed: 0.0008189678192138672
ell 212, elapsed: 0.0015311241149902344
ell 211, elapsed: 0.0007450580596923828
ell 210, elapsed: 0.0008170604705810547
ell 209, elapsed: 0.0008120536804199219
ell 208, elapsed: 0.0008170604705810547
ell 202, elapsed: 0.0017099380493164062
ell 201, elapsed: 0.0007188320159912109
ell 200, elapsed: 0.0007948875427246094
ell 199, elapsed: 0.0007948875427246094
ell 198, elapsed: 0.0007770061492919922
ell 192, elapsed: 0.0014789104461669922
ell 191, elapsed: 0.0007781982421875
ell 190, elapsed: 0.0007920265197753906
ell 189, elapsed: 0.0007688999176025391
ell 188, elapsed: 0.0007579326629638672
ell 182, elapsed: 0.0014729499816894531
ell 181, elapsed: 0.0007781982421875
ell 180, elapsed: 0.0008859634399414062
ell 179, elapsed: 0.0008089542388916016
ell 178, elapsed: 0.0008158683776855469
ell 172, elapsed: 0.001631021499633789
ell 171, elapsed: 0.0008170604705810547
ell 170, elapsed: 0.0008180141448974609
ell 169, elapsed: 0.0008139610290527344
ell 168, elapsed: 0.0008139610290527344
ell 162, elapsed: 0.0015099048614501953
ell 161, elapsed: 0.0007832050323486328
ell 160, elapsed: 0.00080108642578125
ell 159, elapsed: 0.0008041858673095703
ell 158, elapsed: 0.0008311271667480469
ell 152, elapsed: 0.001522064208984375
ell 151, elapsed: 0.0007641315460205078
ell 150, elapsed: 0.00080108642578125
ell 149, elapsed: 0.0008051395416259766
ell 148, elapsed: 0.0008120536804199219
ell 142, elapsed: 0.001505136489868164
ell 141, elapsed: 0.0007979869842529297
ell 140, elapsed: 0.0007851123809814453
ell 139, elapsed: 0.0007960796356201172
ell 138, elapsed: 0.0007920265197753906
ell 132, elapsed: 0.0017120838165283203
ell 131, elapsed: 0.0007910728454589844
ell 130, elapsed: 0.0008099079132080078
ell 129, elapsed: 0.0007908344268798828
ell 128, elapsed: 0.0008118152618408203
ell 122, elapsed: 0.0015149116516113281
ell 121, elapsed: 0.0007998943328857422
ell 120, elapsed: 0.0008060932159423828
ell 119, elapsed: 0.0007960796356201172
ell 118, elapsed: 0.0008251667022705078
ell 112, elapsed: 0.0015599727630615234
ell 111, elapsed: 0.0007989406585693359
ell 110, elapsed: 0.0008139610290527344
ell 109, elapsed: 0.0008139610290527344
ell 108, elapsed: 0.0008029937744140625
ell 102, elapsed: 0.0015001296997070312
ell 101, elapsed: 0.0043179988861083984
ell 100, elapsed: 0.00406193733215332
ell 99, elapsed: 0.003885030746459961
ell 98, elapsed: 0.0037491321563720703
ell 92, elapsed: 0.006429195404052734
ell 91, elapsed: 0.0038628578186035156
ell 90, elapsed: 0.003715991973876953
ell 89, elapsed: 0.004606962203979492
ell 88, elapsed: 0.004481077194213867
ell 82, elapsed: 0.006537914276123047
ell 81, elapsed: 0.003906965255737305
ell 80, elapsed: 0.004418134689331055
ell 79, elapsed: 0.004255056381225586
ell 78, elapsed: 0.004097938537597656
ell 72, elapsed: 0.0071868896484375
ell 71, elapsed: 0.004633903503417969
ell 70, elapsed: 0.0038499832153320312
ell 69, elapsed: 0.0037970542907714844
ell 68, elapsed: 0.0036787986755371094
ell 62, elapsed: 0.006439924240112305
ell 61, elapsed: 0.004377126693725586
ell 60, elapsed: 0.0038399696350097656
ell 59, elapsed: 0.0034329891204833984
ell 58, elapsed: 0.0032110214233398438
ell 52, elapsed: 0.006106853485107422
ell 51, elapsed: 0.0036728382110595703
ell 50, elapsed: 0.003278970718383789
ell 49, elapsed: 0.00410914421081543
ell 48, elapsed: 0.00467991828918457
ell 42, elapsed: 0.007030963897705078
ell 41, elapsed: 0.0036580562591552734
ell 40, elapsed: 0.00403594970703125
ell 39, elapsed: 0.00457000732421875
ell 38, elapsed: 0.0036859512329101562
ell 32, elapsed: 0.007088184356689453
ell 31, elapsed: 0.0038900375366210938
ell 30, elapsed: 0.0039179325103759766
ell 29, elapsed: 0.004143953323364258
ell 28, elapsed: 0.004441022872924805
ell 22, elapsed: 0.008508920669555664
ell 21, elapsed: 0.004106998443603516
ell 20, elapsed: 0.0038161277770996094
ell 19, elapsed: 0.0032279491424560547
ell 18, elapsed: 0.0034639835357666016
ell 12, elapsed: 0.006608009338378906
ell 11, elapsed: 0.004333972930908203
ell 10, elapsed: 0.004152059555053711
ell 9, elapsed: 0.003965854644775391
ell 8, elapsed: 0.0032799243927001953
  0.815746 seconds (66.75 k allocations: 12.139 MiB)
elapsed: 0.005163908004760742
step:          0.06645 sec (0 allocations: 0 byte, 0.0% gc time)
swapping:      0.000786 sec (0 allocations: 0 byte, 0.0% gc time)
calc_Mellell!: 0.03396 sec (0 allocations: 0 byte, 0.0% gc time)
  t0 :  0.010222 sec (0 allocations: 0 byte, 0.0% gc time)
  tm2 : 0.076735 sec (0 allocations: 0 byte, 0.0% gc time)
  tm2s: 0.008265 sec (0 allocations: 0 byte, 0.0% gc time)
  tm4 : 0.204732 sec (0 allocations: 0 byte, 0.0% gc time)
  tp2 : 0.0 sec (0 allocations: 0 byte, 0.0% gc time)
  tp2s: 0.0 sec (0 allocations: 0 byte, 0.0% gc time)
  tp4 : 0.0 sec (0 allocations: 0 byte, 0.0% gc time)
calc_wtdll!:   0.556062 sec (49.2 k allocations: 11.133 MB, 0.0% gc time)
calc_wljj!:    0.039665 sec (69 allocations: 1.078 KB, 0.0% gc time)
mult_prefac!:  0.0 sec (0 allocations: 0 byte, 0.0% gc time)
convert:       0.0 sec (0 allocations: 0 byte, 0.0% gc time)
write:         0.037748 sec (0 allocations: 0 byte, 0.0% gc time)
test_rand_2f1: 0.0 sec (0 allocations: 0 byte, 0.0% gc time)
Closing outfile out/MlCache/MlCache.bin...   0.000012 seconds
xi, l=0, nu=0:   0.381501 seconds (551.98 k allocations: 26.845 MiB)
xi, l=0, nu=-2:  0.002247 seconds (144 allocations: 149.562 KiB)
Created 'out/xi.tsv'.
  q=1.1, R=0.6:	  0.718917 seconds (291.08 k allocations: 38.895 MiB, 2.50% gc time)
  q=1.1, R=0.7:	  0.827818 seconds (304.75 k allocations: 40.996 MiB, 1.52% gc time)
  q=1.1, R=0.8:	  0.864685 seconds (299.14 k allocations: 40.132 MiB, 1.09% gc time)
  q=1.1, R=0.9:	  0.974642 seconds (293.57 k allocations: 39.286 MiB, 0.75% gc time)
  q=1.1, R=0.998:	 20.467415 seconds (10.67 M allocations: 823.453 MiB, 0.27% gc time)
  q=1.1, R=1.0:	  0.004024 seconds (10.24 k allocations: 768.375 KiB)

ℓ = 1000
Δℓ = 4
ΔℓRg1 = -4
N = 4096
q = 1.1
kmin = 1.0e-5
kmax = 1000.0
χ0 = 0.001
RR = RR.tsv
ℓmax = ℓmax.bin
f21 = f21.bin
kmin = 1.0e-5
kmax = 1000.0
dlrec    = 4
dlrecRg1 = -4
Output size: 1573632 bytes = 0.0014655590057373047 GiB
Output size: 786816 bytes = 0.0007327795028686523 GiB
Reading 'out/F21EllCache'...   0.001431 seconds (268 allocations: 533.531 KiB)
ellmax: 1002
lmaxcache: 1000
fell[:,1,1] = Complex{Float64}[1.7262928128202118e-224 - 4.2281979352226944e-240im, 1.7282693092099662e-224 - 4.233038955177176e-240im]
ell 1002, elapsed: 3.2901763916015625e-5
ell 1001, elapsed: 0.0007319450378417969
ell 1000, elapsed: 0.0006680488586425781
ell 999, elapsed: 0.007640838623046875
ell 998, elapsed: 0.0074901580810546875
ell 44, elapsed: 0.620556116104126
ell 43, elapsed: 0.00728297233581543
ell 42, elapsed: 0.007266044616699219
ell 41, elapsed: 0.007720947265625
ell 40, elapsed: 0.006495952606201172
  0.673011 seconds (4.55 k allocations: 320.031 KiB)
elapsed: 0.006467103958129883
step:          0.616097 sec (0 allocations: 0 byte, 0.0% gc time)
swapping:      0.000546 sec (0 allocations: 0 byte, 0.0% gc time)
calc_Mellell!: 0.001392 sec (0 allocations: 0 byte, 0.0% gc time)
  t0 :  0.000518 sec (0 allocations: 0 byte, 0.0% gc time)
  tm2 : 0.012795 sec (0 allocations: 0 byte, 0.0% gc time)
  tm2s: 0.000308 sec (0 allocations: 0 byte, 0.0% gc time)
  tm4 : 0.035247 sec (0 allocations: 0 byte, 0.0% gc time)
  tp2 : 0.0 sec (0 allocations: 0 byte, 0.0% gc time)
  tp2s: 0.0 sec (0 allocations: 0 byte, 0.0% gc time)
  tp4 : 0.0 sec (0 allocations: 0 byte, 0.0% gc time)
calc_wtdll!:   0.049057 sec (480 allocations: 52.5 KB, 0.0% gc time)
calc_wljj!:    0.001267 sec (1 allocations: 16 byte, 0.0% gc time)
mult_prefac!:  0.0 sec (0 allocations: 0 byte, 0.0% gc time)
convert:       0.0 sec (0 allocations: 0 byte, 0.0% gc time)
write:         0.000996 sec (0 allocations: 0 byte, 0.0% gc time)
test_rand_2f1: 0.0 sec (0 allocations: 0 byte, 0.0% gc time)
Closing outfile out/MlCache/MlCache.bin...   0.001313 seconds
  0.481885 seconds (54 allocations: 67.203 KiB)
make_phi():   0.008690 seconds (80 allocations: 276.297 KiB)
  0.002999 seconds (108 allocations: 5.812 KiB)
tskip:       1.0e-6 sec (0 allocations: 0 byte, 0.0% gc time)
tread:       0.000656 sec (19 allocations: 1.312 KB, 0.0% gc time)
tmultphi:    0.000385 sec (0 allocations: 0 byte, 0.0% gc time)
tbrfft:      0.001182 sec (96 allocations: 4.5 KB, 0.0% gc time)
tmultprefac: 0.000758 sec (0 allocations: 0 byte, 0.0% gc time)
toutfunc:    0.000118 sec (0 allocations: 0 byte, 0.0% gc time)
Created 'out/wl42_jj00.tsv'.
Created 'out/wl42_jj02.tsv'.
   Testing TwoFAST tests passed 
