Julia Version 1.6.0-DEV.1140
Commit 4ccfd37dc9 (2020-10-06 08:48 UTC)
Platform Info:
  OS: Linux (x86_64-pc-linux-gnu)
  CPU: AMD EPYC 7502 32-Core Processor
  WORD_SIZE: 64
  LIBM: libopenlibm
  LLVM: libLLVM-10.0.1 (ORCJIT, znver2)
Environment:
  JULIA_DEPOT_PATH = ::/usr/local/share/julia
  JULIA_NUM_THREADS = 2

  Resolving package versions...
  Installed FFTW_jll ───────────────────── v3.3.9+5
  Installed IntelOpenMP_jll ────────────── v2018.0.3+0
  Installed Readables ──────────────────── v0.3.3
  Installed MKL_jll ────────────────────── v2020.2.254+0
  Installed SpecialFunctions ───────────── v0.10.3
  Installed FFTW ───────────────────────── v1.2.4
  Installed BinaryProvider ─────────────── v0.5.10
  Installed Reexport ───────────────────── v0.2.0
  Installed OpenSpecFun_jll ────────────── v0.5.3+3
  Installed CompilerSupportLibraries_jll ─ v0.3.3+0
  Installed GenericSVD ─────────────────── v0.3.0
  Installed AbstractFFTs ───────────────── v0.5.0
  Installed TwoFAST ────────────────────── v0.1.3
  Installed GenericSchur ───────────────── v0.4.0
  Installed ArbNumerics ────────────────── v1.2.1
Updating `~/.julia/environments/v1.6/Project.toml`
  [0dd23c3e] + TwoFAST v0.1.3
Updating `~/.julia/environments/v1.6/Manifest.toml`
  [621f4979] + AbstractFFTs v0.5.0
  [7e558dbc] + ArbNumerics v1.2.1
  [b99e7846] + BinaryProvider v0.5.10
  [e66e0078] + CompilerSupportLibraries_jll v0.3.3+0
  [7a1cc6ca] + FFTW v1.2.4
  [f5851436] + FFTW_jll v3.3.9+5
  [01680d73] + GenericSVD v0.3.0
  [c145ed77] + GenericSchur v0.4.0
  [1d5cc7b8] + IntelOpenMP_jll v2018.0.3+0
  [856f044c] + MKL_jll v2020.2.254+0
  [efe28fd5] + OpenSpecFun_jll v0.5.3+3
  [0d4725de] + Readables v0.3.3
  [189a3867] + Reexport v0.2.0
  [276daf66] + SpecialFunctions v0.10.3
  [0dd23c3e] + TwoFAST v0.1.3
  [56f22d72] + Artifacts
  [2a0f44e3] + Base64
  [ade2ca70] + Dates
  [8bb1440f] + DelimitedFiles
  [8ba89e20] + Distributed
  [b77e0a4c] + InteractiveUtils
  [76f85450] + LibGit2
  [8f399da3] + Libdl
  [37e2e46d] + LinearAlgebra
  [56ddb016] + Logging
  [d6f4376e] + Markdown
  [a63ad114] + Mmap
  [44cfe95a] + Pkg
  [de0858da] + Printf
  [3fa0cd96] + REPL
  [9a3f8284] + Random
  [ea8e919c] + SHA
  [9e88b42a] + Serialization
  [6462fe0b] + Sockets
  [fa267f1f] + TOML
  [8dfed614] + Test
  [cf7118a7] + UUIDs
  [4ec0a83e] + Unicode
   Building FFTW ───────→ `~/.julia/scratchspaces/44cfe95a-1eb2-52ea-b672-e2afdf69b78f/8b7c16b56936047ca41bf25effa137ae0b381ae8/build.log`
   Building ArbNumerics → `~/.julia/scratchspaces/44cfe95a-1eb2-52ea-b672-e2afdf69b78f/329a81d67c64e3a51c176a243b6424fbe39213d0/build.log`
    Testing TwoFAST
Status `/tmp/jl_rMI9YW/Project.toml`
  [7e558dbc] ArbNumerics v1.2.1
  [39dd38d3] Dierckx v0.5.0
  [7a1cc6ca] FFTW v1.2.4
  [276daf66] SpecialFunctions v0.10.3
  [0dd23c3e] TwoFAST v0.1.3
  [8bb1440f] DelimitedFiles
  [37e2e46d] LinearAlgebra
  [56ddb016] Logging
  [8dfed614] Test
Status `/tmp/jl_rMI9YW/Manifest.toml`
  [621f4979] AbstractFFTs v0.5.0
  [7e558dbc] ArbNumerics v1.2.1
  [b99e7846] BinaryProvider v0.5.10
  [e66e0078] CompilerSupportLibraries_jll v0.3.3+0
  [39dd38d3] Dierckx v0.5.0
  [cd4c43a9] Dierckx_jll v0.0.1+0
  [7a1cc6ca] FFTW v1.2.4
  [f5851436] FFTW_jll v3.3.9+5
  [01680d73] GenericSVD v0.3.0
  [c145ed77] GenericSchur v0.4.0
  [1d5cc7b8] IntelOpenMP_jll v2018.0.3+0
  [856f044c] MKL_jll v2020.2.254+0
  [efe28fd5] OpenSpecFun_jll v0.5.3+3
  [0d4725de] Readables v0.3.3
  [189a3867] Reexport v0.2.0
  [276daf66] SpecialFunctions v0.10.3
  [0dd23c3e] TwoFAST v0.1.3
  [56f22d72] Artifacts
  [2a0f44e3] Base64
  [ade2ca70] Dates
  [8bb1440f] DelimitedFiles
  [8ba89e20] Distributed
  [b77e0a4c] InteractiveUtils
  [76f85450] LibGit2
  [8f399da3] Libdl
  [37e2e46d] LinearAlgebra
  [56ddb016] Logging
  [d6f4376e] Markdown
  [a63ad114] Mmap
  [44cfe95a] Pkg
  [de0858da] Printf
  [3fa0cd96] REPL
  [9a3f8284] Random
  [ea8e919c] SHA
  [9e88b42a] Serialization
  [6462fe0b] Sockets
  [fa267f1f] TOML
  [8dfed614] Test
  [cf7118a7] UUIDs
  [4ec0a83e] Unicode
    Testing Running tests...
WARNING: could not import Printf.ini_hex into ArbNumerics
WARNING: could not import Printf.ini_HEX into ArbNumerics
t = 0.0 sec (0 allocations: 0 byte, 0.0% gc time)
typeof(t) = NamedTuple{(:value, :time, :bytes, :gctime, :gcstats), Tuple{DataType, Float64, Int64, Float64, Base.GC_Diff}}
TwoFAST.PerformanceStats.TimedType = Union{NamedTuple{(:value, :time, :bytes, :gctime, :gcstats), Tuple{T, Float64, Int64, Float64, Base.GC_Diff}}, Tuple{Any, Float64, Int64, Float64, Base.GC_Diff}} where T
t = 0.0 sec (0 allocations: 0 byte, 0.0% gc time)
t: 0.0 sec (0 allocations: 0 byte, 0.0% gc time)
Testing ξ(r), ℓ=0, ν=-1 ... passed
Testing ξ(r), ℓ=0, ν=0 ... passed
Testing ξ(r), ℓ=0, ν=1 ... passed
Testing ξ(r), ℓ=0, ν=2 ... passed
Testing ξ(r), ℓ=0, ν=3 ... passed
Testing ξ(r), ℓ=1, ν=0 ... passed
Testing ξ(r), ℓ=1, ν=1 ... passed
Testing ξ(r), ℓ=1, ν=2 ... passed
Testing ξ(r), ℓ=1, ν=3 ... passed
Testing ξ(r), ℓ=2, ν=-1 ... passed
Testing ξ(r), ℓ=2, ν=0 ... passed
Testing ξ(r), ℓ=2, ν=1 ... passed
Testing ξ(r), ℓ=2, ν=2 ... passed
Testing ξ(r), ℓ=2, ν=3 ... passed
Testing ξ(r), ℓ=3, ν=-1 ... passed
Testing ξ(r), ℓ=3, ν=0 ... passed
Testing ξ(r), ℓ=3, ν=1 ... passed
Testing ξ(r), ℓ=3, ν=2 ... passed
Testing ξ(r), ℓ=3, ν=3 ... passed
Testing ξ(r), ℓ=4, ν=-1 ... passed
Testing ξ(r), ℓ=4, ν=0 ... passed
Testing ξ(r), ℓ=4, ν=1 ... passed
Testing ξ(r), ℓ=4, ν=2 ... passed
Testing ξ(r), ℓ=4, ν=3 ... passed
Testing ξ(r) ... passed
Testing ξ′(r) ... passed
Testing ξ″(r) ... passed
Calculating fmax: 
  dlrec    = 4
  dlrecRg1 = -4
  q=1.1, R=1.1:	  3.592181 seconds (842.81 k allocations: 53.898 MiB, 1.50% gc time, 91.17% compilation time)

  3.605913 seconds (855.30 k allocations: 54.685 MiB, 1.49% gc time, 91.20% compilation time)
ℓ = 1202
Δℓ = 4
ΔℓRg1 = -4
N = 1600
q = 1.1
kmin = 1.0e-5
kmax = 100000.00000000004
χ0 = 0.023029999999999995
RR = RR.tsv
ℓmax = ℓmax.bin
f21 = f21.bin
kmin = 1.0e-5
kmax = 100000.0
dlrec    = 4
dlrecRg1 = -4
Output size: 5741568 bytes = 0.005347251892089844 GiB
Output size: 51264 bytes = 4.774332046508789e-5 GiB
Reading 'out/F21EllCache'...   0.602470 seconds (426.51 k allocations: 24.993 MiB, 99.62% compilation time)
ellmax: 1202
lmaxcache: 1202
fell[:,1,1] = ComplexF64[3.9583795592771634e-52 - 9.695233714158177e-68im, 3.990121772925759e-52 - 9.772979714843386e-68im]
ell 1202, elapsed: 3.814697265625e-5
ell 1201, elapsed: 1.1728200912475586
ell 1200, elapsed: 0.0004398822784423828
ell 1199, elapsed: 0.00040793418884277344
ell 1198, elapsed: 0.0005319118499755859
ell 1002, elapsed: 0.00875401496887207
ell 1001, elapsed: 0.0004050731658935547
ell 1000, elapsed: 0.0003910064697265625
ell 999, elapsed: 0.0003981590270996094
ell 998, elapsed: 0.0004029273986816406
ell 902, elapsed: 0.004576921463012695
ell 901, elapsed: 0.000408172607421875
ell 900, elapsed: 0.0005400180816650391
ell 899, elapsed: 0.0004010200500488281
ell 898, elapsed: 0.0004000663757324219
ell 802, elapsed: 0.004558086395263672
ell 801, elapsed: 0.0004019737243652344
ell 800, elapsed: 0.0003879070281982422
ell 799, elapsed: 0.00039196014404296875
ell 798, elapsed: 0.0003910064697265625
ell 702, elapsed: 0.004411935806274414
ell 701, elapsed: 0.0005857944488525391
ell 700, elapsed: 0.0003910064697265625
ell 699, elapsed: 0.00038909912109375
ell 698, elapsed: 0.0003991127014160156
ell 602, elapsed: 0.0045130252838134766
ell 601, elapsed: 0.00040793418884277344
ell 600, elapsed: 0.0003960132598876953
ell 599, elapsed: 0.00039696693420410156
ell 598, elapsed: 0.0003960132598876953
ell 502, elapsed: 0.004599094390869141
ell 501, elapsed: 0.00047898292541503906
ell 500, elapsed: 0.0003910064697265625
ell 499, elapsed: 0.00039386749267578125
ell 498, elapsed: 0.000392913818359375
ell 402, elapsed: 0.004510164260864258
ell 401, elapsed: 0.00040912628173828125
ell 400, elapsed: 0.0003941059112548828
ell 399, elapsed: 0.0005140304565429688
ell 398, elapsed: 0.00039577484130859375
ell 302, elapsed: 0.00454401969909668
ell 301, elapsed: 0.00040602684020996094
ell 300, elapsed: 0.0003960132598876953
ell 299, elapsed: 0.0003998279571533203
ell 298, elapsed: 0.00039887428283691406
ell 202, elapsed: 0.0045261383056640625
ell 201, elapsed: 0.00040793418884277344
ell 200, elapsed: 0.0005130767822265625
ell 199, elapsed: 0.00039696693420410156
ell 198, elapsed: 0.00039315223693847656
ell 152, elapsed: 0.002351045608520508
ell 151, elapsed: 0.00055694580078125
ell 150, elapsed: 0.0004010200500488281
ell 149, elapsed: 0.0003948211669921875
ell 148, elapsed: 0.0004088878631591797
ell 127, elapsed: 0.0012958049774169922
ell 126, elapsed: 0.0003972053527832031
ell 125, elapsed: 0.0003960132598876953
ell 124, elapsed: 0.0005338191986083984
ell 123, elapsed: 0.0003960132598876953
ell 114, elapsed: 0.0008041858673095703
ell 113, elapsed: 0.00039386749267578125
ell 112, elapsed: 0.00039696693420410156
ell 111, elapsed: 0.0003941059112548828
ell 110, elapsed: 0.00039505958557128906
ell 102, elapsed: 0.0007638931274414062
ell 101, elapsed: 0.0005660057067871094
ell 100, elapsed: 0.0003991127014160156
ell 99, elapsed: 0.00039196014404296875
ell 98, elapsed: 0.0003960132598876953
ell 97, elapsed: 0.0004620552062988281
ell 96, elapsed: 0.0004551410675048828
ell 95, elapsed: 0.0004429817199707031
ell 94, elapsed: 0.00044608116149902344
ell 93, elapsed: 0.0005860328674316406
ell 92, elapsed: 0.00045299530029296875
ell 91, elapsed: 0.00045990943908691406
ell 90, elapsed: 0.0004470348358154297
ell 89, elapsed: 0.0004551410675048828
ell 88, elapsed: 0.0004432201385498047
ell 87, elapsed: 0.0004420280456542969
ell 86, elapsed: 0.00045108795166015625
ell 85, elapsed: 0.0004429817199707031
ell 84, elapsed: 0.0005869865417480469
ell 83, elapsed: 0.0004420280456542969
ell 82, elapsed: 0.00044083595275878906
ell 81, elapsed: 0.0004329681396484375
ell 80, elapsed: 0.0004432201385498047
ell 79, elapsed: 0.0004448890686035156
ell 78, elapsed: 0.00044083595275878906
ell 77, elapsed: 0.0004448890686035156
ell 76, elapsed: 0.0006248950958251953
ell 75, elapsed: 0.0004432201385498047
ell 74, elapsed: 0.0004410743713378906
ell 73, elapsed: 0.0004341602325439453
ell 72, elapsed: 0.0004470348358154297
ell 71, elapsed: 0.0004401206970214844
ell 70, elapsed: 0.0004658699035644531
ell 69, elapsed: 0.0004489421844482422
ell 68, elapsed: 0.0005571842193603516
ell 67, elapsed: 0.0004398822784423828
ell 66, elapsed: 0.00044083595275878906
ell 65, elapsed: 0.00043702125549316406
ell 64, elapsed: 0.00044989585876464844
ell 63, elapsed: 0.0004448890686035156
ell 62, elapsed: 0.0004661083221435547
ell 61, elapsed: 0.00045013427734375
ell 60, elapsed: 0.00044608116149902344
ell 59, elapsed: 0.0004899501800537109
ell 58, elapsed: 0.00044989585876464844
ell 57, elapsed: 0.00045418739318847656
ell 56, elapsed: 0.00044417381286621094
ell 55, elapsed: 0.0004420280456542969
ell 54, elapsed: 0.0004451274871826172
ell 53, elapsed: 0.0004420280456542969
ell 52, elapsed: 0.00045800209045410156
ell 51, elapsed: 0.0004849433898925781
ell 50, elapsed: 0.00044798851013183594
ell 49, elapsed: 0.00044798851013183594
ell 48, elapsed: 0.0004429817199707031
ell 47, elapsed: 0.00045180320739746094
ell 46, elapsed: 0.0004439353942871094
ell 45, elapsed: 0.0004470348358154297
ell 44, elapsed: 0.00044989585876464844
ell 43, elapsed: 0.0004489421844482422
ell 42, elapsed: 0.00044989585876464844
ell 41, elapsed: 0.00045013427734375
ell 40, elapsed: 0.00045013427734375
ell 39, elapsed: 0.00045800209045410156
ell 38, elapsed: 0.0004410743713378906
ell 37, elapsed: 0.00044417381286621094
ell 36, elapsed: 0.0004439353942871094
ell 35, elapsed: 0.00044989585876464844
ell 34, elapsed: 0.0004878044128417969
ell 33, elapsed: 0.0004467964172363281
ell 32, elapsed: 0.0004451274871826172
ell 31, elapsed: 0.00044798851013183594
ell 30, elapsed: 0.0004429817199707031
ell 29, elapsed: 0.0004489421844482422
ell 28, elapsed: 0.0004379749298095703
ell 27, elapsed: 0.00044798851013183594
ell 26, elapsed: 0.0004429817199707031
ell 25, elapsed: 0.00045609474182128906
ell 24, elapsed: 0.00045609474182128906
ell 23, elapsed: 0.0004470348358154297
ell 22, elapsed: 0.00045108795166015625
ell 21, elapsed: 0.0004379749298095703
ell 20, elapsed: 0.0004482269287109375
ell 19, elapsed: 0.0004379749298095703
ell 18, elapsed: 0.0004379749298095703
ell 17, elapsed: 0.0004780292510986328
ell 16, elapsed: 0.0004439353942871094
ell 15, elapsed: 0.0004410743713378906
ell 14, elapsed: 0.0004410743713378906
ell 13, elapsed: 0.0004420280456542969
ell 12, elapsed: 0.00045180320739746094
ell 11, elapsed: 0.0004448890686035156
ell 10, elapsed: 0.00044989585876464844
ell 9, elapsed: 0.0005011558532714844
ell 8, elapsed: 0.0004448890686035156
ell 7, elapsed: 0.0004668235778808594
ell 6, elapsed: 0.000453948974609375
ell 5, elapsed: 0.0004649162292480469
ell 4, elapsed: 0.00045418739318847656
ell 3, elapsed: 0.0004489421844482422
ell 2, elapsed: 0.00045299530029296875
ell 1, elapsed: 0.0004439353942871094
ell 0, elapsed: 0.00048089027404785156
  1.759013 seconds (1.38 M allocations: 74.497 MiB, 3.35% gc time, 93.01% compilation time)
elapsed: 0.0005700588226318359
step:          0.389315 sec (311.14 k allocations: 16.963 MB, 5.04% gc time)
swapping:      0.000348 sec (0 allocations: 0 byte, 0.0% gc time)
calc_Mellell!: 0.122668 sec (135.74 k allocations: 7.447 MB, 0.0% gc time)
  t0 :  0.0 sec (0 allocations: 0 byte, 0.0% gc time)
  tm2 : 0.0 sec (0 allocations: 0 byte, 0.0% gc time)
  tm2s: 0.0 sec (0 allocations: 0 byte, 0.0% gc time)
  tm4 : 0.0 sec (0 allocations: 0 byte, 0.0% gc time)
  tp2 : 0.0 sec (0 allocations: 0 byte, 0.0% gc time)
  tp2s: 0.0 sec (0 allocations: 0 byte, 0.0% gc time)
  tp4 : 0.0 sec (0 allocations: 0 byte, 0.0% gc time)
calc_wtdll!:   0.768793 sec (509.622 k allocations: 28.198 MB, 0.0% gc time)
calc_wljj!:    0.00203 sec (6 allocations: 96 byte, 0.0% gc time)
mult_prefac!:  0.0 sec (0 allocations: 0 byte, 0.0% gc time)
convert:       0.0 sec (0 allocations: 0 byte, 0.0% gc time)
write:         0.003307 sec (0 allocations: 0 byte, 0.0% gc time)
test_rand_2f1: 0.0 sec (0 allocations: 0 byte, 0.0% gc time)
Closing outfile out/Ml21-cache.bin...   0.000011 seconds
  0.918312 seconds (246.27 k allocations: 14.210 MiB, 41.10% compilation time)
make_phi():   0.012741 seconds (8.18 k allocations: 237.844 KiB)
  0.243303 seconds (87.57 k allocations: 4.749 MiB, 94.78% compilation time)
tskip:       1.9e-5 sec (0 allocations: 0 byte, 0.0% gc time)
tread:       0.002109 sec (17 allocations: 2.125 KB, 0.0% gc time)
tmultphi:    0.054003 sec (21.425 k allocations: 1.287 MB, 0.0% gc time)
tbrfft:      0.003247 sec (0 allocations: 0 byte, 0.0% gc time)
tmultprefac: 0.001856 sec (0 allocations: 0 byte, 0.0% gc time)
toutfunc:    0.142757 sec (64.483 k allocations: 3.33 MB, 0.0% gc time)
Testing R=1.1 ... passed
Calculating fmax: 
  dlrec    = 4
  dlrecRg1 = -4
  q=1.1, R=1.0:	  0.001371 seconds (3.20 k allocations: 275.344 KiB)

  0.001994 seconds (3.25 k allocations: 310.312 KiB)
ℓ = 1202
Δℓ = 4
ΔℓRg1 = -4
N = 1600
q = 1.1
kmin = 1.0e-5
kmax = 100000.00000000004
χ0 = 0.023029999999999995
RR = RR.tsv
ℓmax = ℓmax.bin
f21 = f21.bin
kmin = 1.0e-5
kmax = 100000.0
dlrec    = 4
dlrecRg1 = -4
Output size: 61465536 bytes = 0.05724424123764038 GiB
Output size: 51264 bytes = 4.774332046508789e-5 GiB
Reading 'out/F21EllCache'...   0.001186 seconds (197 allocations: 84.203 KiB)
ellmax: 1202
lmaxcache: 1202
fell[:,1,1] = ComplexF64[809.6031528389767 - 1.9829558194077161e-13im, 0.0 + 0.0im]
ell 1202, elapsed: 6.103515625e-5
ell 1201, elapsed: 0.015501976013183594
ell 1200, elapsed: 0.016185998916625977
ell 1199, elapsed: 0.00034499168395996094
ell 1198, elapsed: 0.0003368854522705078
ell 1197, elapsed: 0.0004169940948486328
ell 1196, elapsed: 0.00036907196044921875
ell 1195, elapsed: 0.0003650188446044922
ell 1194, elapsed: 0.0003712177276611328
ell 1193, elapsed: 0.00037097930908203125
ell 1192, elapsed: 0.00036716461181640625
ell 1191, elapsed: 0.000370025634765625
ell 1190, elapsed: 0.0003960132598876953
ell 1189, elapsed: 0.00036597251892089844
ell 1188, elapsed: 0.00035309791564941406
ell 1187, elapsed: 0.0003669261932373047
ell 1186, elapsed: 0.00036406517028808594
ell 1185, elapsed: 0.00037789344787597656
ell 1184, elapsed: 0.0003600120544433594
ell 1183, elapsed: 0.0003490447998046875
ell 1182, elapsed: 0.00037789344787597656
ell 1181, elapsed: 0.0003612041473388672
ell 1180, elapsed: 0.00037789344787597656
ell 1179, elapsed: 0.0003650188446044922
ell 1178, elapsed: 0.0003638267517089844
ell 1177, elapsed: 0.00038886070251464844
ell 1176, elapsed: 0.0003650188446044922
ell 1175, elapsed: 0.00038504600524902344
ell 1174, elapsed: 0.0003650188446044922
ell 1173, elapsed: 0.00036907196044921875
ell 1172, elapsed: 0.0003769397735595703
ell 1171, elapsed: 0.00037097930908203125
ell 1170, elapsed: 0.0003719329833984375
ell 1169, elapsed: 0.0003688335418701172
ell 1168, elapsed: 0.0003628730773925781
ell 1167, elapsed: 0.00038504600524902344
ell 1166, elapsed: 0.0003609657287597656
ell 1165, elapsed: 0.0003669261932373047
ell 1164, elapsed: 0.0003609657287597656
ell 1163, elapsed: 0.0003540515899658203
ell 1162, elapsed: 0.00037384033203125
ell 1161, elapsed: 0.00037980079650878906
ell 1160, elapsed: 0.0003800392150878906
ell 1159, elapsed: 0.0003540515899658203
ell 1158, elapsed: 0.0003650188446044922
ell 1157, elapsed: 0.0003581047058105469
ell 1156, elapsed: 0.0003490447998046875
ell 1155, elapsed: 0.0003750324249267578
ell 1154, elapsed: 0.00034999847412109375
ell 1153, elapsed: 0.00034880638122558594
ell 1152, elapsed: 0.0003809928894042969
ell 1151, elapsed: 0.00035190582275390625
ell 1150, elapsed: 0.0003581047058105469
ell 1149, elapsed: 0.0003628730773925781
ell 1148, elapsed: 0.00034809112548828125
ell 1147, elapsed: 0.00035500526428222656
ell 1146, elapsed: 0.0003490447998046875
ell 1145, elapsed: 0.0003809928894042969
ell 1144, elapsed: 0.0003800392150878906
ell 1143, elapsed: 0.0003631114959716797
ell 1142, elapsed: 0.0003681182861328125
ell 1141, elapsed: 0.00036406517028808594
ell 1140, elapsed: 0.00037097930908203125
ell 1139, elapsed: 0.00036406517028808594
ell 1138, elapsed: 0.0003750324249267578
ell 1137, elapsed: 0.0003688335418701172
ell 1136, elapsed: 0.0003638267517089844
ell 1135, elapsed: 0.0003731250762939453
ell 1134, elapsed: 0.0003650188446044922
ell 1133, elapsed: 0.0003571510314941406
ell 1132, elapsed: 0.000370025634765625
ell 1131, elapsed: 0.00037217140197753906
ell 1130, elapsed: 0.00035500526428222656
ell 1129, elapsed: 0.0003650188446044922
ell 1128, elapsed: 0.0003719329833984375
ell 1127, elapsed: 0.0003819465637207031
ell 1126, elapsed: 0.0003650188446044922
ell 1125, elapsed: 0.0003609657287597656
ell 1124, elapsed: 0.00036597251892089844
ell 1123, elapsed: 0.0003750324249267578
ell 1122, elapsed: 0.00036907196044921875
ell 1121, elapsed: 0.0003910064697265625
ell 1120, elapsed: 0.00037980079650878906
ell 1119, elapsed: 0.00037288665771484375
ell 1118, elapsed: 0.00040793418884277344
ell 1117, elapsed: 0.00037288665771484375
ell 1116, elapsed: 0.0003571510314941406
ell 1115, elapsed: 0.00035500526428222656
ell 1114, elapsed: 0.00036406517028808594
ell 1113, elapsed: 0.00043392181396484375
ell 1112, elapsed: 0.0003650188446044922
ell 1111, elapsed: 0.00035309791564941406
ell 1110, elapsed: 0.00037217140197753906
ell 1109, elapsed: 0.0003609657287597656
ell 1108, elapsed: 0.0003871917724609375
ell 1107, elapsed: 0.0003609657287597656
ell 1106, elapsed: 0.0003669261932373047
ell 1105, elapsed: 0.0003719329833984375
ell 1104, elapsed: 0.0003619194030761719
ell 1103, elapsed: 0.0004000663757324219
ell 1102, elapsed: 0.0003719329833984375
ell 1101, elapsed: 0.00037407875061035156
ell 1100, elapsed: 0.00036907196044921875
ell 1099, elapsed: 0.0003838539123535156
ell 1098, elapsed: 0.0076220035552978516
ell 1097, elapsed: 0.0003788471221923828
ell 1096, elapsed: 0.00036907196044921875
ell 1095, elapsed: 0.0003800392150878906
ell 1094, elapsed: 0.0003669261932373047
ell 1093, elapsed: 0.0003750324249267578
ell 1092, elapsed: 0.0003540515899658203
ell 1091, elapsed: 0.0003459453582763672
ell 1090, elapsed: 0.0003750324249267578
ell 1089, elapsed: 0.0003800392150878906
ell 1088, elapsed: 0.0003609657287597656
ell 1087, elapsed: 0.0003612041473388672
ell 1086, elapsed: 0.00035691261291503906
ell 1085, elapsed: 0.0003590583801269531
ell 1084, elapsed: 0.00035381317138671875
ell 1083, elapsed: 0.0003731250762939453
ell 1082, elapsed: 0.0003590583801269531
ell 1081, elapsed: 0.00039696693420410156
ell 1080, elapsed: 0.0003561973571777344
ell 1079, elapsed: 0.0003490447998046875
ell 1078, elapsed: 0.0003790855407714844
ell 1077, elapsed: 0.0003581047058105469
ell 1076, elapsed: 0.0003750324249267578
ell 1075, elapsed: 0.00035500526428222656
ell 1074, elapsed: 0.00035190582275390625
ell 1073, elapsed: 0.00037288665771484375
ell 1072, elapsed: 0.00036907196044921875
ell 1071, elapsed: 0.0003800392150878906
ell 1070, elapsed: 0.00034999847412109375
ell 1069, elapsed: 0.0003609657287597656
ell 1068, elapsed: 0.00036787986755371094
ell 1067, elapsed: 0.000370025634765625
ell 1066, elapsed: 0.0003809928894042969
ell 1065, elapsed: 0.00035500526428222656
ell 1064, elapsed: 0.0003528594970703125
ell 1063, elapsed: 0.0003631114959716797
ell 1062, elapsed: 0.0003540515899658203
ell 1061, elapsed: 0.0003809928894042969
ell 1060, elapsed: 0.00036597251892089844
ell 1059, elapsed: 0.0003681182861328125
ell 1058, elapsed: 0.0003681182861328125
ell 1057, elapsed: 0.0003719329833984375
ell 1056, elapsed: 0.00037407875061035156
ell 1055, elapsed: 0.0003578662872314453
ell 1054, elapsed: 0.0003719329833984375
ell 1053, elapsed: 0.00037598609924316406
ell 1052, elapsed: 0.00035500526428222656
ell 1051, elapsed: 0.0003731250762939453
ell 1050, elapsed: 0.00035381317138671875
ell 1049, elapsed: 0.00034499168395996094
ell 1048, elapsed: 0.00037980079650878906
ell 1047, elapsed: 0.0003731250762939453
ell 1046, elapsed: 0.0003600120544433594
ell 1045, elapsed: 0.0003559589385986328
ell 1044, elapsed: 0.000370025634765625
ell 1043, elapsed: 0.0003829002380371094
ell 1042, elapsed: 0.0003509521484375
ell 1041, elapsed: 0.00037598609924316406
ell 1040, elapsed: 0.0003628730773925781
ell 1039, elapsed: 0.00035500526428222656
ell 1038, elapsed: 0.0003571510314941406
ell 1037, elapsed: 0.00035309791564941406
ell 1036, elapsed: 0.00038814544677734375
ell 1035, elapsed: 0.0003871917724609375
ell 1034, elapsed: 0.00035500526428222656
ell 1033, elapsed: 0.0003619194030761719
ell 1032, elapsed: 0.0003490447998046875
ell 1031, elapsed: 0.0003609657287597656
ell 1030, elapsed: 0.00036597251892089844
ell 1029, elapsed: 0.0003490447998046875
ell 1028, elapsed: 0.0003561973571777344
ell 1027, elapsed: 0.0003540515899658203
ell 1026, elapsed: 0.00035691261291503906
ell 1025, elapsed: 0.0003509521484375
ell 1024, elapsed: 0.0003578662872314453
ell 1023, elapsed: 0.0003829002380371094
ell 1022, elapsed: 0.0003669261932373047
ell 1021, elapsed: 0.00035691261291503906
ell 1020, elapsed: 0.0003800392150878906
ell 1019, elapsed: 0.00035691261291503906
ell 1018, elapsed: 0.0003540515899658203
ell 1017, elapsed: 0.0003528594970703125
ell 1016, elapsed: 0.0003609657287597656
ell 1015, elapsed: 0.00036406517028808594
ell 1014, elapsed: 0.0003590583801269531
ell 1013, elapsed: 0.0003821849822998047
ell 1012, elapsed: 0.00039505958557128906
ell 1011, elapsed: 0.00035500526428222656
ell 1010, elapsed: 0.00035190582275390625
ell 1009, elapsed: 0.00037097930908203125
ell 1008, elapsed: 0.00037789344787597656
ell 1007, elapsed: 0.00036597251892089844
ell 1006, elapsed: 0.00036907196044921875
ell 1005, elapsed: 0.00035119056701660156
ell 1004, elapsed: 0.00038909912109375
ell 1003, elapsed: 0.00034689903259277344
ell 1002, elapsed: 0.00037598609924316406
ell 1001, elapsed: 0.0003581047058105469
ell 1000, elapsed: 0.00036406517028808594
ell 999, elapsed: 0.0003528594970703125
ell 998, elapsed: 0.0003609657287597656
ell 997, elapsed: 0.00037980079650878906
ell 996, elapsed: 0.00037598609924316406
ell 995, elapsed: 0.0003840923309326172
ell 994, elapsed: 0.0003559589385986328
ell 993, elapsed: 0.00035190582275390625
ell 992, elapsed: 0.00037288665771484375
ell 991, elapsed: 0.00037217140197753906
ell 990, elapsed: 0.0003688335418701172
ell 989, elapsed: 0.00042891502380371094
ell 988, elapsed: 0.00035691261291503906
ell 987, elapsed: 0.0003609657287597656
ell 986, elapsed: 0.0003981590270996094
ell 985, elapsed: 0.0003719329833984375
ell 984, elapsed: 0.0003581047058105469
ell 983, elapsed: 0.0003540515899658203
ell 982, elapsed: 0.00036907196044921875
ell 981, elapsed: 0.00037789344787597656
ell 980, elapsed: 0.00035190582275390625
ell 979, elapsed: 0.0003771781921386719
ell 978, elapsed: 0.0003800392150878906
ell 977, elapsed: 0.0003731250762939453
ell 976, elapsed: 0.0003528594970703125
ell 975, elapsed: 0.00036406517028808594
ell 974, elapsed: 0.00039005279541015625
ell 973, elapsed: 0.0003590583801269531
ell 972, elapsed: 0.0003521442413330078
ell 971, elapsed: 0.0003559589385986328
ell 970, elapsed: 0.00037598609924316406
ell 969, elapsed: 0.0003788471221923828
ell 968, elapsed: 0.0003559589385986328
ell 967, elapsed: 0.0003809928894042969
ell 966, elapsed: 0.00039315223693847656
ell 965, elapsed: 0.00036215782165527344
ell 964, elapsed: 0.00038313865661621094
ell 963, elapsed: 0.0003170967102050781
ell 962, elapsed: 0.00031304359436035156
ell 961, elapsed: 0.0002989768981933594
ell 960, elapsed: 0.00030994415283203125
ell 959, elapsed: 0.0003039836883544922
ell 958, elapsed: 0.0003039836883544922
ell 957, elapsed: 0.0003108978271484375
ell 956, elapsed: 0.00032806396484375
ell 955, elapsed: 0.0003070831298828125
ell 954, elapsed: 0.000308990478515625
ell 953, elapsed: 0.0002968311309814453
ell 952, elapsed: 0.000308990478515625
ell 951, elapsed: 0.00030803680419921875
ell 950, elapsed: 0.00030303001403808594
ell 949, elapsed: 0.0003039836883544922
ell 948, elapsed: 0.00030994415283203125
ell 947, elapsed: 0.000308990478515625
ell 946, elapsed: 0.00030612945556640625
ell 945, elapsed: 0.00030303001403808594
ell 944, elapsed: 0.0003101825714111328
ell 943, elapsed: 0.0003540515899658203
ell 942, elapsed: 0.0003159046173095703
ell 941, elapsed: 0.0003039836883544922
ell 940, elapsed: 0.0003008842468261719
ell 939, elapsed: 0.0003161430358886719
ell 938, elapsed: 0.00030493736267089844
ell 937, elapsed: 0.00030922889709472656
ell 936, elapsed: 0.000308990478515625
ell 935, elapsed: 0.0003018379211425781
ell 934, elapsed: 0.0003108978271484375
ell 933, elapsed: 0.0003070831298828125
ell 932, elapsed: 0.00031185150146484375
ell 931, elapsed: 0.00037598609924316406
ell 930, elapsed: 0.00031185150146484375
ell 929, elapsed: 0.00030803680419921875
ell 928, elapsed: 0.00030112266540527344
ell 927, elapsed: 0.0003159046173095703
ell 926, elapsed: 0.0003039836883544922
ell 925, elapsed: 0.000308990478515625
ell 924, elapsed: 0.00031304359436035156
ell 923, elapsed: 0.00030517578125
ell 922, elapsed: 0.00030994415283203125
ell 921, elapsed: 0.00030493736267089844
ell 920, elapsed: 0.00030517578125
ell 919, elapsed: 0.0003311634063720703
ell 918, elapsed: 0.0003039836883544922
ell 917, elapsed: 0.00030994415283203125
ell 916, elapsed: 0.00030303001403808594
ell 915, elapsed: 0.0003199577331542969
ell 914, elapsed: 0.0003039836883544922
ell 913, elapsed: 0.00030612945556640625
ell 912, elapsed: 0.00030612945556640625
ell 911, elapsed: 0.00032210350036621094
ell 910, elapsed: 0.00030803680419921875
ell 909, elapsed: 0.0003018379211425781
ell 908, elapsed: 0.0003039836883544922
ell 907, elapsed: 0.00035190582275390625
ell 906, elapsed: 0.0003039836883544922
ell 905, elapsed: 0.00030994415283203125
ell 904, elapsed: 0.0003008842468261719
ell 903, elapsed: 0.0002980232238769531
ell 902, elapsed: 0.00031113624572753906
ell 901, elapsed: 0.000308990478515625
ell 900, elapsed: 0.00030803680419921875
ell 899, elapsed: 0.0003039836883544922
ell 898, elapsed: 0.00030493736267089844
ell 897, elapsed: 0.00030803680419921875
ell 896, elapsed: 0.0003058910369873047
ell 895, elapsed: 0.0003139972686767578
ell 894, elapsed: 0.0003261566162109375
ell 893, elapsed: 0.0003101825714111328
ell 892, elapsed: 0.0003108978271484375
ell 891, elapsed: 0.0003039836883544922
ell 890, elapsed: 0.00030803680419921875
ell 889, elapsed: 0.0003058910369873047
ell 888, elapsed: 0.00030422210693359375
ell 887, elapsed: 0.0003159046173095703
ell 886, elapsed: 0.00030303001403808594
ell 885, elapsed: 0.00030994415283203125
ell 884, elapsed: 0.0003101825714111328
ell 883, elapsed: 0.0003020763397216797
ell 882, elapsed: 0.0003590583801269531
ell 881, elapsed: 0.0003058910369873047
ell 880, elapsed: 0.0003108978271484375
ell 879, elapsed: 0.00030303001403808594
ell 878, elapsed: 0.0003027915954589844
ell 877, elapsed: 0.0003161430358886719
ell 876, elapsed: 0.00030303001403808594
ell 875, elapsed: 0.0003108978271484375
ell 874, elapsed: 0.00030517578125
ell 873, elapsed: 0.00030493736267089844
ell 872, elapsed: 0.0003159046173095703
ell 871, elapsed: 0.0003058910369873047
ell 870, elapsed: 0.0003509521484375
ell 869, elapsed: 0.0003178119659423828
ell 868, elapsed: 0.0003058910369873047
ell 867, elapsed: 0.0003120899200439453
ell 866, elapsed: 0.0003039836883544922
ell 865, elapsed: 0.0003151893615722656
ell 864, elapsed: 0.0002999305725097656
ell 863, elapsed: 0.00030994415283203125
ell 862, elapsed: 0.00030517578125
ell 861, elapsed: 0.000308990478515625
ell 860, elapsed: 0.0003101825714111328
ell 859, elapsed: 0.00030684471130371094
ell 858, elapsed: 0.0003819465637207031
ell 857, elapsed: 0.0003008842468261719
ell 856, elapsed: 0.00030994415283203125
ell 855, elapsed: 0.00030994415283203125
ell 854, elapsed: 0.0002999305725097656
ell 853, elapsed: 0.000308990478515625
ell 852, elapsed: 0.0003027915954589844
ell 851, elapsed: 0.0002999305725097656
ell 850, elapsed: 0.0003180503845214844
ell 849, elapsed: 0.00030493736267089844
ell 848, elapsed: 0.0003120899200439453
ell 847, elapsed: 0.000308990478515625
ell 846, elapsed: 0.00030303001403808594
ell 845, elapsed: 0.0003108978271484375
ell 844, elapsed: 0.00030112266540527344
ell 843, elapsed: 0.00030803680419921875
ell 842, elapsed: 0.00030303001403808594
ell 841, elapsed: 0.00031304359436035156
ell 840, elapsed: 0.0003108978271484375
ell 839, elapsed: 0.0003058910369873047
ell 838, elapsed: 0.000308990478515625
ell 837, elapsed: 0.00031495094299316406
ell 836, elapsed: 0.0003039836883544922
ell 835, elapsed: 0.00031304359436035156
ell 834, elapsed: 0.0003020763397216797
ell 833, elapsed: 0.0003509521484375
ell 832, elapsed: 0.0003070831298828125
ell 831, elapsed: 0.0003018379211425781
ell 830, elapsed: 0.000308990478515625
ell 829, elapsed: 0.00030517578125
ell 828, elapsed: 0.0003058910369873047
ell 827, elapsed: 0.0002999305725097656
ell 826, elapsed: 0.0003058910369873047
ell 825, elapsed: 0.0003120899200439453
ell 824, elapsed: 0.0003039836883544922
ell 823, elapsed: 0.00030517578125
ell 822, elapsed: 0.0003039836883544922
ell 821, elapsed: 0.0003299713134765625
ell 820, elapsed: 0.00031185150146484375
ell 819, elapsed: 0.0003008842468261719
ell 818, elapsed: 0.00030994415283203125
ell 817, elapsed: 0.0002989768981933594
ell 816, elapsed: 0.00030803680419921875
ell 815, elapsed: 0.00031495094299316406
ell 814, elapsed: 0.00030684471130371094
ell 813, elapsed: 0.00031304359436035156
ell 812, elapsed: 0.00030612945556640625
ell 811, elapsed: 0.000308990478515625
ell 810, elapsed: 0.0003268718719482422
ell 809, elapsed: 0.0003638267517089844
ell 808, elapsed: 0.0003218650817871094
ell 807, elapsed: 0.00030803680419921875
ell 806, elapsed: 0.00031304359436035156
ell 805, elapsed: 0.0003170967102050781
ell 804, elapsed: 0.0003120899200439453
ell 803, elapsed: 0.00030994415283203125
ell 802, elapsed: 0.0002999305725097656
ell 801, elapsed: 0.00031495094299316406
ell 800, elapsed: 0.0003018379211425781
ell 799, elapsed: 0.0003039836883544922
ell 798, elapsed: 0.00031495094299316406
ell 797, elapsed: 0.0003421306610107422
ell 796, elapsed: 0.00031685829162597656
ell 795, elapsed: 0.0003077983856201172
ell 794, elapsed: 0.00030303001403808594
ell 793, elapsed: 0.0003139972686767578
ell 792, elapsed: 0.0003070831298828125
ell 791, elapsed: 0.0003070831298828125
ell 790, elapsed: 0.0003020763397216797
ell 789, elapsed: 0.00030684471130371094
ell 788, elapsed: 0.0003101825714111328
ell 787, elapsed: 0.0003008842468261719
ell 786, elapsed: 0.0003170967102050781
ell 785, elapsed: 0.00040411949157714844
ell 784, elapsed: 0.0003058910369873047
ell 783, elapsed: 0.0003170967102050781
ell 782, elapsed: 0.0002989768981933594
ell 781, elapsed: 0.00030803680419921875
ell 780, elapsed: 0.0002999305725097656
ell 779, elapsed: 0.0003039836883544922
ell 778, elapsed: 0.00030803680419921875
ell 777, elapsed: 0.0002999305725097656
ell 776, elapsed: 0.00030684471130371094
ell 775, elapsed: 0.0002999305725097656
ell 774, elapsed: 0.0003070831298828125
ell 773, elapsed: 0.0003170967102050781
ell 772, elapsed: 0.0003418922424316406
ell 771, elapsed: 0.0003077983856201172
ell 770, elapsed: 0.00030517578125
ell 769, elapsed: 0.0003027915954589844
ell 768, elapsed: 0.0003190040588378906
ell 767, elapsed: 0.0003070831298828125
ell 766, elapsed: 0.000308990478515625
ell 765, elapsed: 0.0003039836883544922
ell 764, elapsed: 0.00030493736267089844
ell 763, elapsed: 0.00030994415283203125
ell 762, elapsed: 0.0003039836883544922
ell 761, elapsed: 0.00030994415283203125
ell 760, elapsed: 0.00033593177795410156
ell 759, elapsed: 0.00030612945556640625
ell 758, elapsed: 0.0003108978271484375
ell 757, elapsed: 0.00030303001403808594
ell 756, elapsed: 0.00031304359436035156
ell 755, elapsed: 0.00030493736267089844
ell 754, elapsed: 0.00030994415283203125
ell 753, elapsed: 0.0003020763397216797
ell 752, elapsed: 0.00030803680419921875
ell 751, elapsed: 0.00030612945556640625
ell 750, elapsed: 0.0003039836883544922
ell 749, elapsed: 0.000308990478515625
ell 748, elapsed: 0.0003428459167480469
ell 747, elapsed: 0.00030493736267089844
ell 746, elapsed: 0.000308990478515625
ell 745, elapsed: 0.00030612945556640625
ell 744, elapsed: 0.0003108978271484375
ell 743, elapsed: 0.00030803680419921875
ell 742, elapsed: 0.00031304359436035156
ell 741, elapsed: 0.00030803680419921875
ell 740, elapsed: 0.0003180503845214844
ell 739, elapsed: 0.00031304359436035156
ell 738, elapsed: 0.00030303001403808594
ell 737, elapsed: 0.000308990478515625
ell 736, elapsed: 0.0003368854522705078
ell 735, elapsed: 0.0003070831298828125
ell 734, elapsed: 0.00031304359436035156
ell 733, elapsed: 0.00030493736267089844
ell 732, elapsed: 0.0003058910369873047
ell 731, elapsed: 0.00030803680419921875
ell 730, elapsed: 0.0003039836883544922
ell 729, elapsed: 0.000308990478515625
ell 728, elapsed: 0.0003008842468261719
ell 727, elapsed: 0.000308990478515625
ell 726, elapsed: 0.0003139972686767578
ell 725, elapsed: 0.00031304359436035156
ell 724, elapsed: 0.0003368854522705078
ell 723, elapsed: 0.00030612945556640625
ell 722, elapsed: 0.0003008842468261719
ell 721, elapsed: 0.00030994415283203125
ell 720, elapsed: 0.0003018379211425781
ell 719, elapsed: 0.00031113624572753906
ell 718, elapsed: 0.0003020763397216797
ell 717, elapsed: 0.00031304359436035156
ell 716, elapsed: 0.000308990478515625
ell 715, elapsed: 0.0003039836883544922
ell 714, elapsed: 0.00030994415283203125
ell 713, elapsed: 0.000308990478515625
ell 712, elapsed: 0.0003139972686767578
ell 711, elapsed: 0.0003509521484375
ell 710, elapsed: 0.00031113624572753906
ell 709, elapsed: 0.0003020763397216797
ell 708, elapsed: 0.0003139972686767578
ell 707, elapsed: 0.00032019615173339844
ell 706, elapsed: 0.0003058910369873047
ell 705, elapsed: 0.0003039836883544922
ell 704, elapsed: 0.0003139972686767578
ell 703, elapsed: 0.00030493736267089844
ell 702, elapsed: 0.0003120899200439453
ell 701, elapsed: 0.000308990478515625
ell 700, elapsed: 0.00030493736267089844
ell 699, elapsed: 0.0003390312194824219
ell 698, elapsed: 0.0003218650817871094
ell 697, elapsed: 0.0003120899200439453
ell 696, elapsed: 0.0003039836883544922
ell 695, elapsed: 0.00030994415283203125
ell 694, elapsed: 0.0003159046173095703
ell 693, elapsed: 0.0003020763397216797
ell 692, elapsed: 0.000308990478515625
ell 691, elapsed: 0.0003008842468261719
ell 690, elapsed: 0.00030994415283203125
ell 689, elapsed: 0.00030612945556640625
ell 688, elapsed: 0.0003139972686767578
ell 687, elapsed: 0.0003561973571777344
ell 686, elapsed: 0.00031185150146484375
ell 685, elapsed: 0.00030803680419921875
ell 684, elapsed: 0.0003058910369873047
ell 683, elapsed: 0.00030303001403808594
ell 682, elapsed: 0.0003108978271484375
ell 681, elapsed: 0.0003039836883544922
ell 680, elapsed: 0.0003108978271484375
ell 679, elapsed: 0.0003058910369873047
ell 678, elapsed: 0.00030612945556640625
ell 677, elapsed: 0.00031113624572753906
ell 676, elapsed: 0.0003108978271484375
ell 675, elapsed: 0.0003578662872314453
ell 674, elapsed: 0.000308990478515625
ell 673, elapsed: 0.000308990478515625
ell 672, elapsed: 0.0003070831298828125
ell 671, elapsed: 0.0003058910369873047
ell 670, elapsed: 0.00030803680419921875
ell 669, elapsed: 0.00030803680419921875
ell 668, elapsed: 0.00030112266540527344
ell 667, elapsed: 0.00031113624572753906
ell 666, elapsed: 0.00030493736267089844
ell 665, elapsed: 0.0003077983856201172
ell 664, elapsed: 0.0003101825714111328
ell 663, elapsed: 0.0003018379211425781
ell 662, elapsed: 0.00030994415283203125
ell 661, elapsed: 0.0003039836883544922
ell 660, elapsed: 0.00030803680419921875
ell 659, elapsed: 0.00030493736267089844
ell 658, elapsed: 0.0003161430358886719
ell 657, elapsed: 0.0003190040588378906
ell 656, elapsed: 0.00030803680419921875
ell 655, elapsed: 0.00031304359436035156
ell 654, elapsed: 0.00030422210693359375
ell 653, elapsed: 0.0003101825714111328
ell 652, elapsed: 0.0002980232238769531
ell 651, elapsed: 0.0003001689910888672
ell 650, elapsed: 0.0003528594970703125
ell 649, elapsed: 0.00030612945556640625
ell 648, elapsed: 0.00030803680419921875
ell 647, elapsed: 0.00030112266540527344
ell 646, elapsed: 0.0003020763397216797
ell 645, elapsed: 0.00030803680419921875
ell 644, elapsed: 0.0003020763397216797
ell 643, elapsed: 0.0003199577331542969
ell 642, elapsed: 0.0003020763397216797
ell 641, elapsed: 0.0003008842468261719
ell 640, elapsed: 0.00030803680419921875
ell 639, elapsed: 0.0003039836883544922
ell 638, elapsed: 0.00034499168395996094
ell 637, elapsed: 0.00030422210693359375
ell 636, elapsed: 0.00030303001403808594
ell 635, elapsed: 0.00032591819763183594
ell 634, elapsed: 0.00030112266540527344
ell 633, elapsed: 0.00030994415283203125
ell 632, elapsed: 0.00030112266540527344
ell 631, elapsed: 0.00030112266540527344
ell 630, elapsed: 0.00030684471130371094
ell 629, elapsed: 0.0003020763397216797
ell 628, elapsed: 0.00030493736267089844
ell 627, elapsed: 0.0003120899200439453
ell 626, elapsed: 0.0003712177276611328
ell 625, elapsed: 0.00030803680419921875
ell 624, elapsed: 0.0003070831298828125
ell 623, elapsed: 0.00031304359436035156
ell 622, elapsed: 0.00030303001403808594
ell 621, elapsed: 0.0003139972686767578
ell 620, elapsed: 0.0003039836883544922
ell 619, elapsed: 0.0003039836883544922
ell 618, elapsed: 0.0003230571746826172
ell 617, elapsed: 0.0003020763397216797
ell 616, elapsed: 0.00030994415283203125
ell 615, elapsed: 0.0003070831298828125
ell 614, elapsed: 0.00034499168395996094
ell 613, elapsed: 0.00031113624572753906
ell 612, elapsed: 0.0003039836883544922
ell 611, elapsed: 0.00032210350036621094
ell 610, elapsed: 0.00030612945556640625
ell 609, elapsed: 0.0003039836883544922
ell 608, elapsed: 0.0003077983856201172
ell 607, elapsed: 0.00030517578125
ell 606, elapsed: 0.0003139972686767578
ell 605, elapsed: 0.00030803680419921875
ell 604, elapsed: 0.00030493736267089844
ell 603, elapsed: 0.0003209114074707031
ell 602, elapsed: 0.00030517578125
ell 601, elapsed: 0.0003409385681152344
ell 600, elapsed: 0.00030994415283203125
ell 599, elapsed: 0.0003120899200439453
ell 598, elapsed: 0.0003039836883544922
ell 597, elapsed: 0.00031185150146484375
ell 596, elapsed: 0.00031304359436035156
ell 595, elapsed: 0.00030612945556640625
ell 594, elapsed: 0.0003108978271484375
ell 593, elapsed: 0.0003070831298828125
ell 592, elapsed: 0.0003070831298828125
ell 591, elapsed: 0.00031185150146484375
ell 590, elapsed: 0.00030612945556640625
ell 589, elapsed: 0.00035309791564941406
ell 588, elapsed: 0.0003101825714111328
ell 587, elapsed: 0.00030803680419921875
ell 586, elapsed: 0.0003139972686767578
ell 585, elapsed: 0.0003070831298828125
ell 584, elapsed: 0.00031495094299316406
ell 583, elapsed: 0.0003070831298828125
ell 582, elapsed: 0.0003039836883544922
ell 581, elapsed: 0.00031304359436035156
ell 580, elapsed: 0.0003058910369873047
ell 579, elapsed: 0.0003190040588378906
ell 578, elapsed: 0.0003180503845214844
ell 577, elapsed: 0.0003390312194824219
ell 576, elapsed: 0.00031304359436035156
ell 575, elapsed: 0.00030803680419921875
ell 574, elapsed: 0.00031113624572753906
ell 573, elapsed: 0.00030803680419921875
ell 572, elapsed: 0.0003027915954589844
ell 571, elapsed: 0.0003070831298828125
ell 570, elapsed: 0.00030612945556640625
ell 569, elapsed: 0.0003161430358886719
ell 568, elapsed: 0.0003058910369873047
ell 567, elapsed: 0.00031304359436035156
ell 566, elapsed: 0.0003108978271484375
ell 565, elapsed: 0.0003521442413330078
ell 564, elapsed: 0.0003159046173095703
ell 563, elapsed: 0.00030303001403808594
ell 562, elapsed: 0.00030994415283203125
ell 561, elapsed: 0.0003070831298828125
ell 560, elapsed: 0.00030303001403808594
ell 559, elapsed: 0.000308990478515625
ell 558, elapsed: 0.00030493736267089844
ell 557, elapsed: 0.0003070831298828125
ell 556, elapsed: 0.0003058910369873047
ell 555, elapsed: 0.00030517578125
ell 554, elapsed: 0.00030803680419921875
ell 553, elapsed: 0.0003809928894042969
ell 552, elapsed: 0.00031685829162597656
ell 551, elapsed: 0.00031113624572753906
ell 550, elapsed: 0.00030517578125
ell 549, elapsed: 0.00030994415283203125
ell 548, elapsed: 0.00030994415283203125
ell 547, elapsed: 0.0003058910369873047
ell 546, elapsed: 0.000308990478515625
ell 545, elapsed: 0.000308990478515625
ell 544, elapsed: 0.00030994415283203125
ell 543, elapsed: 0.00030803680419921875
ell 542, elapsed: 0.0003161430358886719
ell 541, elapsed: 0.00033402442932128906
ell 540, elapsed: 0.00030493736267089844
ell 539, elapsed: 0.0003120899200439453
ell 538, elapsed: 0.0003039836883544922
ell 537, elapsed: 0.0003190040588378906
ell 536, elapsed: 0.00030303001403808594
ell 535, elapsed: 0.00031304359436035156
ell 534, elapsed: 0.00030493736267089844
ell 533, elapsed: 0.00030493736267089844
ell 532, elapsed: 0.0003101825714111328
ell 531, elapsed: 0.00030493736267089844
ell 530, elapsed: 0.00031304359436035156
ell 529, elapsed: 0.0003058910369873047
ell 528, elapsed: 0.0003528594970703125
ell 527, elapsed: 0.00031304359436035156
ell 526, elapsed: 0.0003027915954589844
ell 525, elapsed: 0.0003139972686767578
ell 524, elapsed: 0.00031185150146484375
ell 523, elapsed: 0.0003070831298828125
ell 522, elapsed: 0.0003120899200439453
ell 521, elapsed: 0.0003027915954589844
ell 520, elapsed: 0.0003101825714111328
ell 519, elapsed: 0.00030684471130371094
ell 518, elapsed: 0.0003039836883544922
ell 517, elapsed: 0.0003108978271484375
ell 516, elapsed: 0.00033593177795410156
ell 515, elapsed: 0.00030303001403808594
ell 514, elapsed: 0.00031304359436035156
ell 513, elapsed: 0.0003120899200439453
ell 512, elapsed: 0.0003180503845214844
ell 511, elapsed: 0.0003020763397216797
ell 510, elapsed: 0.0003120899200439453
ell 509, elapsed: 0.0003108978271484375
ell 508, elapsed: 0.00031304359436035156
ell 507, elapsed: 0.00030612945556640625
ell 506, elapsed: 0.00030493736267089844
ell 505, elapsed: 0.00030994415283203125
ell 504, elapsed: 0.0003349781036376953
ell 503, elapsed: 0.0003108978271484375
ell 502, elapsed: 0.00030803680419921875
ell 501, elapsed: 0.0003008842468261719
ell 500, elapsed: 0.00030994415283203125
ell 499, elapsed: 0.0003039836883544922
ell 498, elapsed: 0.000308990478515625
ell 497, elapsed: 0.00030493736267089844
ell 496, elapsed: 0.0002999305725097656
ell 495, elapsed: 0.00030803680419921875
ell 494, elapsed: 0.00030493736267089844
ell 493, elapsed: 0.0003159046173095703
ell 492, elapsed: 0.0003490447998046875
ell 491, elapsed: 0.0003070831298828125
ell 490, elapsed: 0.0003077983856201172
ell 489, elapsed: 0.0003008842468261719
ell 488, elapsed: 0.00031304359436035156
ell 487, elapsed: 0.00030303001403808594
ell 486, elapsed: 0.00030612945556640625
ell 485, elapsed: 0.00031113624572753906
ell 484, elapsed: 0.00031495094299316406
ell 483, elapsed: 0.00031304359436035156
ell 482, elapsed: 0.000308990478515625
ell 481, elapsed: 0.0003268718719482422
ell 480, elapsed: 0.00030493736267089844
ell 479, elapsed: 0.00030994415283203125
ell 478, elapsed: 0.0003120899200439453
ell 477, elapsed: 0.0003070831298828125
ell 476, elapsed: 0.0003077983856201172
ell 475, elapsed: 0.0003027915954589844
ell 474, elapsed: 0.00030303001403808594
ell 473, elapsed: 0.0003108978271484375
ell 472, elapsed: 0.0003020763397216797
ell 471, elapsed: 0.00030803680419921875
ell 470, elapsed: 0.0003039836883544922
ell 469, elapsed: 0.0003039836883544922
ell 468, elapsed: 0.00031185150146484375
ell 467, elapsed: 0.00034809112548828125
ell 466, elapsed: 0.00031495094299316406
ell 465, elapsed: 0.00030684471130371094
ell 464, elapsed: 0.0003020763397216797
ell 463, elapsed: 0.0003170967102050781
ell 462, elapsed: 0.0003039836883544922
ell 461, elapsed: 0.000308990478515625
ell 460, elapsed: 0.0003020763397216797
ell 459, elapsed: 0.00030803680419921875
ell 458, elapsed: 0.00030803680419921875
ell 457, elapsed: 0.00030303001403808594
ell 456, elapsed: 0.00030803680419921875
ell 455, elapsed: 0.0003437995910644531
ell 454, elapsed: 0.00030303001403808594
ell 453, elapsed: 0.00031113624572753906
ell 452, elapsed: 0.00030303001403808594
ell 451, elapsed: 0.00031304359436035156
ell 450, elapsed: 0.0003008842468261719
ell 449, elapsed: 0.0003180503845214844
ell 448, elapsed: 0.00030684471130371094
ell 447, elapsed: 0.00030493736267089844
ell 446, elapsed: 0.0003120899200439453
ell 445, elapsed: 0.00030303001403808594
ell 444, elapsed: 0.000308990478515625
ell 443, elapsed: 0.0003459453582763672
ell 442, elapsed: 0.00031304359436035156
ell 441, elapsed: 0.0003190040588378906
ell 440, elapsed: 0.0003101825714111328
ell 439, elapsed: 0.00031113624572753906
ell 438, elapsed: 0.000308990478515625
ell 437, elapsed: 0.000308990478515625
ell 436, elapsed: 0.00031495094299316406
ell 435, elapsed: 0.00030684471130371094
ell 434, elapsed: 0.0003170967102050781
ell 433, elapsed: 0.0003058910369873047
ell 432, elapsed: 0.000308990478515625
ell 431, elapsed: 0.0003478527069091797
ell 430, elapsed: 0.0003070831298828125
ell 429, elapsed: 0.0003139972686767578
ell 428, elapsed: 0.000308990478515625
ell 427, elapsed: 0.00030803680419921875
ell 426, elapsed: 0.0003139972686767578
ell 425, elapsed: 0.00030517578125
ell 424, elapsed: 0.00031113624572753906
ell 423, elapsed: 0.0003058910369873047
ell 422, elapsed: 0.00030493736267089844
ell 421, elapsed: 0.00030612945556640625
ell 420, elapsed: 0.0003139972686767578
ell 419, elapsed: 0.0003600120544433594
ell 418, elapsed: 0.00030994415283203125
ell 417, elapsed: 0.000308990478515625
ell 416, elapsed: 0.0003170967102050781
ell 415, elapsed: 0.00030803680419921875
ell 414, elapsed: 0.0003139972686767578
ell 413, elapsed: 0.00031113624572753906
ell 412, elapsed: 0.0003108978271484375
ell 411, elapsed: 0.000308990478515625
ell 410, elapsed: 0.0003070831298828125
ell 409, elapsed: 0.0003209114074707031
ell 408, elapsed: 0.0003070831298828125
ell 407, elapsed: 0.0003819465637207031
ell 406, elapsed: 0.00030994415283203125
ell 405, elapsed: 0.00030684471130371094
ell 404, elapsed: 0.0003120899200439453
ell 403, elapsed: 0.00030493736267089844
ell 402, elapsed: 0.0003190040588378906
ell 401, elapsed: 0.0003058910369873047
ell 400, elapsed: 0.00030517578125
ell 399, elapsed: 0.00030994415283203125
ell 398, elapsed: 0.0003039836883544922
ell 397, elapsed: 0.00031304359436035156
ell 396, elapsed: 0.00031185150146484375
ell 395, elapsed: 0.00030994415283203125
ell 394, elapsed: 0.00031304359436035156
ell 393, elapsed: 0.000308990478515625
ell 392, elapsed: 0.00031495094299316406
ell 391, elapsed: 0.00030493736267089844
ell 390, elapsed: 0.00030493736267089844
ell 389, elapsed: 0.0003120899200439453
ell 388, elapsed: 0.00030303001403808594
ell 387, elapsed: 0.0003209114074707031
ell 386, elapsed: 0.000308990478515625
ell 385, elapsed: 0.0003139972686767578
ell 384, elapsed: 0.00031495094299316406
ell 383, elapsed: 0.00030493736267089844
ell 382, elapsed: 0.00034499168395996094
ell 381, elapsed: 0.000308990478515625
ell 380, elapsed: 0.0003161430358886719
ell 379, elapsed: 0.00030803680419921875
ell 378, elapsed: 0.0003139972686767578
ell 377, elapsed: 0.00031185150146484375
ell 376, elapsed: 0.0003070831298828125
ell 375, elapsed: 0.00031304359436035156
ell 374, elapsed: 0.00030612945556640625
ell 373, elapsed: 0.00030493736267089844
ell 372, elapsed: 0.0003209114074707031
ell 371, elapsed: 0.00030803680419921875
ell 370, elapsed: 0.00034689903259277344
ell 369, elapsed: 0.00031113624572753906
ell 368, elapsed: 0.0003039836883544922
ell 367, elapsed: 0.0003199577331542969
ell 366, elapsed: 0.0003170967102050781
ell 365, elapsed: 0.00031304359436035156
ell 364, elapsed: 0.00030994415283203125
ell 363, elapsed: 0.000308990478515625
ell 362, elapsed: 0.0003170967102050781
ell 361, elapsed: 0.0003101825714111328
ell 360, elapsed: 0.0003108978271484375
ell 359, elapsed: 0.000308990478515625
ell 358, elapsed: 0.0003628730773925781
ell 357, elapsed: 0.00030922889709472656
ell 356, elapsed: 0.0003077983856201172
ell 355, elapsed: 0.0003161430358886719
ell 354, elapsed: 0.0003249645233154297
ell 353, elapsed: 0.0003139972686767578
ell 352, elapsed: 0.0003139972686767578
ell 351, elapsed: 0.00031185150146484375
ell 350, elapsed: 0.0003120899200439453
ell 349, elapsed: 0.00031280517578125
ell 348, elapsed: 0.00032401084899902344
ell 347, elapsed: 0.00031113624572753906
ell 346, elapsed: 0.0003390312194824219
ell 345, elapsed: 0.0003190040588378906
ell 344, elapsed: 0.0003120899200439453
ell 343, elapsed: 0.00031495094299316406
ell 342, elapsed: 0.00030803680419921875
ell 341, elapsed: 0.0003058910369873047
ell 340, elapsed: 0.0003108978271484375
ell 339, elapsed: 0.00031113624572753906
ell 338, elapsed: 0.0003159046173095703
ell 337, elapsed: 0.00031113624572753906
ell 336, elapsed: 0.0003070831298828125
ell 335, elapsed: 0.0003170967102050781
ell 334, elapsed: 0.0004000663757324219
ell 333, elapsed: 0.0003170967102050781
ell 332, elapsed: 0.0003159046173095703
ell 331, elapsed: 0.00030612945556640625
ell 330, elapsed: 0.0003159046173095703
ell 329, elapsed: 0.00031304359436035156
ell 328, elapsed: 0.0003170967102050781
ell 327, elapsed: 0.0003070831298828125
ell 326, elapsed: 0.00031280517578125
ell 325, elapsed: 0.00030612945556640625
ell 324, elapsed: 0.00030684471130371094
ell 323, elapsed: 0.0003139972686767578
ell 322, elapsed: 0.0003380775451660156
ell 321, elapsed: 0.00030803680419921875
ell 320, elapsed: 0.00031113624572753906
ell 319, elapsed: 0.0003151893615722656
ell 318, elapsed: 0.00031495094299316406
ell 317, elapsed: 0.00030803680419921875
ell 316, elapsed: 0.0003139972686767578
ell 315, elapsed: 0.0003058910369873047
ell 314, elapsed: 0.00030493736267089844
ell 313, elapsed: 0.0003170967102050781
ell 312, elapsed: 0.00030994415283203125
ell 311, elapsed: 0.0003170967102050781
ell 310, elapsed: 0.00033593177795410156
ell 309, elapsed: 0.00030994415283203125
ell 308, elapsed: 0.00031495094299316406
ell 307, elapsed: 0.00030994415283203125
ell 306, elapsed: 0.0003108978271484375
ell 305, elapsed: 0.00030612945556640625
ell 304, elapsed: 0.0003058910369873047
ell 303, elapsed: 0.00031304359436035156
ell 302, elapsed: 0.00030493736267089844
ell 301, elapsed: 0.000308990478515625
ell 300, elapsed: 0.0003039836883544922
ell 299, elapsed: 0.0003001689910888672
ell 298, elapsed: 0.00036597251892089844
ell 297, elapsed: 0.00030422210693359375
ell 296, elapsed: 0.00031185150146484375
ell 295, elapsed: 0.0002999305725097656
ell 294, elapsed: 0.00031113624572753906
ell 293, elapsed: 0.00031185150146484375
ell 292, elapsed: 0.0003039836883544922
ell 291, elapsed: 0.00030994415283203125
ell 290, elapsed: 0.0003120899200439453
ell 289, elapsed: 0.00030803680419921875
ell 288, elapsed: 0.00030994415283203125
ell 287, elapsed: 0.0003120899200439453
ell 286, elapsed: 0.0003440380096435547
ell 285, elapsed: 0.00030303001403808594
ell 284, elapsed: 0.0003190040588378906
ell 283, elapsed: 0.00030303001403808594
ell 282, elapsed: 0.0003070831298828125
ell 281, elapsed: 0.00030994415283203125
ell 280, elapsed: 0.00029921531677246094
ell 279, elapsed: 0.0003101825714111328
ell 278, elapsed: 0.0003020763397216797
ell 277, elapsed: 0.0003027915954589844
ell 276, elapsed: 0.00031185150146484375
ell 275, elapsed: 0.00031495094299316406
ell 274, elapsed: 0.00030994415283203125
ell 273, elapsed: 0.00033283233642578125
ell 272, elapsed: 0.00030493736267089844
ell 271, elapsed: 0.00031185150146484375
ell 270, elapsed: 0.00030303001403808594
ell 269, elapsed: 0.0003180503845214844
ell 268, elapsed: 0.0003058910369873047
ell 267, elapsed: 0.0003120899200439453
ell 266, elapsed: 0.0003020763397216797
ell 265, elapsed: 0.00030612945556640625
ell 264, elapsed: 0.00030994415283203125
ell 263, elapsed: 0.00030612945556640625
ell 262, elapsed: 0.00030994415283203125
ell 261, elapsed: 0.00039005279541015625
ell 260, elapsed: 0.0003070831298828125
ell 259, elapsed: 0.0003161430358886719
ell 258, elapsed: 0.00030803680419921875
ell 257, elapsed: 0.00032806396484375
ell 256, elapsed: 0.00031304359436035156
ell 255, elapsed: 0.00032401084899902344
ell 254, elapsed: 0.00032401084899902344
ell 253, elapsed: 0.0003120899200439453
ell 252, elapsed: 0.0003211498260498047
ell 251, elapsed: 0.0003077983856201172
ell 250, elapsed: 0.00031113624572753906
ell 249, elapsed: 0.00034809112548828125
ell 248, elapsed: 0.00031495094299316406
ell 247, elapsed: 0.00031185150146484375
ell 246, elapsed: 0.0003070831298828125
ell 245, elapsed: 0.0003101825714111328
ell 244, elapsed: 0.00031495094299316406
ell 243, elapsed: 0.00030994415283203125
ell 242, elapsed: 0.0003159046173095703
ell 241, elapsed: 0.00030994415283203125
ell 240, elapsed: 0.0003159046173095703
ell 239, elapsed: 0.00030684471130371094
ell 238, elapsed: 0.0003058910369873047
ell 237, elapsed: 0.00036597251892089844
ell 236, elapsed: 0.00030994415283203125
ell 235, elapsed: 0.00030994415283203125
ell 234, elapsed: 0.00030612945556640625
ell 233, elapsed: 0.00031185150146484375
ell 232, elapsed: 0.0003161430358886719
ell 231, elapsed: 0.000308990478515625
ell 230, elapsed: 0.0003120899200439453
ell 229, elapsed: 0.0003070831298828125
ell 228, elapsed: 0.000308990478515625
ell 227, elapsed: 0.0003190040588378906
ell 226, elapsed: 0.00031113624572753906
ell 225, elapsed: 0.00034689903259277344
ell 224, elapsed: 0.0003108978271484375
ell 223, elapsed: 0.0003120899200439453
ell 222, elapsed: 0.00030803680419921875
ell 221, elapsed: 0.0003120899200439453
ell 220, elapsed: 0.0003108978271484375
ell 219, elapsed: 0.00030803680419921875
ell 218, elapsed: 0.000308990478515625
ell 217, elapsed: 0.0003108978271484375
ell 216, elapsed: 0.0003101825714111328
ell 215, elapsed: 0.0003161430358886719
ell 214, elapsed: 0.00030994415283203125
ell 213, elapsed: 0.0003390312194824219
ell 212, elapsed: 0.0003180503845214844
ell 211, elapsed: 0.00030803680419921875
ell 210, elapsed: 0.00031304359436035156
ell 209, elapsed: 0.0003101825714111328
ell 208, elapsed: 0.0003108978271484375
ell 207, elapsed: 0.00030612945556640625
ell 206, elapsed: 0.0003070831298828125
ell 205, elapsed: 0.0003139972686767578
ell 204, elapsed: 0.0003070831298828125
ell 203, elapsed: 0.0003178119659423828
ell 202, elapsed: 0.00030612945556640625
ell 201, elapsed: 0.00035881996154785156
ell 200, elapsed: 0.0003151893615722656
ell 199, elapsed: 0.0003058910369873047
ell 198, elapsed: 0.0003161430358886719
ell 197, elapsed: 0.00030517578125
ell 196, elapsed: 0.00030994415283203125
ell 195, elapsed: 0.0003120899200439453
ell 194, elapsed: 0.00030303001403808594
ell 193, elapsed: 0.00031495094299316406
ell 192, elapsed: 0.00030612945556640625
ell 191, elapsed: 0.0003139972686767578
ell 190, elapsed: 0.0003268718719482422
ell 189, elapsed: 0.0003769397735595703
ell 188, elapsed: 0.00031495094299316406
ell 187, elapsed: 0.00030612945556640625
ell 186, elapsed: 0.0003058910369873047
ell 185, elapsed: 0.00031185150146484375
ell 184, elapsed: 0.000308990478515625
ell 183, elapsed: 0.00030994415283203125
ell 182, elapsed: 0.0003039836883544922
ell 181, elapsed: 0.0003039836883544922
ell 180, elapsed: 0.0003120899200439453
ell 179, elapsed: 0.00030303001403808594
ell 178, elapsed: 0.0003139972686767578
ell 177, elapsed: 0.0003490447998046875
ell 176, elapsed: 0.00031304359436035156
ell 175, elapsed: 0.0003020763397216797
ell 174, elapsed: 0.0003018379211425781
ell 173, elapsed: 0.00030517578125
ell 172, elapsed: 0.00030303001403808594
ell 171, elapsed: 0.00031280517578125
ell 170, elapsed: 0.0003039836883544922
ell 169, elapsed: 0.0002989768981933594
ell 168, elapsed: 0.000308990478515625
ell 167, elapsed: 0.0003008842468261719
ell 166, elapsed: 0.00031185150146484375
ell 165, elapsed: 0.0003020763397216797
ell 164, elapsed: 0.0003249645233154297
ell 163, elapsed: 0.0003190040588378906
ell 162, elapsed: 0.0003070831298828125
ell 161, elapsed: 0.00031185150146484375
ell 160, elapsed: 0.0003039836883544922
ell 159, elapsed: 0.0003120899200439453
ell 158, elapsed: 0.00031495094299316406
ell 157, elapsed: 0.0003120899200439453
ell 156, elapsed: 0.0003058910369873047
ell 155, elapsed: 0.00030684471130371094
ell 154, elapsed: 0.0003120899200439453
ell 153, elapsed: 0.00031185150146484375
ell 152, elapsed: 0.00033593177795410156
ell 151, elapsed: 0.0003139972686767578
ell 150, elapsed: 0.0003018379211425781
ell 149, elapsed: 0.00030994415283203125
ell 148, elapsed: 0.00030803680419921875
ell 147, elapsed: 0.0003120899200439453
ell 146, elapsed: 0.0003139972686767578
ell 145, elapsed: 0.0003039836883544922
ell 144, elapsed: 0.0003108978271484375
ell 143, elapsed: 0.00030493736267089844
ell 142, elapsed: 0.0003020763397216797
ell 141, elapsed: 0.0003139972686767578
ell 140, elapsed: 0.00034689903259277344
ell 139, elapsed: 0.00030994415283203125
ell 138, elapsed: 0.0003008842468261719
ell 137, elapsed: 0.00030112266540527344
ell 136, elapsed: 0.0003058910369873047
ell 135, elapsed: 0.00031113624572753906
ell 134, elapsed: 0.00031185150146484375
ell 133, elapsed: 0.0003027915954589844
ell 132, elapsed: 0.0003058910369873047
ell 131, elapsed: 0.0003120899200439453
ell 130, elapsed: 0.00030493736267089844
ell 129, elapsed: 0.00030803680419921875
ell 128, elapsed: 0.000331878662109375
ell 127, elapsed: 0.000308990478515625
ell 126, elapsed: 0.0003230571746826172
ell 125, elapsed: 0.0003070831298828125
ell 124, elapsed: 0.00031280517578125
ell 123, elapsed: 0.00030112266540527344
ell 122, elapsed: 0.0003070831298828125
ell 121, elapsed: 0.000308990478515625
ell 120, elapsed: 0.00031495094299316406
ell 119, elapsed: 0.0003139972686767578
ell 118, elapsed: 0.0003070831298828125
ell 117, elapsed: 0.0003139972686767578
ell 116, elapsed: 0.00030493736267089844
ell 115, elapsed: 0.000308990478515625
ell 114, elapsed: 0.00031304359436035156
ell 113, elapsed: 0.00030803680419921875
ell 112, elapsed: 0.00030994415283203125
ell 111, elapsed: 0.00031304359436035156
ell 110, elapsed: 0.00030493736267089844
ell 109, elapsed: 0.00030803680419921875
ell 108, elapsed: 0.00030994415283203125
ell 107, elapsed: 0.0003120899200439453
ell 106, elapsed: 0.00030684471130371094
ell 105, elapsed: 0.0003058910369873047
ell 104, elapsed: 0.00030994415283203125
ell 103, elapsed: 0.00035309791564941406
ell 102, elapsed: 0.0003139972686767578
ell 101, elapsed: 0.000308990478515625
ell 100, elapsed: 0.0003070831298828125
ell 99, elapsed: 0.00031495094299316406
ell 98, elapsed: 0.00030493736267089844
ell 97, elapsed: 0.0003190040588378906
ell 96, elapsed: 0.0003039836883544922
ell 95, elapsed: 0.0003058910369873047
ell 94, elapsed: 0.0003180503845214844
ell 93, elapsed: 0.0003159046173095703
ell 92, elapsed: 0.0003101825714111328
ell 91, elapsed: 0.0003428459167480469
ell 90, elapsed: 0.00030684471130371094
ell 89, elapsed: 0.000308990478515625
ell 88, elapsed: 0.00030303001403808594
ell 87, elapsed: 0.0003211498260498047
ell 86, elapsed: 0.00030493736267089844
ell 85, elapsed: 0.00030994415283203125
ell 84, elapsed: 0.00030517578125
ell 83, elapsed: 0.000308990478515625
ell 82, elapsed: 0.000308990478515625
ell 81, elapsed: 0.00030994415283203125
ell 80, elapsed: 0.0003108978271484375
ell 79, elapsed: 0.0003421306610107422
ell 78, elapsed: 0.0003120899200439453
ell 77, elapsed: 0.000308990478515625
ell 76, elapsed: 0.0003018379211425781
ell 75, elapsed: 0.0003120899200439453
ell 74, elapsed: 0.00030493736267089844
ell 73, elapsed: 0.0003190040588378906
ell 72, elapsed: 0.00031304359436035156
ell 71, elapsed: 0.0003058910369873047
ell 70, elapsed: 0.0003170967102050781
ell 69, elapsed: 0.00030493736267089844
ell 68, elapsed: 0.00030493736267089844
ell 67, elapsed: 0.0003478527069091797
ell 66, elapsed: 0.0003058910369873047
ell 65, elapsed: 0.0003058910369873047
ell 64, elapsed: 0.00030517578125
ell 63, elapsed: 0.0002989768981933594
ell 62, elapsed: 0.0003218650817871094
ell 61, elapsed: 0.00030493736267089844
ell 60, elapsed: 0.00030612945556640625
ell 59, elapsed: 0.0003108978271484375
ell 58, elapsed: 0.00030803680419921875
ell 57, elapsed: 0.00030303001403808594
ell 56, elapsed: 0.0003199577331542969
ell 55, elapsed: 0.0003330707550048828
ell 54, elapsed: 0.00030493736267089844
ell 53, elapsed: 0.00030994415283203125
ell 52, elapsed: 0.0003020763397216797
ell 51, elapsed: 0.0003018379211425781
ell 50, elapsed: 0.0003199577331542969
ell 49, elapsed: 0.00030303001403808594
ell 48, elapsed: 0.0003139972686767578
ell 47, elapsed: 0.00030612945556640625
ell 46, elapsed: 0.0003039836883544922
ell 45, elapsed: 0.00030994415283203125
ell 44, elapsed: 0.00031113624572753906
ell 43, elapsed: 0.0003070831298828125
ell 42, elapsed: 0.00031304359436035156
ell 41, elapsed: 0.00030112266540527344
ell 40, elapsed: 0.00030994415283203125
ell 39, elapsed: 0.0002989768981933594
ell 38, elapsed: 0.00031304359436035156
ell 37, elapsed: 0.00030493736267089844
ell 36, elapsed: 0.00030303001403808594
ell 35, elapsed: 0.0003070831298828125
ell 34, elapsed: 0.00030303001403808594
ell 33, elapsed: 0.0003108978271484375
ell 32, elapsed: 0.0003101825714111328
ell 31, elapsed: 0.00030803680419921875
ell 30, elapsed: 0.0003380775451660156
ell 29, elapsed: 0.00031304359436035156
ell 28, elapsed: 0.00030803680419921875
ell 27, elapsed: 0.00030493736267089844
ell 26, elapsed: 0.0003170967102050781
ell 25, elapsed: 0.00030112266540527344
ell 24, elapsed: 0.00030612945556640625
ell 23, elapsed: 0.00031495094299316406
ell 22, elapsed: 0.0003039836883544922
ell 21, elapsed: 0.0003101825714111328
ell 20, elapsed: 0.0003020763397216797
ell 19, elapsed: 0.00030303001403808594
ell 18, elapsed: 0.000331878662109375
ell 17, elapsed: 0.00030684471130371094
ell 16, elapsed: 0.00031685829162597656
ell 15, elapsed: 0.00030517578125
ell 14, elapsed: 0.00030803680419921875
ell 13, elapsed: 0.00031304359436035156
ell 12, elapsed: 0.0003070831298828125
ell 11, elapsed: 0.00031685829162597656
ell 10, elapsed: 0.00030493736267089844
ell 9, elapsed: 0.00031113624572753906
ell 8, elapsed: 0.0003070831298828125
ell 7, elapsed: 0.0003039836883544922
ell 6, elapsed: 0.0003490447998046875
ell 5, elapsed: 0.00030803680419921875
ell 4, elapsed: 0.0003070831298828125
ell 3, elapsed: 0.00030803680419921875
ell 2, elapsed: 0.0003039836883544922
ell 1, elapsed: 0.00031113624572753906
ell 0, elapsed: 0.00030303001403808594
  0.479507 seconds (46.03 k allocations: 3.091 MiB, 6.39% compilation time)
elapsed: 0.0003848075866699219
step:          0.05123 sec (0 allocations: 0 byte, 0.0% gc time)
swapping:      0.000401 sec (0 allocations: 0 byte, 0.0% gc time)
calc_Mellell!: 0.006945 sec (0 allocations: 0 byte, 0.0% gc time)
  t0 :  0.001538 sec (0 allocations: 0 byte, 0.0% gc time)
  tm2 : 0.074022 sec (0 allocations: 0 byte, 0.0% gc time)
  tm2s: 0.001036 sec (0 allocations: 0 byte, 0.0% gc time)
  tm4 : 0.17955 sec (0 allocations: 0 byte, 0.0% gc time)
  tp2 : 0.0 sec (0 allocations: 0 byte, 0.0% gc time)
  tp2s: 0.0 sec (0 allocations: 0 byte, 0.0% gc time)
  tp4 : 0.0 sec (0 allocations: 0 byte, 0.0% gc time)
calc_wtdll!:   0.289928 sec (9.9 k allocations: 1.047 MB, 0.0% gc time)
calc_wljj!:    0.023208 sec (689 allocations: 10.766 KB, 0.0% gc time)
mult_prefac!:  0.0 sec (0 allocations: 0 byte, 0.0% gc time)
convert:       0.0 sec (0 allocations: 0 byte, 0.0% gc time)
write:         0.028782 sec (0 allocations: 0 byte, 0.0% gc time)
test_rand_2f1: 0.0 sec (0 allocations: 0 byte, 0.0% gc time)
Closing outfile out/Ml21-cache.bin...   0.000005 seconds
  0.000411 seconds (36 allocations: 27.953 KiB)
make_phi():   0.001653 seconds (8.18 k allocations: 237.844 KiB)
  0.125615 seconds (141.90 k allocations: 3.483 MiB)
tskip:       0.001153 sec (0 allocations: 0 byte, 0.0% gc time)
tread:       0.020546 sec (17 allocations: 10.641 KB, 0.0% gc time)
tmultphi:    0.011539 sec (0 allocations: 0 byte, 0.0% gc time)
tbrfft:      0.03268 sec (0 allocations: 0 byte, 0.0% gc time)
tmultprefac: 0.020033 sec (0 allocations: 0 byte, 0.0% gc time)
toutfunc:    0.036681 sec (127.507 k allocations: 2.312 MB, 0.0% gc time)
Testing R=1.0 ... passed
Calculating fmax: 
  dlrec    = 4
  dlrecRg1 = -4
  q=1.1, R=0.9:	  0.267383 seconds (105.72 k allocations: 15.273 MiB, 6.53% gc time)

  0.267550 seconds (105.78 k allocations: 15.307 MiB, 6.53% gc time)
ℓ = 1202
Δℓ = 4
ΔℓRg1 = -4
N = 1600
q = 1.1
kmin = 1.0e-5
kmax = 100000.00000000004
χ0 = 0.023029999999999995
RR = RR.tsv
ℓmax = ℓmax.bin
f21 = f21.bin
kmin = 1.0e-5
kmax = 100000.0
dlrec    = 4
dlrecRg1 = -4
Output size: 5741568 bytes = 0.005347251892089844 GiB
Output size: 51264 bytes = 4.774332046508789e-5 GiB
Reading 'out/F21EllCache'...   0.000835 seconds (197 allocations: 84.203 KiB)
ellmax: 1202
lmaxcache: 1202
fell[:,1,1] = ComplexF64[1.3482014726274674e-57 - 3.302141236118086e-73im, 1.357860004724329e-57 - 3.3257978169518355e-73im]
ell 1202, elapsed: 1.3113021850585938e-5
ell 1201, elapsed: 0.00028896331787109375
ell 1200, elapsed: 0.0002739429473876953
ell 1199, elapsed: 0.00026416778564453125
ell 1198, elapsed: 0.0003180503845214844
ell 1002, elapsed: 0.008765935897827148
ell 1001, elapsed: 0.0002760887145996094
ell 1000, elapsed: 0.00027298927307128906
ell 999, elapsed: 0.0002689361572265625
ell 998, elapsed: 0.0002689361572265625
ell 902, elapsed: 0.004424095153808594
ell 901, elapsed: 0.00026702880859375
ell 900, elapsed: 0.00026416778564453125
ell 899, elapsed: 0.0002620220184326172
ell 898, elapsed: 0.0002651214599609375
ell 802, elapsed: 0.004601001739501953
ell 801, elapsed: 0.0002830028533935547
ell 800, elapsed: 0.0002689361572265625
ell 799, elapsed: 0.0002689361572265625
ell 798, elapsed: 0.00026917457580566406
ell 702, elapsed: 0.004448890686035156
ell 701, elapsed: 0.0002689361572265625
ell 700, elapsed: 0.00026988983154296875
ell 699, elapsed: 0.00026702880859375
ell 698, elapsed: 0.0002639293670654297
ell 602, elapsed: 0.0044629573822021484
ell 601, elapsed: 0.00027298927307128906
ell 600, elapsed: 0.0002949237823486328
ell 599, elapsed: 0.00026798248291015625
ell 598, elapsed: 0.0002689361572265625
ell 502, elapsed: 0.004422903060913086
ell 501, elapsed: 0.00026607513427734375
ell 500, elapsed: 0.00026488304138183594
ell 499, elapsed: 0.00026988983154296875
ell 498, elapsed: 0.0002658367156982422
ell 402, elapsed: 0.004435062408447266
ell 401, elapsed: 0.00026702880859375
ell 400, elapsed: 0.00026798248291015625
ell 399, elapsed: 0.00026607513427734375
ell 398, elapsed: 0.00026607513427734375
ell 302, elapsed: 0.004541873931884766
ell 301, elapsed: 0.00026798248291015625
ell 300, elapsed: 0.0002689361572265625
ell 299, elapsed: 0.00026488304138183594
ell 298, elapsed: 0.00026702880859375
ell 202, elapsed: 0.0044400691986083984
ell 201, elapsed: 0.00026988983154296875
ell 200, elapsed: 0.00026607513427734375
ell 199, elapsed: 0.0002651214599609375
ell 198, elapsed: 0.0002658367156982422
ell 152, elapsed: 0.002248048782348633
ell 151, elapsed: 0.0002639293670654297
ell 150, elapsed: 0.0002639293670654297
ell 149, elapsed: 0.0002639293670654297
ell 148, elapsed: 0.00026607513427734375
ell 127, elapsed: 0.0011739730834960938
ell 126, elapsed: 0.0002949237823486328
ell 125, elapsed: 0.0002651214599609375
ell 124, elapsed: 0.00026297569274902344
ell 123, elapsed: 0.0002639293670654297
ell 114, elapsed: 0.0006530284881591797
ell 113, elapsed: 0.0002639293670654297
ell 112, elapsed: 0.0002639293670654297
ell 111, elapsed: 0.0002639293670654297
ell 110, elapsed: 0.00026488304138183594
ell 102, elapsed: 0.0006129741668701172
ell 101, elapsed: 0.00026416778564453125
ell 100, elapsed: 0.0002639293670654297
ell 99, elapsed: 0.0002830028533935547
ell 98, elapsed: 0.00026416778564453125
ell 97, elapsed: 0.0003058910369873047
ell 96, elapsed: 0.0003070831298828125
ell 95, elapsed: 0.000308990478515625
ell 94, elapsed: 0.0003008842468261719
ell 93, elapsed: 0.00030612945556640625
ell 92, elapsed: 0.0003020763397216797
ell 91, elapsed: 0.0003139972686767578
ell 90, elapsed: 0.00030517578125
ell 89, elapsed: 0.00030493736267089844
ell 88, elapsed: 0.00031304359436035156
ell 87, elapsed: 0.0003380775451660156
ell 86, elapsed: 0.00031304359436035156
ell 85, elapsed: 0.0003039836883544922
ell 84, elapsed: 0.00030803680419921875
ell 83, elapsed: 0.00031685829162597656
ell 82, elapsed: 0.00030303001403808594
ell 81, elapsed: 0.00030684471130371094
ell 80, elapsed: 0.00030493736267089844
ell 79, elapsed: 0.00030303001403808594
ell 78, elapsed: 0.000308990478515625
ell 77, elapsed: 0.00030303001403808594
ell 76, elapsed: 0.0003249645233154297
ell 75, elapsed: 0.000308990478515625
ell 74, elapsed: 0.0003199577331542969
ell 73, elapsed: 0.0003108978271484375
ell 72, elapsed: 0.00030612945556640625
ell 71, elapsed: 0.0003108978271484375
ell 70, elapsed: 0.00030922889709472656
ell 69, elapsed: 0.00030493736267089844
ell 68, elapsed: 0.00031113624572753906
ell 67, elapsed: 0.0003108978271484375
ell 66, elapsed: 0.0003120899200439453
ell 65, elapsed: 0.0003058910369873047
ell 64, elapsed: 0.00031280517578125
ell 63, elapsed: 0.00030493736267089844
ell 62, elapsed: 0.0003230571746826172
ell 61, elapsed: 0.0003178119659423828
ell 60, elapsed: 0.00030612945556640625
ell 59, elapsed: 0.0003120899200439453
ell 58, elapsed: 0.0003018379211425781
ell 57, elapsed: 0.00030612945556640625
ell 56, elapsed: 0.0003120899200439453
ell 55, elapsed: 0.0003039836883544922
ell 54, elapsed: 0.00030803680419921875
ell 53, elapsed: 0.0003070831298828125
ell 52, elapsed: 0.0003001689910888672
ell 51, elapsed: 0.00032210350036621094
ell 50, elapsed: 0.00034308433532714844
ell 49, elapsed: 0.0003170967102050781
ell 48, elapsed: 0.0003070831298828125
ell 47, elapsed: 0.00030493736267089844
ell 46, elapsed: 0.0003120899200439453
ell 45, elapsed: 0.00030493736267089844
ell 44, elapsed: 0.0003077983856201172
ell 43, elapsed: 0.0003077983856201172
ell 42, elapsed: 0.0003139972686767578
ell 41, elapsed: 0.0003139972686767578
ell 40, elapsed: 0.00030803680419921875
ell 39, elapsed: 0.00031685829162597656
ell 38, elapsed: 0.0003209114074707031
ell 37, elapsed: 0.0003070831298828125
ell 36, elapsed: 0.00031495094299316406
ell 35, elapsed: 0.000308990478515625
ell 34, elapsed: 0.0003108978271484375
ell 33, elapsed: 0.00030803680419921875
ell 32, elapsed: 0.0003070831298828125
ell 31, elapsed: 0.00031280517578125
ell 30, elapsed: 0.0003058910369873047
ell 29, elapsed: 0.00031304359436035156
ell 28, elapsed: 0.0003070831298828125
ell 27, elapsed: 0.0003101825714111328
ell 26, elapsed: 0.00034999847412109375
ell 25, elapsed: 0.00030517578125
ell 24, elapsed: 0.0003161430358886719
ell 23, elapsed: 0.00030303001403808594
ell 22, elapsed: 0.00030493736267089844
ell 21, elapsed: 0.0003120899200439453
ell 20, elapsed: 0.0002989768981933594
ell 19, elapsed: 0.0003139972686767578
ell 18, elapsed: 0.0003161430358886719
ell 17, elapsed: 0.00030303001403808594
ell 16, elapsed: 0.00031304359436035156
ell 15, elapsed: 0.0003039836883544922
ell 14, elapsed: 0.0003108978271484375
ell 13, elapsed: 0.007526874542236328
ell 12, elapsed: 0.0016341209411621094
ell 11, elapsed: 0.0012221336364746094
ell 10, elapsed: 0.0006551742553710938
ell 9, elapsed: 0.0005540847778320312
ell 8, elapsed: 0.0004131793975830078
ell 7, elapsed: 0.00031185150146484375
ell 6, elapsed: 0.0003018379211425781
ell 5, elapsed: 0.0002989768981933594
ell 4, elapsed: 0.0003058910369873047
ell 3, elapsed: 0.0002989768981933594
ell 2, elapsed: 0.00030493736267089844
ell 1, elapsed: 0.0002989768981933594
ell 0, elapsed: 0.0003070831298828125
  0.108138 seconds (11.51 k allocations: 719.594 KiB)
elapsed: 0.0003972053527832031
step:          0.050839 sec (0 allocations: 0 byte, 0.0% gc time)
swapping:      0.000308 sec (0 allocations: 0 byte, 0.0% gc time)
calc_Mellell!: 0.000889 sec (0 allocations: 0 byte, 0.0% gc time)
  t0 :  0.000231 sec (0 allocations: 0 byte, 0.0% gc time)
  tm2 : 0.015502 sec (0 allocations: 0 byte, 0.0% gc time)
  tm2s: 0.000159 sec (0 allocations: 0 byte, 0.0% gc time)
  tm4 : 0.026266 sec (0 allocations: 0 byte, 0.0% gc time)
  tp2 : 0.0 sec (0 allocations: 0 byte, 0.0% gc time)
  tp2s: 0.0 sec (0 allocations: 0 byte, 0.0% gc time)
  tp4 : 0.0 sec (0 allocations: 0 byte, 0.0% gc time)
calc_wtdll!:   0.042479 sec (1.344 k allocations: 147.0 KB, 0.0% gc time)
calc_wljj!:    0.002284 sec (6 allocations: 96 byte, 0.0% gc time)
mult_prefac!:  0.0 sec (0 allocations: 0 byte, 0.0% gc time)
convert:       0.0 sec (0 allocations: 0 byte, 0.0% gc time)
write:         0.002703 sec (0 allocations: 0 byte, 0.0% gc time)
test_rand_2f1: 0.0 sec (0 allocations: 0 byte, 0.0% gc time)
Closing outfile out/Ml21-cache.bin...   0.000010 seconds
  0.000431 seconds (36 allocations: 27.953 KiB)
make_phi():   0.001663 seconds (8.18 k allocations: 237.844 KiB)
  0.011638 seconds (11.65 k allocations: 308.688 KiB)
tskip:       1.7e-5 sec (0 allocations: 0 byte, 0.0% gc time)
tread:       0.001904 sec (17 allocations: 2.125 KB, 0.0% gc time)
tmultphi:    0.001049 sec (0 allocations: 0 byte, 0.0% gc time)
tbrfft:      0.003161 sec (0 allocations: 0 byte, 0.0% gc time)
tmultprefac: 0.001848 sec (0 allocations: 0 byte, 0.0% gc time)
toutfunc:    0.003422 sec (10.304 k allocations: 196.0 KB, 0.0% gc time)
Testing R=0.9 ... passed
Calculating fmax: 
  dlrec    = 4
  dlrecRg1 = -4
  q=1.1, R=0.8:	  0.200755 seconds (103.21 k allocations: 14.840 MiB)

  0.200894 seconds (103.26 k allocations: 14.874 MiB)
ℓ = 1202
Δℓ = 4
ΔℓRg1 = -4
N = 1600
q = 1.1
kmin = 1.0e-5
kmax = 100000.00000000004
χ0 = 0.023029999999999995
RR = RR.tsv
ℓmax = ℓmax.bin
f21 = f21.bin
kmin = 1.0e-5
kmax = 100000.0
dlrec    = 4
dlrecRg1 = -4
Output size: 5741568 bytes = 0.005347251892089844 GiB
Output size: 51264 bytes = 4.774332046508789e-5 GiB
Reading 'out/F21EllCache'...   0.000920 seconds (197 allocations: 84.203 KiB)
ellmax: 1202
lmaxcache: 1202
fell[:,1,1] = ComplexF64[7.519068145690986e-120 - 1.8416405474382574e-135im, 7.541664537386155e-120 - 1.847175067190611e-135im]
ell 1202, elapsed: 1.5974044799804688e-5
ell 1201, elapsed: 0.0003151893615722656
ell 1200, elapsed: 0.0003020763397216797
ell 1199, elapsed: 0.00029397010803222656
ell 1198, elapsed: 0.00029087066650390625
ell 1002, elapsed: 0.00842905044555664
ell 1001, elapsed: 0.00026988983154296875
ell 1000, elapsed: 0.00026297569274902344
ell 999, elapsed: 0.0002620220184326172
ell 998, elapsed: 0.00026488304138183594
ell 902, elapsed: 0.0042569637298583984
ell 901, elapsed: 0.0002620220184326172
ell 900, elapsed: 0.0002620220184326172
ell 899, elapsed: 0.0002567768096923828
ell 898, elapsed: 0.00026297569274902344
ell 802, elapsed: 0.004213094711303711
ell 801, elapsed: 0.0002620220184326172
ell 800, elapsed: 0.00026702880859375
ell 799, elapsed: 0.0002620220184326172
ell 798, elapsed: 0.00027108192443847656
ell 702, elapsed: 0.004242897033691406
ell 701, elapsed: 0.0002601146697998047
ell 700, elapsed: 0.00026607513427734375
ell 699, elapsed: 0.00026798248291015625
ell 698, elapsed: 0.0004019737243652344
ell 602, elapsed: 0.004230976104736328
ell 601, elapsed: 0.00026416778564453125
ell 600, elapsed: 0.0002620220184326172
ell 599, elapsed: 0.0002658367156982422
ell 598, elapsed: 0.0002620220184326172
ell 502, elapsed: 0.004251956939697266
ell 501, elapsed: 0.00026607513427734375
ell 500, elapsed: 0.0002639293670654297
ell 499, elapsed: 0.00026798248291015625
ell 498, elapsed: 0.0002639293670654297
ell 402, elapsed: 0.004230022430419922
ell 401, elapsed: 0.0002701282501220703
ell 400, elapsed: 0.00026798248291015625
ell 399, elapsed: 0.00030303001403808594
ell 398, elapsed: 0.00026106834411621094
ell 302, elapsed: 0.004205942153930664
ell 301, elapsed: 0.0002598762512207031
ell 300, elapsed: 0.00025916099548339844
ell 299, elapsed: 0.00026297569274902344
ell 298, elapsed: 0.000270843505859375
ell 202, elapsed: 0.004311084747314453
ell 201, elapsed: 0.00027489662170410156
ell 200, elapsed: 0.00027298927307128906
ell 199, elapsed: 0.00026798248291015625
ell 198, elapsed: 0.0002682209014892578
ell 152, elapsed: 0.0021910667419433594
ell 151, elapsed: 0.00026416778564453125
ell 150, elapsed: 0.0002682209014892578
ell 149, elapsed: 0.0002620220184326172
ell 148, elapsed: 0.0002651214599609375
ell 127, elapsed: 0.0011470317840576172
ell 126, elapsed: 0.0003120899200439453
ell 125, elapsed: 0.00026702880859375
ell 124, elapsed: 0.00026488304138183594
ell 123, elapsed: 0.00026702880859375
ell 114, elapsed: 0.0006461143493652344
ell 113, elapsed: 0.00026917457580566406
ell 112, elapsed: 0.00026607513427734375
ell 111, elapsed: 0.00026607513427734375
ell 110, elapsed: 0.00026297569274902344
ell 102, elapsed: 0.0005931854248046875
ell 101, elapsed: 0.00026702880859375
ell 100, elapsed: 0.00026416778564453125
ell 99, elapsed: 0.0002961158752441406
ell 98, elapsed: 0.00026106834411621094
ell 97, elapsed: 0.0003108978271484375
ell 96, elapsed: 0.0002980232238769531
ell 95, elapsed: 0.0002999305725097656
ell 94, elapsed: 0.0003008842468261719
ell 93, elapsed: 0.0002911090850830078
ell 92, elapsed: 0.0002980232238769531
ell 91, elapsed: 0.00029397010803222656
ell 90, elapsed: 0.0002980232238769531
ell 89, elapsed: 0.00029087066650390625
ell 88, elapsed: 0.00029015541076660156
ell 87, elapsed: 0.0002989768981933594
ell 86, elapsed: 0.0003139972686767578
ell 85, elapsed: 0.0002968311309814453
ell 84, elapsed: 0.0002930164337158203
ell 83, elapsed: 0.0002911090850830078
ell 82, elapsed: 0.0002980232238769531
ell 81, elapsed: 0.0002951622009277344
ell 80, elapsed: 0.0002989768981933594
ell 79, elapsed: 0.0002989768981933594
ell 78, elapsed: 0.0002951622009277344
ell 77, elapsed: 0.0002999305725097656
ell 76, elapsed: 0.0002911090850830078
ell 75, elapsed: 0.00029587745666503906
ell 74, elapsed: 0.00033020973205566406
ell 73, elapsed: 0.0002911090850830078
ell 72, elapsed: 0.0003008842468261719
ell 71, elapsed: 0.0002918243408203125
ell 70, elapsed: 0.0003008842468261719
ell 69, elapsed: 0.0002911090850830078
ell 68, elapsed: 0.0002999305725097656
ell 67, elapsed: 0.00030303001403808594
ell 66, elapsed: 0.00030803680419921875
ell 65, elapsed: 0.0003039836883544922
ell 64, elapsed: 0.0003018379211425781
ell 63, elapsed: 0.0002970695495605469
ell 62, elapsed: 0.00030303001403808594
ell 61, elapsed: 0.00035691261291503906
ell 60, elapsed: 0.0003039836883544922
ell 59, elapsed: 0.0002989768981933594
ell 58, elapsed: 0.0002961158752441406
[...]
ell 782, elapsed: 0.0010228157043457031
ell 781, elapsed: 0.0005698204040527344
ell 780, elapsed: 0.0005772113800048828
ell 779, elapsed: 0.0005698204040527344
ell 778, elapsed: 0.0005738735198974609
ell 772, elapsed: 0.001013040542602539
ell 771, elapsed: 0.0005700588226318359
ell 770, elapsed: 0.000576019287109375
ell 769, elapsed: 0.0005741119384765625
ell 768, elapsed: 0.0005860328674316406
ell 762, elapsed: 0.0010008811950683594
ell 761, elapsed: 0.0006058216094970703
ell 760, elapsed: 0.0005900859832763672
ell 759, elapsed: 0.0005800724029541016
ell 758, elapsed: 0.0005898475646972656
ell 752, elapsed: 0.0010051727294921875
ell 751, elapsed: 0.0005719661712646484
ell 750, elapsed: 0.0006151199340820312
ell 749, elapsed: 0.0005788803100585938
ell 748, elapsed: 0.0005850791931152344
ell 742, elapsed: 0.0010149478912353516
ell 741, elapsed: 0.000576019287109375
ell 740, elapsed: 0.0005850791931152344
ell 739, elapsed: 0.0006191730499267578
ell 738, elapsed: 0.0005660057067871094
ell 732, elapsed: 0.0009500980377197266
ell 731, elapsed: 0.0005550384521484375
ell 730, elapsed: 0.0005669593811035156
ell 729, elapsed: 0.00055694580078125
ell 728, elapsed: 0.0005991458892822266
ell 722, elapsed: 0.0009489059448242188
ell 721, elapsed: 0.0005598068237304688
ell 720, elapsed: 0.0005598068237304688
ell 719, elapsed: 0.0005660057067871094
ell 718, elapsed: 0.0005648136138916016
ell 712, elapsed: 0.000985860824584961
ell 711, elapsed: 0.0005719661712646484
ell 710, elapsed: 0.0005829334259033203
ell 709, elapsed: 0.0005779266357421875
ell 708, elapsed: 0.0005850791931152344
ell 702, elapsed: 0.0010101795196533203
ell 701, elapsed: 0.0006170272827148438
ell 700, elapsed: 0.0005819797515869141
ell 699, elapsed: 0.0005769729614257812
ell 698, elapsed: 0.000579833984375
ell 692, elapsed: 0.001001119613647461
ell 691, elapsed: 0.0005719661712646484
ell 690, elapsed: 0.0006160736083984375
ell 689, elapsed: 0.0005578994750976562
ell 688, elapsed: 0.0005681514739990234
ell 682, elapsed: 0.0009758472442626953
ell 681, elapsed: 0.0005588531494140625
ell 680, elapsed: 0.0005691051483154297
ell 679, elapsed: 0.0006098747253417969
ell 678, elapsed: 0.0005800724029541016
ell 672, elapsed: 0.0010149478912353516
ell 671, elapsed: 0.0005850791931152344
ell 670, elapsed: 0.0005888938903808594
ell 669, elapsed: 0.0005779266357421875
ell 668, elapsed: 0.0006051063537597656
ell 662, elapsed: 0.0009558200836181641
ell 661, elapsed: 0.0005538463592529297
ell 660, elapsed: 0.000576019287109375
ell 659, elapsed: 0.0005640983581542969
ell 658, elapsed: 0.0006299018859863281
ell 652, elapsed: 0.0013551712036132812
ell 651, elapsed: 0.0006551742553710938
ell 650, elapsed: 0.0006830692291259766
ell 649, elapsed: 0.0006749629974365234
ell 648, elapsed: 0.0006999969482421875
ell 642, elapsed: 0.0013401508331298828
ell 641, elapsed: 0.0006580352783203125
ell 640, elapsed: 0.0006840229034423828
ell 639, elapsed: 0.000682830810546875
ell 638, elapsed: 0.0007419586181640625
ell 632, elapsed: 0.0014379024505615234
ell 631, elapsed: 0.0006730556488037109
ell 630, elapsed: 0.0006909370422363281
ell 629, elapsed: 0.0007150173187255859
ell 628, elapsed: 0.0006909370422363281
ell 622, elapsed: 0.0013608932495117188
ell 621, elapsed: 0.0006480216979980469
ell 620, elapsed: 0.0006690025329589844
ell 619, elapsed: 0.0007240772247314453
ell 618, elapsed: 0.0006639957427978516
ell 612, elapsed: 0.0012791156768798828
ell 611, elapsed: 0.0006489753723144531
ell 610, elapsed: 0.0006771087646484375
ell 609, elapsed: 0.0006530284881591797
ell 608, elapsed: 0.000659942626953125
ell 602, elapsed: 0.0013039112091064453
ell 601, elapsed: 0.0006480216979980469
ell 600, elapsed: 0.0006880760192871094
ell 599, elapsed: 0.0006570816040039062
ell 598, elapsed: 0.0006740093231201172
ell 592, elapsed: 0.0013048648834228516
ell 591, elapsed: 0.0006589889526367188
ell 590, elapsed: 0.0007159709930419922
ell 589, elapsed: 0.0006618499755859375
ell 588, elapsed: 0.0006680488586425781
ell 582, elapsed: 0.0013151168823242188
ell 581, elapsed: 0.0006821155548095703
ell 580, elapsed: 0.0006730556488037109
ell 579, elapsed: 0.0006558895111083984
ell 578, elapsed: 0.0006601810455322266
ell 572, elapsed: 0.00131988525390625
ell 571, elapsed: 0.0006830692291259766
ell 570, elapsed: 0.0006649494171142578
ell 569, elapsed: 0.0006089210510253906
ell 568, elapsed: 0.0005681514739990234
ell 562, elapsed: 0.0009860992431640625
ell 561, elapsed: 0.0006070137023925781
ell 560, elapsed: 0.0005638599395751953
ell 559, elapsed: 0.0005550384521484375
ell 558, elapsed: 0.0005700588226318359
ell 552, elapsed: 0.0008041858673095703
ell 551, elapsed: 0.00046706199645996094
ell 550, elapsed: 0.0004780292510986328
ell 549, elapsed: 0.0005238056182861328
ell 548, elapsed: 0.00048089027404785156
ell 542, elapsed: 0.0007748603820800781
ell 541, elapsed: 0.0004680156707763672
ell 540, elapsed: 0.0004761219024658203
ell 539, elapsed: 0.00046706199645996094
ell 538, elapsed: 0.00047898292541503906
ell 532, elapsed: 0.0008189678192138672
ell 531, elapsed: 0.0004680156707763672
ell 530, elapsed: 0.00047397613525390625
ell 529, elapsed: 0.00047087669372558594
ell 528, elapsed: 0.00047397613525390625
ell 522, elapsed: 0.0007951259613037109
ell 521, elapsed: 0.0004680156707763672
ell 520, elapsed: 0.0004818439483642578
ell 519, elapsed: 0.000514984130859375
ell 518, elapsed: 0.00047588348388671875
ell 512, elapsed: 0.0007991790771484375
ell 511, elapsed: 0.00046706199645996094
ell 510, elapsed: 0.00047898292541503906
ell 509, elapsed: 0.0004639625549316406
ell 508, elapsed: 0.00047898292541503906
ell 502, elapsed: 0.0012211799621582031
ell 501, elapsed: 0.0006511211395263672
ell 500, elapsed: 0.0006601810455322266
ell 499, elapsed: 0.0006589889526367188
ell 498, elapsed: 0.0006659030914306641
ell 492, elapsed: 0.0013668537139892578
ell 491, elapsed: 0.0006499290466308594
ell 490, elapsed: 0.0006690025329589844
ell 489, elapsed: 0.0006620883941650391
ell 488, elapsed: 0.0006971359252929688
ell 482, elapsed: 0.0013229846954345703
ell 481, elapsed: 0.0006568431854248047
ell 480, elapsed: 0.0006680488586425781
ell 479, elapsed: 0.0006608963012695312
ell 478, elapsed: 0.0007190704345703125
ell 472, elapsed: 0.0013070106506347656
ell 471, elapsed: 0.0006630420684814453
ell 470, elapsed: 0.0006649494171142578
ell 469, elapsed: 0.0006699562072753906
ell 468, elapsed: 0.0006759166717529297
ell 462, elapsed: 0.0013120174407958984
ell 461, elapsed: 0.0006470680236816406
ell 460, elapsed: 0.0006661415100097656
ell 459, elapsed: 0.0006930828094482422
ell 458, elapsed: 0.0006477832794189453
ell 452, elapsed: 0.0013279914855957031
ell 451, elapsed: 0.0006699562072753906
ell 450, elapsed: 0.0006830692291259766
ell 449, elapsed: 0.0007340908050537109
ell 448, elapsed: 0.0006818771362304688
ell 442, elapsed: 0.0014100074768066406
ell 441, elapsed: 0.0006699562072753906
ell 440, elapsed: 0.0007109642028808594
ell 439, elapsed: 0.0006949901580810547
ell 438, elapsed: 0.0006761550903320312
ell 432, elapsed: 0.0013849735260009766
ell 431, elapsed: 0.0006759166717529297
ell 430, elapsed: 0.000720977783203125
ell 429, elapsed: 0.0006690025329589844
ell 428, elapsed: 0.0006649494171142578
ell 422, elapsed: 0.0011649131774902344
ell 421, elapsed: 0.0005888938903808594
ell 420, elapsed: 0.0005860328674316406
ell 419, elapsed: 0.0005578994750976562
ell 418, elapsed: 0.0005810260772705078
ell 412, elapsed: 0.0010111331939697266
ell 411, elapsed: 0.0005688667297363281
ell 410, elapsed: 0.00061798095703125
ell 409, elapsed: 0.000576019287109375
ell 408, elapsed: 0.0005769729614257812
ell 402, elapsed: 0.001016855239868164
ell 401, elapsed: 0.0005691051483154297
ell 400, elapsed: 0.0005829334259033203
ell 399, elapsed: 0.000621795654296875
ell 398, elapsed: 0.0005788803100585938
ell 392, elapsed: 0.0010039806365966797
ell 391, elapsed: 0.0005691051483154297
ell 390, elapsed: 0.0005879402160644531
ell 389, elapsed: 0.0005769729614257812
ell 388, elapsed: 0.000614166259765625
ell 382, elapsed: 0.0010309219360351562
ell 381, elapsed: 0.0005741119384765625
ell 380, elapsed: 0.0005850791931152344
ell 379, elapsed: 0.0005772113800048828
ell 378, elapsed: 0.0005848407745361328
ell 372, elapsed: 0.0010399818420410156
ell 371, elapsed: 0.0005769729614257812
ell 370, elapsed: 0.0005860328674316406
ell 369, elapsed: 0.0005810260772705078
ell 368, elapsed: 0.0005888938903808594
ell 362, elapsed: 0.0010700225830078125
ell 361, elapsed: 0.0005750656127929688
ell 360, elapsed: 0.0005860328674316406
ell 359, elapsed: 0.0005779266357421875
ell 358, elapsed: 0.0005860328674316406
ell 352, elapsed: 0.0010228157043457031
ell 351, elapsed: 0.0005979537963867188
ell 350, elapsed: 0.0005891323089599609
ell 349, elapsed: 0.0005600452423095703
ell 348, elapsed: 0.0005710124969482422
ell 342, elapsed: 0.0009710788726806641
ell 341, elapsed: 0.0005600452423095703
ell 340, elapsed: 0.0006220340728759766
ell 339, elapsed: 0.0005559921264648438
ell 338, elapsed: 0.0005650520324707031
ell 332, elapsed: 0.0009670257568359375
ell 331, elapsed: 0.0005540847778320312
ell 330, elapsed: 0.0005650520324707031
ell 329, elapsed: 0.0005970001220703125
ell 328, elapsed: 0.0005640983581542969
ell 322, elapsed: 0.0009589195251464844
ell 321, elapsed: 0.0005559921264648438
ell 320, elapsed: 0.0005650520324707031
ell 319, elapsed: 0.0005631446838378906
ell 318, elapsed: 0.0005710124969482422
ell 312, elapsed: 0.0009908676147460938
ell 311, elapsed: 0.0005521774291992188
ell 310, elapsed: 0.0005660057067871094
ell 309, elapsed: 0.0005609989166259766
ell 308, elapsed: 0.0005679130554199219
ell 302, elapsed: 0.0009579658508300781
ell 301, elapsed: 0.00046706199645996094
ell 300, elapsed: 0.00047779083251953125
ell 299, elapsed: 0.0004680156707763672
ell 298, elapsed: 0.00047898292541503906
ell 292, elapsed: 0.0007770061492919922
ell 291, elapsed: 0.0004730224609375
ell 290, elapsed: 0.0004830360412597656
ell 289, elapsed: 0.0004999637603759766
ell 288, elapsed: 0.0004761219024658203
ell 282, elapsed: 0.0007958412170410156
ell 281, elapsed: 0.0004639625549316406
ell 280, elapsed: 0.00048089027404785156
ell 279, elapsed: 0.00046706199645996094
ell 278, elapsed: 0.0004761219024658203
ell 272, elapsed: 0.000804901123046875
ell 271, elapsed: 0.0004649162292480469
ell 270, elapsed: 0.0004718303680419922
ell 269, elapsed: 0.0004677772521972656
ell 268, elapsed: 0.0004749298095703125
ell 262, elapsed: 0.0007660388946533203
ell 261, elapsed: 0.0004649162292480469
ell 260, elapsed: 0.0005469322204589844
ell 259, elapsed: 0.0004661083221435547
ell 258, elapsed: 0.00047087669372558594
ell 252, elapsed: 0.0007770061492919922
ell 251, elapsed: 0.0004680156707763672
ell 250, elapsed: 0.0004730224609375
ell 249, elapsed: 0.00046706199645996094
ell 248, elapsed: 0.00047707557678222656
ell 242, elapsed: 0.0009510517120361328
ell 241, elapsed: 0.0005428791046142578
ell 240, elapsed: 0.0005409717559814453
ell 239, elapsed: 0.0005428791046142578
ell 238, elapsed: 0.0005500316619873047
ell 232, elapsed: 0.0009739398956298828
ell 231, elapsed: 0.000537872314453125
ell 230, elapsed: 0.0005469322204589844
ell 229, elapsed: 0.0005509853363037109
ell 228, elapsed: 0.0005469322204589844
ell 222, elapsed: 0.0009660720825195312
ell 221, elapsed: 0.0005679130554199219
ell 220, elapsed: 0.0005459785461425781
ell 219, elapsed: 0.0005369186401367188
ell 218, elapsed: 0.0005538463592529297
ell 212, elapsed: 0.0009410381317138672
ell 211, elapsed: 0.0005288124084472656
ell 210, elapsed: 0.0005481243133544922
ell 209, elapsed: 0.0006208419799804688
ell 208, elapsed: 0.0005800724029541016
ell 202, elapsed: 0.0010149478912353516
ell 201, elapsed: 0.0005719661712646484
ell 200, elapsed: 0.0005729198455810547
ell 199, elapsed: 0.0005660057067871094
ell 198, elapsed: 0.0005869865417480469
ell 192, elapsed: 0.0009200572967529297
ell 191, elapsed: 0.0005359649658203125
ell 190, elapsed: 0.0005590915679931641
ell 189, elapsed: 0.0005660057067871094
ell 188, elapsed: 0.0005860328674316406
ell 182, elapsed: 0.0010268688201904297
ell 181, elapsed: 0.0005538463592529297
ell 180, elapsed: 0.0005619525909423828
ell 179, elapsed: 0.0005660057067871094
ell 178, elapsed: 0.0005679130554199219
ell 172, elapsed: 0.0010180473327636719
ell 171, elapsed: 0.0005650520324707031
ell 170, elapsed: 0.0005719661712646484
ell 169, elapsed: 0.0005629062652587891
ell 168, elapsed: 0.0005609989166259766
ell 162, elapsed: 0.0009799003601074219
ell 161, elapsed: 0.0005800724029541016
ell 160, elapsed: 0.0005619525909423828
ell 159, elapsed: 0.0005619525909423828
ell 158, elapsed: 0.0005741119384765625
ell 152, elapsed: 0.000982046127319336
ell 151, elapsed: 0.0005550384521484375
ell 150, elapsed: 0.0005850791931152344
ell 149, elapsed: 0.0005519390106201172
ell 148, elapsed: 0.0005581378936767578
ell 142, elapsed: 0.0009431838989257812
ell 141, elapsed: 0.0005180835723876953
ell 140, elapsed: 0.0005438327789306641
ell 139, elapsed: 0.0005300045013427734
ell 138, elapsed: 0.0005710124969482422
ell 132, elapsed: 0.0009450912475585938
ell 131, elapsed: 0.0005259513854980469
ell 130, elapsed: 0.0005488395690917969
ell 129, elapsed: 0.0005459785461425781
ell 128, elapsed: 0.0005509853363037109
ell 122, elapsed: 0.0009741783142089844
ell 121, elapsed: 0.0005331039428710938
ell 120, elapsed: 0.0005519390106201172
ell 119, elapsed: 0.0005509853363037109
ell 118, elapsed: 0.0005581378936767578
ell 112, elapsed: 0.0009379386901855469
ell 111, elapsed: 0.00061798095703125
ell 110, elapsed: 0.0005869865417480469
ell 109, elapsed: 0.0005800724029541016
ell 108, elapsed: 0.0005850791931152344
ell 102, elapsed: 0.001007080078125
ell 101, elapsed: 0.0023660659790039062
ell 100, elapsed: 0.002452850341796875
ell 99, elapsed: 0.0023488998413085938
ell 98, elapsed: 0.0024111270904541016
ell 92, elapsed: 0.004533052444458008
ell 91, elapsed: 0.002331972122192383
ell 90, elapsed: 0.0023300647735595703
ell 89, elapsed: 0.002328157424926758
ell 88, elapsed: 0.002309083938598633
ell 82, elapsed: 0.004441022872924805
ell 81, elapsed: 0.002321004867553711
ell 80, elapsed: 0.0023849010467529297
ell 79, elapsed: 0.0023238658905029297
ell 78, elapsed: 0.0023529529571533203
ell 72, elapsed: 0.004475831985473633
ell 71, elapsed: 0.002348184585571289
ell 70, elapsed: 0.0023810863494873047
ell 69, elapsed: 0.0024008750915527344
ell 68, elapsed: 0.002331972122192383
ell 62, elapsed: 0.00451207160949707
ell 61, elapsed: 0.0023488998413085938
ell 60, elapsed: 0.002382993698120117
ell 59, elapsed: 0.0023179054260253906
ell 58, elapsed: 0.002351045608520508
ell 52, elapsed: 0.004405021667480469
ell 51, elapsed: 0.0023109912872314453
ell 50, elapsed: 0.002357006072998047
ell 49, elapsed: 0.0023298263549804688
ell 48, elapsed: 0.0023069381713867188
ell 42, elapsed: 0.004648923873901367
ell 41, elapsed: 0.0024580955505371094
ell 40, elapsed: 0.002460002899169922
ell 39, elapsed: 0.0024309158325195312
ell 38, elapsed: 0.00244903564453125
ell 32, elapsed: 0.004467964172363281
ell 31, elapsed: 0.002351999282836914
ell 30, elapsed: 0.0023431777954101562
ell 29, elapsed: 0.0023758411407470703
ell 28, elapsed: 0.002346038818359375
ell 22, elapsed: 0.004520893096923828
ell 21, elapsed: 0.002335071563720703
ell 20, elapsed: 0.002331972122192383
ell 19, elapsed: 0.002341032028198242
ell 18, elapsed: 0.0023758411407470703
ell 12, elapsed: 0.0045108795166015625
ell 11, elapsed: 0.0024030208587646484
ell 10, elapsed: 0.0023469924926757812
ell 9, elapsed: 0.0023539066314697266
ell 8, elapsed: 0.0023369789123535156
  0.535586 seconds (68.56 k allocations: 12.176 MiB)
elapsed: 0.0028128623962402344
step:          0.043613 sec (0 allocations: 0 byte, 0.0% gc time)
swapping:      0.000429 sec (0 allocations: 0 byte, 0.0% gc time)
calc_Mellell!: 0.020871 sec (0 allocations: 0 byte, 0.0% gc time)
  t0 :  0.007144 sec (0 allocations: 0 byte, 0.0% gc time)
  tm2 : 0.052017 sec (0 allocations: 0 byte, 0.0% gc time)
  tm2s: 0.006217 sec (0 allocations: 0 byte, 0.0% gc time)
  tm4 : 0.118709 sec (0 allocations: 0 byte, 0.0% gc time)
  tp2 : 0.0 sec (0 allocations: 0 byte, 0.0% gc time)
  tp2s: 0.0 sec (0 allocations: 0 byte, 0.0% gc time)
  tp4 : 0.0 sec (0 allocations: 0 byte, 0.0% gc time)
calc_wtdll!:   0.396384 sec (48.6 k allocations: 11.096 MB, 0.0% gc time)
calc_wljj!:    0.019645 sec (69 allocations: 1.078 KB, 0.0% gc time)
mult_prefac!:  0.0 sec (0 allocations: 0 byte, 0.0% gc time)
convert:       0.0 sec (0 allocations: 0 byte, 0.0% gc time)
write:         0.026954 sec (0 allocations: 0 byte, 0.0% gc time)
test_rand_2f1: 0.0 sec (0 allocations: 0 byte, 0.0% gc time)
Closing outfile out/MlCache/MlCache.bin...   0.000007 seconds
xi, l=0, nu=0:   0.274608 seconds (602.75 k allocations: 32.962 MiB, 99.40% compilation time)
xi, l=0, nu=-2:  0.001497 seconds (114 allocations: 148.969 KiB)
Created 'out/xi.tsv'.
  q=1.1, R=0.6:	  0.403755 seconds (264.58 k allocations: 38.109 MiB)
  q=1.1, R=0.7:	  0.487477 seconds (276.43 k allocations: 40.113 MiB, 3.67% gc time)
  q=1.1, R=0.8:	  0.490189 seconds (271.87 k allocations: 39.334 MiB, 2.75% gc time)
  q=1.1, R=0.9:	  0.573909 seconds (266.68 k allocations: 38.464 MiB, 1.74% gc time)
  q=1.1, R=0.998:	 14.674235 seconds (114.96 k allocations: 7.588 MiB)
  q=1.1, R=1.0:	  0.003233 seconds (8.20 k allocations: 704.344 KiB)

ℓ = 1000
Δℓ = 4
ΔℓRg1 = -4
N = 4096
q = 1.1
kmin = 1.0e-5
kmax = 1000.0
χ0 = 0.001
RR = RR.tsv
ℓmax = ℓmax.bin
f21 = f21.bin
kmin = 1.0e-5
kmax = 1000.0
dlrec    = 4
dlrecRg1 = -4
Output size: 1573632 bytes = 0.0014655590057373047 GiB
Output size: 786816 bytes = 0.0007327795028686523 GiB
Reading 'out/F21EllCache'...   0.001126 seconds (198 allocations: 533.078 KiB)
ellmax: 1002
lmaxcache: 1000
fell[:,1,1] = ComplexF64[1.726292812820208e-224 - 4.2281979352226965e-240im, 1.7282693092099638e-224 - 4.233038955177178e-240im]
ell 1002, elapsed: 1.5020370483398438e-5
ell 1001, elapsed: 0.0007870197296142578
ell 1000, elapsed: 0.0006589889526367188
ell 999, elapsed: 0.00418400764465332
ell 998, elapsed: 0.0041790008544921875
ell 44, elapsed: 0.5990140438079834
ell 43, elapsed: 0.003955841064453125
ell 42, elapsed: 0.003962039947509766
ell 41, elapsed: 0.003977060317993164
ell 40, elapsed: 0.003941774368286133
  0.629585 seconds (4.59 k allocations: 322.266 KiB)
elapsed: 0.004709959030151367
step:          0.596072 sec (0 allocations: 0 byte, 0.0% gc time)
swapping:      0.00035 sec (0 allocations: 0 byte, 0.0% gc time)
calc_Mellell!: 0.000841 sec (0 allocations: 0 byte, 0.0% gc time)
  t0 :  0.000423 sec (0 allocations: 0 byte, 0.0% gc time)
  tm2 : 0.007689 sec (0 allocations: 0 byte, 0.0% gc time)
  tm2s: 0.000408 sec (0 allocations: 0 byte, 0.0% gc time)
  tm4 : 0.019032 sec (0 allocations: 0 byte, 0.0% gc time)
  tp2 : 0.0 sec (0 allocations: 0 byte, 0.0% gc time)
  tp2s: 0.0 sec (0 allocations: 0 byte, 0.0% gc time)
  tp4 : 0.0 sec (0 allocations: 0 byte, 0.0% gc time)
calc_wtdll!:   0.027697 sec (480 allocations: 52.5 KB, 0.0% gc time)
calc_wljj!:    0.000826 sec (1 allocations: 16 byte, 0.0% gc time)
mult_prefac!:  0.0 sec (0 allocations: 0 byte, 0.0% gc time)
convert:       0.0 sec (0 allocations: 0 byte, 0.0% gc time)
write:         0.00065 sec (0 allocations: 0 byte, 0.0% gc time)
test_rand_2f1: 0.0 sec (0 allocations: 0 byte, 0.0% gc time)
Closing outfile out/MlCache/MlCache.bin...   0.000005 seconds
  0.386971 seconds (38 allocations: 66.859 KiB)
make_phi():   0.006417 seconds (65 allocations: 275.984 KiB)
  0.043181 seconds (11.42 k allocations: 711.960 KiB, 92.59% compilation time)
tskip:       0.0 sec (0 allocations: 0 byte, 0.0% gc time)
tread:       0.000563 sec (17 allocations: 1.266 KB, 0.0% gc time)
tmultphi:    0.000222 sec (0 allocations: 0 byte, 0.0% gc time)
tbrfft:      0.001011 sec (0 allocations: 0 byte, 0.0% gc time)
tmultprefac: 0.000414 sec (0 allocations: 0 byte, 0.0% gc time)
toutfunc:    8.5e-5 sec (0 allocations: 0 byte, 0.0% gc time)
Created 'out/wl42_jj00.tsv'.
Created 'out/wl42_jj02.tsv'.
    Testing TwoFAST tests passed 
