Julia Version 1.6.0-DEV.1139
Commit be1f3abcc6 (2020-10-06 02:47 UTC)
Platform Info:
  OS: Linux (x86_64-linux-gnu)
  CPU: AMD EPYC 7502 32-Core Processor
  WORD_SIZE: 64
  LIBM: libopenlibm
  LLVM: libLLVM-10.0.1 (ORCJIT, znver2)
Environment:
  JULIA_DEPOT_PATH = ::/usr/local/share/julia
  JULIA_NUM_THREADS = 2

  Resolving package versions...
  Installed MKL_jll ────────────────────── v2020.2.254+0
  Installed FFTW_jll ───────────────────── v3.3.9+5
  Installed GenericSVD ─────────────────── v0.3.0
  Installed AbstractFFTs ───────────────── v0.5.0
  Installed BinaryProvider ─────────────── v0.5.10
  Installed FFTW ───────────────────────── v1.2.4
  Installed ArbNumerics ────────────────── v1.2.1
  Installed IntelOpenMP_jll ────────────── v2018.0.3+0
  Installed Readables ──────────────────── v0.3.3
  Installed OpenSpecFun_jll ────────────── v0.5.3+3
  Installed CompilerSupportLibraries_jll ─ v0.3.3+0
  Installed Reexport ───────────────────── v0.2.0
  Installed TwoFAST ────────────────────── v0.1.3
  Installed SpecialFunctions ───────────── v0.10.3
  Installed GenericSchur ───────────────── v0.4.0
Updating `~/.julia/environments/v1.6/Project.toml`
  [0dd23c3e] + TwoFAST v0.1.3
Updating `~/.julia/environments/v1.6/Manifest.toml`
  [621f4979] + AbstractFFTs v0.5.0
  [7e558dbc] + ArbNumerics v1.2.1
  [b99e7846] + BinaryProvider v0.5.10
  [e66e0078] + CompilerSupportLibraries_jll v0.3.3+0
  [7a1cc6ca] + FFTW v1.2.4
  [f5851436] + FFTW_jll v3.3.9+5
  [01680d73] + GenericSVD v0.3.0
  [c145ed77] + GenericSchur v0.4.0
  [1d5cc7b8] + IntelOpenMP_jll v2018.0.3+0
  [856f044c] + MKL_jll v2020.2.254+0
  [efe28fd5] + OpenSpecFun_jll v0.5.3+3
  [0d4725de] + Readables v0.3.3
  [189a3867] + Reexport v0.2.0
  [276daf66] + SpecialFunctions v0.10.3
  [0dd23c3e] + TwoFAST v0.1.3
  [56f22d72] + Artifacts
  [2a0f44e3] + Base64
  [ade2ca70] + Dates
  [8bb1440f] + DelimitedFiles
  [8ba89e20] + Distributed
  [b77e0a4c] + InteractiveUtils
  [76f85450] + LibGit2
  [8f399da3] + Libdl
  [37e2e46d] + LinearAlgebra
  [56ddb016] + Logging
  [d6f4376e] + Markdown
  [a63ad114] + Mmap
  [44cfe95a] + Pkg
  [de0858da] + Printf
  [3fa0cd96] + REPL
  [9a3f8284] + Random
  [ea8e919c] + SHA
  [9e88b42a] + Serialization
  [6462fe0b] + Sockets
  [fa267f1f] + TOML
  [8dfed614] + Test
  [cf7118a7] + UUIDs
  [4ec0a83e] + Unicode
   Building FFTW ───────→ `~/.julia/scratchspaces/44cfe95a-1eb2-52ea-b672-e2afdf69b78f/8b7c16b56936047ca41bf25effa137ae0b381ae8/build.log`
   Building ArbNumerics → `~/.julia/scratchspaces/44cfe95a-1eb2-52ea-b672-e2afdf69b78f/329a81d67c64e3a51c176a243b6424fbe39213d0/build.log`
    Testing TwoFAST
Status `/tmp/jl_KICi3v/Project.toml`
  [7e558dbc] ArbNumerics v1.2.1
  [39dd38d3] Dierckx v0.5.0
  [7a1cc6ca] FFTW v1.2.4
  [276daf66] SpecialFunctions v0.10.3
  [0dd23c3e] TwoFAST v0.1.3
  [8bb1440f] DelimitedFiles
  [37e2e46d] LinearAlgebra
  [56ddb016] Logging
  [8dfed614] Test
Status `/tmp/jl_KICi3v/Manifest.toml`
  [621f4979] AbstractFFTs v0.5.0
  [7e558dbc] ArbNumerics v1.2.1
  [b99e7846] BinaryProvider v0.5.10
  [e66e0078] CompilerSupportLibraries_jll v0.3.3+0
  [39dd38d3] Dierckx v0.5.0
  [cd4c43a9] Dierckx_jll v0.0.1+0
  [7a1cc6ca] FFTW v1.2.4
  [f5851436] FFTW_jll v3.3.9+5
  [01680d73] GenericSVD v0.3.0
  [c145ed77] GenericSchur v0.4.0
  [1d5cc7b8] IntelOpenMP_jll v2018.0.3+0
  [856f044c] MKL_jll v2020.2.254+0
  [efe28fd5] OpenSpecFun_jll v0.5.3+3
  [0d4725de] Readables v0.3.3
  [189a3867] Reexport v0.2.0
  [276daf66] SpecialFunctions v0.10.3
  [0dd23c3e] TwoFAST v0.1.3
  [56f22d72] Artifacts
  [2a0f44e3] Base64
  [ade2ca70] Dates
  [8bb1440f] DelimitedFiles
  [8ba89e20] Distributed
  [b77e0a4c] InteractiveUtils
  [76f85450] LibGit2
  [8f399da3] Libdl
  [37e2e46d] LinearAlgebra
  [56ddb016] Logging
  [d6f4376e] Markdown
  [a63ad114] Mmap
  [44cfe95a] Pkg
  [de0858da] Printf
  [3fa0cd96] REPL
  [9a3f8284] Random
  [ea8e919c] SHA
  [9e88b42a] Serialization
  [6462fe0b] Sockets
  [fa267f1f] TOML
  [8dfed614] Test
  [cf7118a7] UUIDs
  [4ec0a83e] Unicode
    Testing Running tests...
WARNING: could not import Printf.ini_hex into ArbNumerics
WARNING: could not import Printf.ini_HEX into ArbNumerics
t = 0.0 sec (0 allocations: 0 byte, 0.0% gc time)
typeof(t) = NamedTuple{(:value, :time, :bytes, :gctime, :gcstats), Tuple{DataType, Float64, Int64, Float64, Base.GC_Diff}}
TwoFAST.PerformanceStats.TimedType = Union{NamedTuple{(:value, :time, :bytes, :gctime, :gcstats), Tuple{T, Float64, Int64, Float64, Base.GC_Diff}}, Tuple{Any, Float64, Int64, Float64, Base.GC_Diff}} where T
t = 0.0 sec (0 allocations: 0 byte, 0.0% gc time)
t: 0.0 sec (0 allocations: 0 byte, 0.0% gc time)
Testing ξ(r), ℓ=0, ν=-1 ... passed
Testing ξ(r), ℓ=0, ν=0 ... passed
Testing ξ(r), ℓ=0, ν=1 ... passed
Testing ξ(r), ℓ=0, ν=2 ... passed
Testing ξ(r), ℓ=0, ν=3 ... passed
Testing ξ(r), ℓ=1, ν=0 ... passed
Testing ξ(r), ℓ=1, ν=1 ... passed
Testing ξ(r), ℓ=1, ν=2 ... passed
Testing ξ(r), ℓ=1, ν=3 ... passed
Testing ξ(r), ℓ=2, ν=-1 ... passed
Testing ξ(r), ℓ=2, ν=0 ... passed
Testing ξ(r), ℓ=2, ν=1 ... passed
Testing ξ(r), ℓ=2, ν=2 ... passed
Testing ξ(r), ℓ=2, ν=3 ... passed
Testing ξ(r), ℓ=3, ν=-1 ... passed
Testing ξ(r), ℓ=3, ν=0 ... passed
Testing ξ(r), ℓ=3, ν=1 ... passed
Testing ξ(r), ℓ=3, ν=2 ... passed
Testing ξ(r), ℓ=3, ν=3 ... passed
Testing ξ(r), ℓ=4, ν=-1 ... passed
Testing ξ(r), ℓ=4, ν=0 ... passed
Testing ξ(r), ℓ=4, ν=1 ... passed
Testing ξ(r), ℓ=4, ν=2 ... passed
Testing ξ(r), ℓ=4, ν=3 ... passed
Testing ξ(r) ... passed
Testing ξ′(r) ... passed
Testing ξ″(r) ... passed
Calculating fmax: 
  dlrec    = 4
  dlrecRg1 = -4
  q=1.1, R=1.1:	  4.732174 seconds (903.06 k allocations: 56.970 MiB, 0.90% gc time, 93.77% compilation time)

  4.788278 seconds (917.32 k allocations: 57.842 MiB, 0.89% gc time, 93.80% compilation time)
ℓ = 1202
Δℓ = 4
ΔℓRg1 = -4
N = 1600
q = 1.1
kmin = 1.0e-5
kmax = 100000.00000000004
χ0 = 0.023029999999999995
RR = RR.tsv
ℓmax = ℓmax.bin
f21 = f21.bin
kmin = 1.0e-5
kmax = 100000.0
dlrec    = 4
dlrecRg1 = -4
Output size: 5741568 bytes = 0.005347251892089844 GiB
Output size: 51264 bytes = 4.774332046508789e-5 GiB
Reading 'out/F21EllCache'...   0.951152 seconds (429.26 k allocations: 25.155 MiB, 4.39% gc time, 99.42% compilation time)
ellmax: 1202
lmaxcache: 1202
fell[:,1,1] = ComplexF64[3.9583795592771634e-52 - 9.695233714158177e-68im, 3.990121772925759e-52 - 9.772979714843386e-68im]
ell 1202, elapsed: 3.1948089599609375e-5
ell 1201, elapsed: 1.47776198387146
ell 1200, elapsed: 0.00043582916259765625
ell 1199, elapsed: 0.00043201446533203125
ell 1198, elapsed: 0.0004010200500488281
ell 1002, elapsed: 0.008633852005004883
ell 1001, elapsed: 0.0004019737243652344
ell 1000, elapsed: 0.00039386749267578125
ell 999, elapsed: 0.0003910064697265625
ell 998, elapsed: 0.0003941059112548828
ell 902, elapsed: 0.004400968551635742
ell 901, elapsed: 0.00042510032653808594
ell 900, elapsed: 0.00044989585876464844
ell 899, elapsed: 0.0003979206085205078
ell 898, elapsed: 0.0003981590270996094
ell 802, elapsed: 0.004427194595336914
ell 801, elapsed: 0.0004029273986816406
ell 800, elapsed: 0.00039196014404296875
ell 799, elapsed: 0.0003941059112548828
ell 798, elapsed: 0.0003991127014160156
ell 702, elapsed: 0.0043790340423583984
ell 701, elapsed: 0.00045299530029296875
ell 700, elapsed: 0.0004050731658935547
ell 699, elapsed: 0.0003998279571533203
ell 698, elapsed: 0.00039315223693847656
ell 602, elapsed: 0.004391908645629883
ell 601, elapsed: 0.0003991127014160156
ell 600, elapsed: 0.000392913818359375
ell 599, elapsed: 0.0004048347473144531
ell 598, elapsed: 0.0003998279571533203
ell 502, elapsed: 0.004416942596435547
ell 501, elapsed: 0.00040602684020996094
ell 500, elapsed: 0.0004010200500488281
ell 499, elapsed: 0.0003998279571533203
ell 498, elapsed: 0.00039315223693847656
ell 402, elapsed: 0.004370927810668945
ell 401, elapsed: 0.0004100799560546875
ell 400, elapsed: 0.0004050731658935547
ell 399, elapsed: 0.0003981590270996094
ell 398, elapsed: 0.0004050731658935547
ell 302, elapsed: 0.004464149475097656
ell 301, elapsed: 0.0004038810729980469
ell 300, elapsed: 0.00039696693420410156
ell 299, elapsed: 0.0003991127014160156
ell 298, elapsed: 0.00039696693420410156
ell 202, elapsed: 0.0043370723724365234
ell 201, elapsed: 0.0003941059112548828
ell 200, elapsed: 0.00038814544677734375
ell 199, elapsed: 0.00038695335388183594
ell 198, elapsed: 0.0004379749298095703
ell 152, elapsed: 0.0022339820861816406
ell 151, elapsed: 0.00038886070251464844
ell 150, elapsed: 0.00039196014404296875
ell 149, elapsed: 0.0003871917724609375
ell 148, elapsed: 0.00042891502380371094
ell 127, elapsed: 0.0012450218200683594
ell 126, elapsed: 0.00039005279541015625
ell 125, elapsed: 0.0003991127014160156
ell 124, elapsed: 0.00039386749267578125
ell 123, elapsed: 0.00039505958557128906
ell 114, elapsed: 0.0007660388946533203
ell 113, elapsed: 0.00046181678771972656
ell 112, elapsed: 0.00039315223693847656
ell 111, elapsed: 0.0003910064697265625
ell 110, elapsed: 0.00038909912109375
ell 102, elapsed: 0.0007300376892089844
ell 101, elapsed: 0.00039076805114746094
ell 100, elapsed: 0.00040411949157714844
ell 99, elapsed: 0.0003941059112548828
ell 98, elapsed: 0.0004448890686035156
ell 97, elapsed: 0.0004439353942871094
ell 96, elapsed: 0.0004410743713378906
ell 95, elapsed: 0.00043702125549316406
ell 94, elapsed: 0.00043392181396484375
ell 93, elapsed: 0.00043892860412597656
ell 92, elapsed: 0.0004360675811767578
ell 91, elapsed: 0.0004401206970214844
ell 90, elapsed: 0.00043702125549316406
ell 89, elapsed: 0.00047206878662109375
ell 88, elapsed: 0.0004439353942871094
ell 87, elapsed: 0.0004470348358154297
ell 86, elapsed: 0.0004470348358154297
ell 85, elapsed: 0.00043702125549316406
ell 84, elapsed: 0.0004291534423828125
ell 83, elapsed: 0.00043010711669921875
ell 82, elapsed: 0.0004298686981201172
ell 81, elapsed: 0.00043702125549316406
ell 80, elapsed: 0.00045299530029296875
ell 79, elapsed: 0.00042700767517089844
ell 78, elapsed: 0.00043702125549316406
ell 77, elapsed: 0.0004448890686035156
ell 76, elapsed: 0.0004410743713378906
ell 75, elapsed: 0.0004429817199707031
ell 74, elapsed: 0.00044989585876464844
ell 73, elapsed: 0.0004448890686035156
ell 72, elapsed: 0.0004780292510986328
ell 71, elapsed: 0.0004429817199707031
ell 70, elapsed: 0.0004420280456542969
ell 69, elapsed: 0.0004429817199707031
ell 68, elapsed: 0.0004439353942871094
ell 67, elapsed: 0.00043511390686035156
ell 66, elapsed: 0.0004379749298095703
ell 65, elapsed: 0.0004410743713378906
ell 64, elapsed: 0.0004458427429199219
ell 63, elapsed: 0.00047397613525390625
ell 62, elapsed: 0.0004420280456542969
ell 61, elapsed: 0.0004439353942871094
ell 60, elapsed: 0.0004429817199707031
ell 59, elapsed: 0.0004429817199707031
ell 58, elapsed: 0.00043702125549316406
ell 57, elapsed: 0.0004432201385498047
ell 56, elapsed: 0.00044798851013183594
ell 55, elapsed: 0.00048089027404785156
ell 54, elapsed: 0.0004470348358154297
ell 53, elapsed: 0.00043702125549316406
ell 52, elapsed: 0.0004448890686035156
ell 51, elapsed: 0.00045013427734375
ell 50, elapsed: 0.00044989585876464844
ell 49, elapsed: 0.0004520416259765625
ell 48, elapsed: 0.0004439353942871094
ell 47, elapsed: 0.0004420280456542969
ell 46, elapsed: 0.00047898292541503906
ell 45, elapsed: 0.0004341602325439453
ell 44, elapsed: 0.00043702125549316406
ell 43, elapsed: 0.00043702125549316406
ell 42, elapsed: 0.00044083595275878906
ell 41, elapsed: 0.0004420280456542969
ell 40, elapsed: 0.00043702125549316406
ell 39, elapsed: 0.0004429817199707031
ell 38, elapsed: 0.00043892860412597656
ell 37, elapsed: 0.0004398822784423828
ell 36, elapsed: 0.0004429817199707031
ell 35, elapsed: 0.00043392181396484375
ell 34, elapsed: 0.0004379749298095703
ell 33, elapsed: 0.0004398822784423828
ell 32, elapsed: 0.0004398822784423828
ell 31, elapsed: 0.00044798851013183594
ell 30, elapsed: 0.0004448890686035156
ell 29, elapsed: 0.00048804283142089844
ell 28, elapsed: 0.0004470348358154297
ell 27, elapsed: 0.0004379749298095703
ell 26, elapsed: 0.0004429817199707031
ell 25, elapsed: 0.0004410743713378906
ell 24, elapsed: 0.00044798851013183594
ell 23, elapsed: 0.0004410743713378906
ell 22, elapsed: 0.00043892860412597656
ell 21, elapsed: 0.0004379749298095703
ell 20, elapsed: 0.0004570484161376953
ell 19, elapsed: 0.0004470348358154297
ell 18, elapsed: 0.0004398822784423828
ell 17, elapsed: 0.0004458427429199219
ell 16, elapsed: 0.00045299530029296875
ell 15, elapsed: 0.00044989585876464844
ell 14, elapsed: 0.000453948974609375
ell 13, elapsed: 0.00044608116149902344
ell 12, elapsed: 0.0005509853363037109
ell 11, elapsed: 0.00044989585876464844
ell 10, elapsed: 0.00044417381286621094
ell 9, elapsed: 0.0004448890686035156
ell 8, elapsed: 0.0004448890686035156
ell 7, elapsed: 0.0004420280456542969
ell 6, elapsed: 0.0004470348358154297
ell 5, elapsed: 0.0004382133483886719
ell 4, elapsed: 0.00046896934509277344
ell 3, elapsed: 0.0004439353942871094
ell 2, elapsed: 0.0004570484161376953
ell 1, elapsed: 0.0004420280456542969
ell 0, elapsed: 0.00044608116149902344
  2.051337 seconds (1.44 M allocations: 77.150 MiB, 1.72% gc time, 94.09% compilation time)
elapsed: 0.0005590915679931641
step:          0.391054 sec (323.015 k allocations: 17.548 MB, 0.0% gc time)
swapping:      0.000336 sec (0 allocations: 0 byte, 0.0% gc time)
calc_Mellell!: 0.139296 sec (141.71 k allocations: 7.726 MB, 0.0% gc time)
  t0 :  0.0 sec (0 allocations: 0 byte, 0.0% gc time)
  tm2 : 0.0 sec (0 allocations: 0 byte, 0.0% gc time)
  tm2s: 0.0 sec (0 allocations: 0 byte, 0.0% gc time)
  tm4 : 0.0 sec (0 allocations: 0 byte, 0.0% gc time)
  tp2 : 0.0 sec (0 allocations: 0 byte, 0.0% gc time)
  tp2s: 0.0 sec (0 allocations: 0 byte, 0.0% gc time)
  tp4 : 0.0 sec (0 allocations: 0 byte, 0.0% gc time)
calc_wtdll!:   1.052574 sec (545.711 k allocations: 29.971 MB, 3.35% gc time)
calc_wljj!:    0.001952 sec (6 allocations: 96 byte, 0.0% gc time)
mult_prefac!:  0.0 sec (0 allocations: 0 byte, 0.0% gc time)
convert:       0.0 sec (0 allocations: 0 byte, 0.0% gc time)
write:         0.002711 sec (0 allocations: 0 byte, 0.0% gc time)
test_rand_2f1: 0.0 sec (0 allocations: 0 byte, 0.0% gc time)
Closing outfile out/Ml21-cache.bin...   0.000013 seconds
  1.055010 seconds (251.45 k allocations: 14.545 MiB, 49.08% compilation time)
make_phi():   0.008457 seconds (8.18 k allocations: 237.844 KiB)
  0.330645 seconds (87.78 k allocations: 4.760 MiB, 95.32% compilation time)
tskip:       1.9e-5 sec (0 allocations: 0 byte, 0.0% gc time)
tread:       0.003245 sec (17 allocations: 2.125 KB, 0.0% gc time)
tmultphi:    0.048571 sec (21.425 k allocations: 1.287 MB, 0.0% gc time)
tbrfft:      0.003151 sec (0 allocations: 0 byte, 0.0% gc time)
tmultprefac: 0.001462 sec (0 allocations: 0 byte, 0.0% gc time)
toutfunc:    0.212703 sec (64.694 k allocations: 3.341 MB, 0.0% gc time)
Testing R=1.1 ... passed
Calculating fmax: 
  dlrec    = 4
  dlrecRg1 = -4
  q=1.1, R=1.0:	  0.001231 seconds (3.20 k allocations: 275.344 KiB)

  0.001611 seconds (3.25 k allocations: 309.984 KiB)
ℓ = 1202
Δℓ = 4
ΔℓRg1 = -4
N = 1600
q = 1.1
kmin = 1.0e-5
kmax = 100000.00000000004
χ0 = 0.023029999999999995
RR = RR.tsv
ℓmax = ℓmax.bin
f21 = f21.bin
kmin = 1.0e-5
kmax = 100000.0
dlrec    = 4
dlrecRg1 = -4
Output size: 61465536 bytes = 0.05724424123764038 GiB
Output size: 51264 bytes = 4.774332046508789e-5 GiB
Reading 'out/F21EllCache'...   0.000873 seconds (197 allocations: 84.203 KiB)
ellmax: 1202
lmaxcache: 1202
fell[:,1,1] = ComplexF64[809.6031528389767 - 1.9829558194077161e-13im, 0.0 + 0.0im]
ell 1202, elapsed: 0.00010991096496582031
ell 1201, elapsed: 0.021787166595458984
ell 1200, elapsed: 0.01960897445678711
ell 1199, elapsed: 0.0003559589385986328
ell 1198, elapsed: 0.0003669261932373047
ell 1197, elapsed: 0.00045013427734375
ell 1196, elapsed: 0.0003910064697265625
ell 1195, elapsed: 0.0003750324249267578
ell 1194, elapsed: 0.0003859996795654297
ell 1193, elapsed: 0.0003387928009033203
ell 1192, elapsed: 0.0003349781036376953
ell 1191, elapsed: 0.00036907196044921875
ell 1190, elapsed: 0.0003561973571777344
ell 1189, elapsed: 0.00037097930908203125
ell 1188, elapsed: 0.0003540515899658203
ell 1187, elapsed: 0.00037097930908203125
ell 1186, elapsed: 0.00037288665771484375
ell 1185, elapsed: 0.0004029273986816406
ell 1184, elapsed: 0.0003688335418701172
ell 1183, elapsed: 0.0003581047058105469
ell 1182, elapsed: 0.00037384033203125
ell 1181, elapsed: 0.00036907196044921875
ell 1180, elapsed: 0.00037789344787597656
ell 1179, elapsed: 0.00038886070251464844
ell 1178, elapsed: 0.00040793418884277344
ell 1177, elapsed: 0.0004010200500488281
ell 1176, elapsed: 0.0003941059112548828
ell 1175, elapsed: 0.0003719329833984375
ell 1174, elapsed: 0.00035691261291503906
ell 1173, elapsed: 0.00035500526428222656
ell 1172, elapsed: 0.0003609657287597656
ell 1171, elapsed: 0.0003609657287597656
ell 1170, elapsed: 0.00035500526428222656
ell 1169, elapsed: 0.0003490447998046875
ell 1168, elapsed: 0.00035500526428222656
ell 1167, elapsed: 0.0003688335418701172
ell 1166, elapsed: 0.00036406517028808594
ell 1165, elapsed: 0.0003609657287597656
ell 1164, elapsed: 0.0003590583801269531
ell 1163, elapsed: 0.0003650188446044922
ell 1162, elapsed: 0.0003628730773925781
ell 1161, elapsed: 0.0003559589385986328
ell 1160, elapsed: 0.0003600120544433594
ell 1159, elapsed: 0.00036978721618652344
ell 1158, elapsed: 0.00035500526428222656
ell 1157, elapsed: 0.0003509521484375
ell 1156, elapsed: 0.00039505958557128906
ell 1155, elapsed: 0.00034499168395996094
ell 1154, elapsed: 0.00036787986755371094
ell 1153, elapsed: 0.0003528594970703125
ell 1152, elapsed: 0.0003349781036376953
ell 1151, elapsed: 0.0003879070281982422
ell 1150, elapsed: 0.0003330707550048828
ell 1149, elapsed: 0.0002830028533935547
ell 1148, elapsed: 0.0002789497375488281
ell 1147, elapsed: 0.0002760887145996094
ell 1146, elapsed: 0.00027489662170410156
ell 1145, elapsed: 0.0007688999176025391
ell 1144, elapsed: 0.0002892017364501953
ell 1143, elapsed: 0.0002751350402832031
ell 1142, elapsed: 0.0002779960632324219
ell 1141, elapsed: 0.0002751350402832031
ell 1140, elapsed: 0.000286102294921875
ell 1139, elapsed: 0.00033402442932128906
ell 1138, elapsed: 0.00027298927307128906
ell 1137, elapsed: 0.00028014183044433594
ell 1136, elapsed: 0.00027298927307128906
ell 1135, elapsed: 0.00027298927307128906
ell 1134, elapsed: 0.00027680397033691406
ell 1133, elapsed: 0.0002779960632324219
ell 1132, elapsed: 0.0002770423889160156
ell 1131, elapsed: 0.00027298927307128906
ell 1130, elapsed: 0.00027489662170410156
ell 1129, elapsed: 0.0002830028533935547
ell 1128, elapsed: 0.0002739429473876953
ell 1127, elapsed: 0.0002779960632324219
ell 1126, elapsed: 0.0002751350402832031
ell 1125, elapsed: 0.0002880096435546875
ell 1124, elapsed: 0.0002779960632324219
ell 1123, elapsed: 0.00027489662170410156
ell 1122, elapsed: 0.0002799034118652344
ell 1121, elapsed: 0.0002770423889160156
ell 1120, elapsed: 0.0002760887145996094
ell 1119, elapsed: 0.0002810955047607422
ell 1118, elapsed: 0.0002758502960205078
ell 1117, elapsed: 0.0002789497375488281
ell 1116, elapsed: 0.0002830028533935547
ell 1115, elapsed: 0.00028204917907714844
ell 1114, elapsed: 0.0002789497375488281
ell 1113, elapsed: 0.0002779960632324219
ell 1112, elapsed: 0.00034117698669433594
ell 1111, elapsed: 0.0002999305725097656
ell 1110, elapsed: 0.00030493736267089844
ell 1109, elapsed: 0.0003020763397216797
ell 1108, elapsed: 0.00028896331787109375
ell 1107, elapsed: 0.0003058910369873047
ell 1106, elapsed: 0.0002989768981933594
ell 1105, elapsed: 0.00029397010803222656
ell 1104, elapsed: 0.00029397010803222656
ell 1103, elapsed: 0.0003077983856201172
ell 1102, elapsed: 0.0003108978271484375
ell 1101, elapsed: 0.0003120899200439453
ell 1100, elapsed: 0.0003070831298828125
ell 1099, elapsed: 0.0003159046173095703
ell 1098, elapsed: 0.00029277801513671875
ell 1097, elapsed: 0.0003039836883544922
ell 1096, elapsed: 0.0002989768981933594
ell 1095, elapsed: 0.0003058910369873047
ell 1094, elapsed: 0.00030303001403808594
ell 1093, elapsed: 0.00030303001403808594
ell 1092, elapsed: 0.00030803680419921875
ell 1091, elapsed: 0.0002989768981933594
ell 1090, elapsed: 0.00030517578125
ell 1089, elapsed: 0.0002980232238769531
ell 1088, elapsed: 0.0003039836883544922
ell 1087, elapsed: 0.00032782554626464844
ell 1086, elapsed: 0.0002849102020263672
ell 1085, elapsed: 0.0002849102020263672
ell 1084, elapsed: 0.0002830028533935547
ell 1083, elapsed: 0.0002799034118652344
ell 1082, elapsed: 0.000286102294921875
ell 1081, elapsed: 0.00028204917907714844
ell 1080, elapsed: 0.0002799034118652344
ell 1079, elapsed: 0.00028204917907714844
ell 1078, elapsed: 0.0002739429473876953
ell 1077, elapsed: 0.00028204917907714844
ell 1076, elapsed: 0.00027489662170410156
ell 1075, elapsed: 0.0002799034118652344
ell 1074, elapsed: 0.0003180503845214844
ell 1073, elapsed: 0.0002808570861816406
ell 1072, elapsed: 0.00028204917907714844
ell 1071, elapsed: 0.0002799034118652344
ell 1070, elapsed: 0.0002841949462890625
ell 1069, elapsed: 0.0002751350402832031
ell 1068, elapsed: 0.0002791881561279297
ell 1067, elapsed: 0.00028395652770996094
ell 1066, elapsed: 0.00028204917907714844
ell 1065, elapsed: 0.0003101825714111328
ell 1064, elapsed: 0.00031304359436035156
ell 1063, elapsed: 0.0003039836883544922
ell 1062, elapsed: 0.00030112266540527344
ell 1061, elapsed: 0.0003211498260498047
ell 1060, elapsed: 0.00031185150146484375
ell 1059, elapsed: 0.0003070831298828125
ell 1058, elapsed: 0.00031280517578125
ell 1057, elapsed: 0.00030517578125
ell 1056, elapsed: 0.0003020763397216797
ell 1055, elapsed: 0.00031280517578125
ell 1054, elapsed: 0.00030684471130371094
ell 1053, elapsed: 0.0003077983856201172
ell 1052, elapsed: 0.0019369125366210938
ell 1051, elapsed: 0.00029397010803222656
ell 1050, elapsed: 0.0007770061492919922
ell 1049, elapsed: 0.00036787986755371094
ell 1048, elapsed: 0.00029206275939941406
ell 1047, elapsed: 0.0002789497375488281
ell 1046, elapsed: 0.00028014183044433594
ell 1045, elapsed: 0.00028204917907714844
ell 1044, elapsed: 0.0003108978271484375
ell 1043, elapsed: 0.00031185150146484375
ell 1042, elapsed: 0.00032401084899902344
ell 1041, elapsed: 0.0003070831298828125
ell 1040, elapsed: 0.00031495094299316406
ell 1039, elapsed: 0.00030517578125
ell 1038, elapsed: 0.00030493736267089844
ell 1037, elapsed: 0.0002930164337158203
ell 1036, elapsed: 0.0002999305725097656
ell 1035, elapsed: 0.0003070831298828125
ell 1034, elapsed: 0.00031280517578125
ell 1033, elapsed: 0.00030803680419921875
ell 1032, elapsed: 0.00030612945556640625
ell 1031, elapsed: 0.0003039836883544922
ell 1030, elapsed: 0.0003230571746826172
ell 1029, elapsed: 0.00028204917907714844
ell 1028, elapsed: 0.0005040168762207031
ell 1027, elapsed: 0.0002880096435546875
ell 1026, elapsed: 0.0002789497375488281
ell 1025, elapsed: 0.00029087066650390625
ell 1024, elapsed: 0.00028204917907714844
ell 1023, elapsed: 0.0002830028533935547
ell 1022, elapsed: 0.0002808570861816406
ell 1021, elapsed: 0.0002818107604980469
ell 1020, elapsed: 0.00028705596923828125
ell 1019, elapsed: 0.0002810955047607422
ell 1018, elapsed: 0.0003650188446044922
ell 1017, elapsed: 0.0003018379211425781
ell 1016, elapsed: 0.00030303001403808594
ell 1015, elapsed: 0.0003018379211425781
ell 1014, elapsed: 0.0002949237823486328
ell 1013, elapsed: 0.00029778480529785156
ell 1012, elapsed: 0.0003020763397216797
ell 1011, elapsed: 0.0002970695495605469
ell 1010, elapsed: 0.0003070831298828125
ell 1009, elapsed: 0.0002930164337158203
ell 1008, elapsed: 0.0003039836883544922
ell 1007, elapsed: 0.00030303001403808594
ell 1006, elapsed: 0.000308990478515625
ell 1005, elapsed: 0.0003352165222167969
ell 1004, elapsed: 0.00028014183044433594
ell 1003, elapsed: 0.0002808570861816406
ell 1002, elapsed: 0.0002758502960205078
ell 1001, elapsed: 0.0002789497375488281
ell 1000, elapsed: 0.0002799034118652344
ell 999, elapsed: 0.00027489662170410156
ell 998, elapsed: 0.00028586387634277344
ell 997, elapsed: 0.0002779960632324219
ell 996, elapsed: 0.00028705596923828125
ell 995, elapsed: 0.0002760887145996094
ell 994, elapsed: 0.0002770423889160156
ell 993, elapsed: 0.0002789497375488281
ell 992, elapsed: 0.004359006881713867
ell 991, elapsed: 0.00030612945556640625
ell 990, elapsed: 0.0002999305725097656
ell 989, elapsed: 0.0003018379211425781
ell 988, elapsed: 0.0003190040588378906
ell 987, elapsed: 0.0003008842468261719
ell 986, elapsed: 0.00030803680419921875
ell 985, elapsed: 0.0002980232238769531
ell 984, elapsed: 0.0002989768981933594
ell 983, elapsed: 0.0003039836883544922
ell 982, elapsed: 0.00029587745666503906
ell 981, elapsed: 0.0003020763397216797
ell 980, elapsed: 0.00032401084899902344
ell 979, elapsed: 0.00028204917907714844
ell 978, elapsed: 0.0002799034118652344
ell 977, elapsed: 0.00027298927307128906
ell 976, elapsed: 0.000270843505859375
ell 975, elapsed: 0.0002899169921875
ell 974, elapsed: 0.0002760887145996094
ell 973, elapsed: 0.0002789497375488281
ell 972, elapsed: 0.00027179718017578125
ell 971, elapsed: 0.0002770423889160156
ell 970, elapsed: 0.0002720355987548828
ell 969, elapsed: 0.00027108192443847656
ell 968, elapsed: 0.00027298927307128906
ell 967, elapsed: 0.0003020763397216797
ell 966, elapsed: 0.0003190040588378906
ell 965, elapsed: 0.0002980232238769531
ell 964, elapsed: 0.00029921531677246094
ell 963, elapsed: 0.0002980232238769531
ell 962, elapsed: 0.0002970695495605469
ell 961, elapsed: 0.00030303001403808594
ell 960, elapsed: 0.0002970695495605469
ell 959, elapsed: 0.00029206275939941406
ell 958, elapsed: 0.0002930164337158203
ell 957, elapsed: 0.0003001689910888672
ell 956, elapsed: 0.0003018379211425781
ell 955, elapsed: 0.00029206275939941406
ell 954, elapsed: 0.0003070831298828125
ell 953, elapsed: 0.0003352165222167969
ell 952, elapsed: 0.00030612945556640625
ell 951, elapsed: 0.00030303001403808594
ell 950, elapsed: 0.00030803680419921875
ell 949, elapsed: 0.00030493736267089844
ell 948, elapsed: 0.00030684471130371094
ell 947, elapsed: 0.0003018379211425781
ell 946, elapsed: 0.00031304359436035156
ell 945, elapsed: 0.00030303001403808594
ell 944, elapsed: 0.00030612945556640625
ell 943, elapsed: 0.0003039836883544922
ell 942, elapsed: 0.0003001689910888672
ell 941, elapsed: 0.0003521442413330078
ell 940, elapsed: 0.0002830028533935547
ell 939, elapsed: 0.0002789497375488281
ell 938, elapsed: 0.0002720355987548828
ell 937, elapsed: 0.0002799034118652344
ell 936, elapsed: 0.0002789497375488281
ell 935, elapsed: 0.0002751350402832031
ell 934, elapsed: 0.0002810955047607422
ell 933, elapsed: 0.00027489662170410156
ell 932, elapsed: 0.0002770423889160156
ell 931, elapsed: 0.0002779960632324219
ell 930, elapsed: 0.0002758502960205078
ell 929, elapsed: 0.0002770423889160156
ell 928, elapsed: 0.0002989768981933594
ell 927, elapsed: 0.0002779960632324219
ell 926, elapsed: 0.00028896331787109375
ell 925, elapsed: 0.0002779960632324219
ell 924, elapsed: 0.00027489662170410156
ell 923, elapsed: 0.00027179718017578125
ell 922, elapsed: 0.00027489662170410156
ell 921, elapsed: 0.0002779960632324219
ell 920, elapsed: 0.0002701282501220703
ell 919, elapsed: 0.00028204917907714844
ell 918, elapsed: 0.0002830028533935547
ell 917, elapsed: 0.0002779960632324219
ell 916, elapsed: 0.0002791881561279297
ell 915, elapsed: 0.0002810955047607422
ell 914, elapsed: 0.00029206275939941406
ell 913, elapsed: 0.00027298927307128906
ell 912, elapsed: 0.0002760887145996094
ell 911, elapsed: 0.00028014183044433594
ell 910, elapsed: 0.00027298927307128906
ell 909, elapsed: 0.0002789497375488281
ell 908, elapsed: 0.0002720355987548828
ell 907, elapsed: 0.0002751350402832031
ell 906, elapsed: 0.0002789497375488281
ell 905, elapsed: 0.00027489662170410156
ell 904, elapsed: 0.00027489662170410156
ell 903, elapsed: 0.0002758502960205078
ell 902, elapsed: 0.00027298927307128906
ell 901, elapsed: 0.00028514862060546875
ell 900, elapsed: 0.0003268718719482422
ell 899, elapsed: 0.000286102294921875
ell 898, elapsed: 0.00028014183044433594
ell 897, elapsed: 0.0002770423889160156
ell 896, elapsed: 0.0002880096435546875
ell 895, elapsed: 0.0002760887145996094
ell 894, elapsed: 0.0002810955047607422
ell 893, elapsed: 0.0002770423889160156
ell 892, elapsed: 0.0002808570861816406
ell 891, elapsed: 0.0002760887145996094
ell 890, elapsed: 0.0002779960632324219
ell 889, elapsed: 0.0002830028533935547
ell 888, elapsed: 0.0002760887145996094
ell 887, elapsed: 0.0003190040588378906
ell 886, elapsed: 0.0003170967102050781
ell 885, elapsed: 0.0003020763397216797
ell 884, elapsed: 0.000308990478515625
ell 883, elapsed: 0.00030303001403808594
ell 882, elapsed: 0.0003001689910888672
ell 881, elapsed: 0.0002968311309814453
ell 880, elapsed: 0.0003027915954589844
ell 879, elapsed: 0.00030517578125
ell 878, elapsed: 0.00030493736267089844
ell 877, elapsed: 0.0002961158752441406
ell 876, elapsed: 0.0002999305725097656
ell 875, elapsed: 0.0002949237823486328
ell 874, elapsed: 0.0003409385681152344
ell 873, elapsed: 0.00027108192443847656
ell 872, elapsed: 0.0002799034118652344
ell 871, elapsed: 0.00027298927307128906
ell 870, elapsed: 0.00027298927307128906
ell 869, elapsed: 0.0002751350402832031
ell 868, elapsed: 0.00028204917907714844
ell 867, elapsed: 0.0002791881561279297
ell 866, elapsed: 0.0002720355987548828
ell 865, elapsed: 0.00027680397033691406
ell 864, elapsed: 0.00027489662170410156
ell 863, elapsed: 0.00027489662170410156
ell 862, elapsed: 0.0002751350402832031
ell 861, elapsed: 0.0003559589385986328
ell 860, elapsed: 0.00027680397033691406
ell 859, elapsed: 0.0002799034118652344
ell 858, elapsed: 0.0002739429473876953
ell 857, elapsed: 0.0002970695495605469
ell 856, elapsed: 0.0002911090850830078
ell 855, elapsed: 0.0002930164337158203
ell 854, elapsed: 0.0002961158752441406
ell 853, elapsed: 0.0002918243408203125
ell 852, elapsed: 0.00030493736267089844
ell 851, elapsed: 0.00029397010803222656
ell 850, elapsed: 0.0002930164337158203
ell 849, elapsed: 0.0003008842468261719
ell 848, elapsed: 0.0003619194030761719
ell 847, elapsed: 0.0003120899200439453
ell 846, elapsed: 0.00030303001403808594
ell 845, elapsed: 0.0002930164337158203
ell 844, elapsed: 0.0002970695495605469
ell 843, elapsed: 0.0002949237823486328
ell 842, elapsed: 0.00031304359436035156
ell 841, elapsed: 0.00029397010803222656
ell 840, elapsed: 0.00029397010803222656
ell 839, elapsed: 0.0003039836883544922
ell 838, elapsed: 0.00029397010803222656
ell 837, elapsed: 0.0003039836883544922
ell 836, elapsed: 0.0002980232238769531
ell 835, elapsed: 0.00031304359436035156
ell 834, elapsed: 0.0002970695495605469
ell 833, elapsed: 0.0003139972686767578
ell 832, elapsed: 0.00030517578125
ell 831, elapsed: 0.0003039836883544922
ell 830, elapsed: 0.0002880096435546875
ell 829, elapsed: 0.0002779960632324219
ell 828, elapsed: 0.0002770423889160156
ell 827, elapsed: 0.00029087066650390625
ell 826, elapsed: 0.0002799034118652344
ell 825, elapsed: 0.0002810955047607422
ell 824, elapsed: 0.00028014183044433594
ell 823, elapsed: 0.0002980232238769531
ell 822, elapsed: 0.0002799034118652344
ell 821, elapsed: 0.00027489662170410156
ell 820, elapsed: 0.0002810955047607422
ell 819, elapsed: 0.0002779960632324219
ell 818, elapsed: 0.00028014183044433594
ell 817, elapsed: 0.0002810955047607422
ell 816, elapsed: 0.0002720355987548828
ell 815, elapsed: 0.0002779960632324219
ell 814, elapsed: 0.00027489662170410156
ell 813, elapsed: 0.00027298927307128906
ell 812, elapsed: 0.00027489662170410156
ell 811, elapsed: 0.00027298927307128906
ell 810, elapsed: 0.0002830028533935547
ell 809, elapsed: 0.00034618377685546875
ell 808, elapsed: 0.00031185150146484375
ell 807, elapsed: 0.000308990478515625
ell 806, elapsed: 0.00029206275939941406
ell 805, elapsed: 0.00029087066650390625
ell 804, elapsed: 0.0002880096435546875
ell 803, elapsed: 0.0002980232238769531
ell 802, elapsed: 0.0002830028533935547
ell 801, elapsed: 0.0002930164337158203
ell 800, elapsed: 0.00030303001403808594
ell 799, elapsed: 0.00029397010803222656
ell 798, elapsed: 0.0002989768981933594
ell 797, elapsed: 0.00039505958557128906
ell 796, elapsed: 0.00028014183044433594
ell 795, elapsed: 0.0002770423889160156
ell 794, elapsed: 0.0002751350402832031
ell 793, elapsed: 0.0002751350402832031
ell 792, elapsed: 0.00026988983154296875
ell 791, elapsed: 0.00027108192443847656
ell 790, elapsed: 0.0002799034118652344
ell 789, elapsed: 0.000270843505859375
ell 788, elapsed: 0.0002779960632324219
ell 787, elapsed: 0.0002720355987548828
ell 786, elapsed: 0.0002751350402832031
ell 785, elapsed: 0.0002779960632324219
ell 784, elapsed: 0.000270843505859375
ell 783, elapsed: 0.0004038810729980469
ell 782, elapsed: 0.00029397010803222656
ell 781, elapsed: 0.00029397010803222656
ell 780, elapsed: 0.0002970695495605469
ell 779, elapsed: 0.00028896331787109375
ell 778, elapsed: 0.0003001689910888672
ell 777, elapsed: 0.0003018379211425781
ell 776, elapsed: 0.0002980232238769531
ell 775, elapsed: 0.00030112266540527344
ell 774, elapsed: 0.0002999305725097656
ell 773, elapsed: 0.0003058910369873047
ell 772, elapsed: 0.00030517578125
ell 771, elapsed: 0.0004239082336425781
ell 770, elapsed: 0.0002980232238769531
ell 769, elapsed: 0.0002970695495605469
ell 768, elapsed: 0.00030612945556640625
ell 767, elapsed: 0.0002961158752441406
ell 766, elapsed: 0.0003039836883544922
ell 765, elapsed: 0.0002949237823486328
ell 764, elapsed: 0.0002999305725097656
ell 763, elapsed: 0.00030493736267089844
ell 762, elapsed: 0.00030303001403808594
ell 761, elapsed: 0.00031113624572753906
ell 760, elapsed: 0.00030612945556640625
ell 759, elapsed: 0.000408172607421875
ell 758, elapsed: 0.00030994415283203125
ell 757, elapsed: 0.0002918243408203125
ell 756, elapsed: 0.0002999305725097656
ell 755, elapsed: 0.0002930164337158203
ell 754, elapsed: 0.00029397010803222656
ell 753, elapsed: 0.0003020763397216797
ell 752, elapsed: 0.0002980232238769531
ell 751, elapsed: 0.0003161430358886719
ell 750, elapsed: 0.00029587745666503906
ell 749, elapsed: 0.0003039836883544922
ell 748, elapsed: 0.0002999305725097656
ell 747, elapsed: 0.00030803680419921875
ell 746, elapsed: 0.00031495094299316406
ell 745, elapsed: 0.0002999305725097656
ell 744, elapsed: 0.0003170967102050781
ell 743, elapsed: 0.0002989768981933594
ell 742, elapsed: 0.0002989768981933594
ell 741, elapsed: 0.00030517578125
ell 740, elapsed: 0.00030517578125
ell 739, elapsed: 0.00030803680419921875
ell 738, elapsed: 0.0003070831298828125
ell 737, elapsed: 0.0002970695495605469
ell 736, elapsed: 0.00032210350036621094
ell 735, elapsed: 0.0003941059112548828
ell 734, elapsed: 0.0003120899200439453
ell 733, elapsed: 0.0002989768981933594
ell 732, elapsed: 0.0003020763397216797
ell 731, elapsed: 0.0003039836883544922
ell 730, elapsed: 0.0003058910369873047
ell 729, elapsed: 0.00030994415283203125
ell 728, elapsed: 0.0002951622009277344
ell 727, elapsed: 0.00029087066650390625
ell 726, elapsed: 0.00029397010803222656
ell 725, elapsed: 0.0002899169921875
ell 724, elapsed: 0.0002970695495605469
ell 723, elapsed: 0.0002930164337158203
ell 722, elapsed: 0.0004000663757324219
ell 721, elapsed: 0.0002930164337158203
ell 720, elapsed: 0.00028705596923828125
ell 719, elapsed: 0.00028514862060546875
ell 718, elapsed: 0.0002791881561279297
ell 717, elapsed: 0.0002830028533935547
ell 716, elapsed: 0.00028514862060546875
ell 715, elapsed: 0.0002808570861816406
ell 714, elapsed: 0.0002849102020263672
ell 713, elapsed: 0.0002880096435546875
ell 712, elapsed: 0.0002970695495605469
ell 711, elapsed: 0.0002841949462890625
ell 710, elapsed: 0.0002791881561279297
ell 709, elapsed: 0.00036406517028808594
ell 708, elapsed: 0.0002830028533935547
ell 707, elapsed: 0.00030303001403808594
ell 706, elapsed: 0.000286102294921875
ell 705, elapsed: 0.0002880096435546875
ell 704, elapsed: 0.00030112266540527344
ell 703, elapsed: 0.00029087066650390625
ell 702, elapsed: 0.0002930164337158203
ell 701, elapsed: 0.00029015541076660156
ell 700, elapsed: 0.0002949237823486328
ell 699, elapsed: 0.0002970695495605469
ell 698, elapsed: 0.0002951622009277344
ell 697, elapsed: 0.0003859996795654297
ell 696, elapsed: 0.0002918243408203125
ell 695, elapsed: 0.00028705596923828125
ell 694, elapsed: 0.0003008842468261719
ell 693, elapsed: 0.00028896331787109375
ell 692, elapsed: 0.00029397010803222656
ell 691, elapsed: 0.00028705596923828125
ell 690, elapsed: 0.0003018379211425781
ell 689, elapsed: 0.00030422210693359375
ell 688, elapsed: 0.0003039836883544922
ell 687, elapsed: 0.0002999305725097656
ell 686, elapsed: 0.0002930164337158203
ell 685, elapsed: 0.0002951622009277344
ell 684, elapsed: 0.00039005279541015625
ell 683, elapsed: 0.0003008842468261719
ell 682, elapsed: 0.0003018379211425781
ell 681, elapsed: 0.0002961158752441406
ell 680, elapsed: 0.00030803680419921875
ell 679, elapsed: 0.0002918243408203125
ell 678, elapsed: 0.0002989768981933594
ell 677, elapsed: 0.0002999305725097656
ell 676, elapsed: 0.0002999305725097656
ell 675, elapsed: 0.0003020763397216797
ell 674, elapsed: 0.0002951622009277344
ell 673, elapsed: 0.0002930164337158203
ell 672, elapsed: 0.0003769397735595703
ell 671, elapsed: 0.00030493736267089844
ell 670, elapsed: 0.00030994415283203125
ell 669, elapsed: 0.0003120899200439453
ell 668, elapsed: 0.0002949237823486328
ell 667, elapsed: 0.0003190040588378906
ell 666, elapsed: 0.00031495094299316406
ell 665, elapsed: 0.0003120899200439453
ell 664, elapsed: 0.000308990478515625
ell 663, elapsed: 0.000308990478515625
ell 662, elapsed: 0.00030994415283203125
ell 661, elapsed: 0.0003070831298828125
ell 660, elapsed: 0.0003368854522705078
ell 659, elapsed: 0.0003190040588378906
ell 658, elapsed: 0.0003139972686767578
ell 657, elapsed: 0.00030994415283203125
ell 656, elapsed: 0.0003159046173095703
ell 655, elapsed: 0.00031185150146484375
ell 654, elapsed: 0.000308990478515625
ell 653, elapsed: 0.00031685829162597656
ell 652, elapsed: 0.0003199577331542969
ell 651, elapsed: 0.0003190040588378906
ell 650, elapsed: 0.0003120899200439453
ell 649, elapsed: 0.0003139972686767578
ell 648, elapsed: 0.0003058910369873047
ell 647, elapsed: 0.00030684471130371094
ell 646, elapsed: 0.00030994415283203125
ell 645, elapsed: 0.00031304359436035156
ell 644, elapsed: 0.00031304359436035156
ell 643, elapsed: 0.0003170967102050781
ell 642, elapsed: 0.0003139972686767578
ell 641, elapsed: 0.0003209114074707031
ell 640, elapsed: 0.0003139972686767578
ell 639, elapsed: 0.00031304359436035156
ell 638, elapsed: 0.00031685829162597656
ell 637, elapsed: 0.0003459453582763672
ell 636, elapsed: 0.0003209114074707031
ell 635, elapsed: 0.0003180503845214844
ell 634, elapsed: 0.00032210350036621094
ell 633, elapsed: 0.0003161430358886719
ell 632, elapsed: 0.00031304359436035156
ell 631, elapsed: 0.00031685829162597656
ell 630, elapsed: 0.0003161430358886719
ell 629, elapsed: 0.00031685829162597656
ell 628, elapsed: 0.000308990478515625
ell 627, elapsed: 0.0003120899200439453
ell 626, elapsed: 0.0003209114074707031
ell 625, elapsed: 0.0003268718719482422
ell 624, elapsed: 0.0003190040588378906
ell 623, elapsed: 0.0003120899200439453
ell 622, elapsed: 0.0003139972686767578
ell 621, elapsed: 0.0003161430358886719
ell 620, elapsed: 0.0003151893615722656
ell 619, elapsed: 0.0003161430358886719
ell 618, elapsed: 0.0003108978271484375
ell 617, elapsed: 0.00031685829162597656
ell 616, elapsed: 0.00031876564025878906
ell 615, elapsed: 0.0003120899200439453
ell 614, elapsed: 0.0003459453582763672
ell 613, elapsed: 0.0003190040588378906
ell 612, elapsed: 0.0003190040588378906
ell 611, elapsed: 0.0003209114074707031
ell 610, elapsed: 0.0003139972686767578
ell 609, elapsed: 0.0003178119659423828
ell 608, elapsed: 0.00031113624572753906
ell 607, elapsed: 0.0003190040588378906
ell 606, elapsed: 0.00031495094299316406
ell 605, elapsed: 0.00031495094299316406
ell 604, elapsed: 0.00032019615173339844
ell 603, elapsed: 0.00032019615173339844
ell 602, elapsed: 0.00034999847412109375
ell 601, elapsed: 0.0003178119659423828
ell 600, elapsed: 0.0003161430358886719
ell 599, elapsed: 0.0003190040588378906
ell 598, elapsed: 0.0003101825714111328
ell 597, elapsed: 0.0003190040588378906
ell 596, elapsed: 0.0003120899200439453
ell 595, elapsed: 0.0003120899200439453
ell 594, elapsed: 0.0003209114074707031
ell 593, elapsed: 0.0003139972686767578
ell 592, elapsed: 0.00032401084899902344
ell 591, elapsed: 0.00032901763916015625
ell 590, elapsed: 0.0002949237823486328
ell 589, elapsed: 0.0003020763397216797
ell 588, elapsed: 0.0002911090850830078
ell 587, elapsed: 0.0003070831298828125
ell 586, elapsed: 0.0002999305725097656
ell 585, elapsed: 0.0002930164337158203
ell 584, elapsed: 0.0003020763397216797
ell 583, elapsed: 0.0002961158752441406
ell 582, elapsed: 0.0003020763397216797
ell 581, elapsed: 0.0003018379211425781
ell 580, elapsed: 0.00030493736267089844
ell 579, elapsed: 0.0003058910369873047
ell 578, elapsed: 0.00034117698669433594
ell 577, elapsed: 0.0003008842468261719
ell 576, elapsed: 0.00030612945556640625
ell 575, elapsed: 0.00030112266540527344
ell 574, elapsed: 0.00030303001403808594
ell 573, elapsed: 0.0003020763397216797
ell 572, elapsed: 0.00030303001403808594
ell 571, elapsed: 0.0002949237823486328
ell 570, elapsed: 0.00030684471130371094
ell 569, elapsed: 0.0002968311309814453
ell 568, elapsed: 0.0002961158752441406
ell 567, elapsed: 0.0002980232238769531
ell 566, elapsed: 0.0003108978271484375
ell 565, elapsed: 0.00031304359436035156
ell 564, elapsed: 0.0003190040588378906
ell 563, elapsed: 0.0003159046173095703
ell 562, elapsed: 0.0003209114074707031
ell 561, elapsed: 0.00031495094299316406
ell 560, elapsed: 0.0003209114074707031
ell 559, elapsed: 0.00031185150146484375
ell 558, elapsed: 0.00030994415283203125
ell 557, elapsed: 0.0003180503845214844
ell 556, elapsed: 0.00031280517578125
ell 555, elapsed: 0.0003170967102050781
ell 554, elapsed: 0.0003178119659423828
ell 553, elapsed: 0.0003161430358886719
ell 552, elapsed: 0.00033020973205566406
ell 551, elapsed: 0.00031685829162597656
ell 550, elapsed: 0.00032401084899902344
ell 549, elapsed: 0.0003190040588378906
ell 548, elapsed: 0.0003190040588378906
ell 547, elapsed: 0.0003211498260498047
ell 546, elapsed: 0.0003170967102050781
ell 545, elapsed: 0.0003228187561035156
ell 544, elapsed: 0.0003170967102050781
ell 543, elapsed: 0.00035119056701660156
ell 542, elapsed: 0.0003180503845214844
ell 541, elapsed: 0.0003190040588378906
ell 540, elapsed: 0.0003230571746826172
ell 539, elapsed: 0.0003178119659423828
ell 538, elapsed: 0.00032210350036621094
ell 537, elapsed: 0.00031685829162597656
ell 536, elapsed: 0.0003180503845214844
ell 535, elapsed: 0.0003228187561035156
ell 534, elapsed: 0.0003161430358886719
ell 533, elapsed: 0.0003209114074707031
ell 532, elapsed: 0.0003268718719482422
ell 531, elapsed: 0.0003218650817871094
ell 530, elapsed: 0.0003180503845214844
ell 529, elapsed: 0.0003151893615722656
ell 528, elapsed: 0.00032401084899902344
ell 527, elapsed: 0.0003180503845214844
ell 526, elapsed: 0.00030994415283203125
ell 525, elapsed: 0.0003008842468261719
ell 524, elapsed: 0.0002911090850830078
ell 523, elapsed: 0.0002968311309814453
ell 522, elapsed: 0.00029015541076660156
ell 521, elapsed: 0.0002949237823486328
ell 520, elapsed: 0.0003490447998046875
ell 519, elapsed: 0.0003039836883544922
ell 518, elapsed: 0.0003020763397216797
ell 517, elapsed: 0.0002970695495605469
ell 516, elapsed: 0.0003008842468261719
ell 515, elapsed: 0.00029397010803222656
ell 514, elapsed: 0.0002999305725097656
ell 513, elapsed: 0.0003027915954589844
ell 512, elapsed: 0.0002930164337158203
ell 511, elapsed: 0.00029587745666503906
ell 510, elapsed: 0.0003001689910888672
ell 509, elapsed: 0.00028896331787109375
ell 508, elapsed: 0.00030112266540527344
ell 507, elapsed: 0.004410982131958008
ell 506, elapsed: 0.00030803680419921875
ell 505, elapsed: 0.00028896331787109375
ell 504, elapsed: 0.00028586387634277344
ell 503, elapsed: 0.00029397010803222656
ell 502, elapsed: 0.0002970695495605469
ell 501, elapsed: 0.00028896331787109375
ell 500, elapsed: 0.00028395652770996094
ell 499, elapsed: 0.00029397010803222656
ell 498, elapsed: 0.0002951622009277344
ell 497, elapsed: 0.0002930164337158203
ell 496, elapsed: 0.0002999305725097656
ell 495, elapsed: 0.004361152648925781
ell 494, elapsed: 0.0002989768981933594
ell 493, elapsed: 0.0002980232238769531
ell 492, elapsed: 0.00030493736267089844
ell 491, elapsed: 0.0002970695495605469
ell 490, elapsed: 0.0002999305725097656
ell 489, elapsed: 0.0002949237823486328
ell 488, elapsed: 0.00030994415283203125
ell 487, elapsed: 0.0002999305725097656
ell 486, elapsed: 0.000308990478515625
ell 485, elapsed: 0.0002942085266113281
ell 484, elapsed: 0.0003058910369873047
ell 483, elapsed: 0.0003018379211425781
ell 482, elapsed: 0.00039386749267578125
ell 481, elapsed: 0.0002970695495605469
ell 480, elapsed: 0.00029015541076660156
ell 479, elapsed: 0.0002951622009277344
ell 478, elapsed: 0.00028896331787109375
ell 477, elapsed: 0.0002949237823486328
ell 476, elapsed: 0.0002949237823486328
ell 475, elapsed: 0.00029397010803222656
ell 474, elapsed: 0.0002968311309814453
ell 473, elapsed: 0.00029206275939941406
ell 472, elapsed: 0.0002899169921875
ell 471, elapsed: 0.00030803680419921875
ell 470, elapsed: 0.0003650188446044922
ell 469, elapsed: 0.000308990478515625
ell 468, elapsed: 0.0002899169921875
ell 467, elapsed: 0.00029587745666503906
ell 466, elapsed: 0.0003039836883544922
ell 465, elapsed: 0.00029587745666503906
ell 464, elapsed: 0.0002999305725097656
ell 463, elapsed: 0.0002949237823486328
ell 462, elapsed: 0.00029397010803222656
ell 461, elapsed: 0.0003120899200439453
ell 460, elapsed: 0.0002961158752441406
ell 459, elapsed: 0.0003039836883544922
ell 458, elapsed: 0.0003070831298828125
ell 457, elapsed: 0.00030803680419921875
ell 456, elapsed: 0.0002951622009277344
ell 455, elapsed: 0.00029206275939941406
ell 454, elapsed: 0.0002980232238769531
ell 453, elapsed: 0.00029206275939941406
ell 452, elapsed: 0.0003018379211425781
ell 451, elapsed: 0.00029206275939941406
ell 450, elapsed: 0.00029397010803222656
ell 449, elapsed: 0.0003209114074707031
ell 448, elapsed: 0.0002970695495605469
ell 447, elapsed: 0.0002999305725097656
ell 446, elapsed: 0.0002980232238769531
ell 445, elapsed: 0.0044209957122802734
ell 444, elapsed: 0.0003070831298828125
ell 443, elapsed: 0.0002989768981933594
ell 442, elapsed: 0.0003020763397216797
ell 441, elapsed: 0.0002949237823486328
ell 440, elapsed: 0.0002949237823486328
ell 439, elapsed: 0.00031113624572753906
ell 438, elapsed: 0.0002949237823486328
ell 437, elapsed: 0.0002999305725097656
ell 436, elapsed: 0.0003020763397216797
ell 435, elapsed: 0.00029921531677246094
ell 434, elapsed: 0.00030112266540527344
ell 433, elapsed: 0.0004229545593261719
ell 432, elapsed: 0.0002989768981933594
ell 431, elapsed: 0.0002949237823486328
ell 430, elapsed: 0.00029206275939941406
ell 429, elapsed: 0.00031304359436035156
ell 428, elapsed: 0.0002970695495605469
ell 427, elapsed: 0.0002999305725097656
ell 426, elapsed: 0.0003018379211425781
ell 425, elapsed: 0.0002989768981933594
ell 424, elapsed: 0.0002930164337158203
ell 423, elapsed: 0.0002980232238769531
ell 422, elapsed: 0.0003039836883544922
ell 421, elapsed: 0.0003998279571533203
ell 420, elapsed: 0.0003120899200439453
ell 419, elapsed: 0.00030112266540527344
ell 418, elapsed: 0.0002989768981933594
ell 417, elapsed: 0.00030517578125
ell 416, elapsed: 0.00029587745666503906
ell 415, elapsed: 0.0003039836883544922
ell 414, elapsed: 0.0002930164337158203
ell 413, elapsed: 0.0002951622009277344
ell 412, elapsed: 0.0002999305725097656
ell 411, elapsed: 0.0002949237823486328
ell 410, elapsed: 0.00030303001403808594
ell 409, elapsed: 0.0002980232238769531
ell 408, elapsed: 0.00031113624572753906
ell 407, elapsed: 0.0002980232238769531
ell 406, elapsed: 0.00029277801513671875
ell 405, elapsed: 0.0002980232238769531
ell 404, elapsed: 0.0002951622009277344
ell 403, elapsed: 0.00029206275939941406
ell 402, elapsed: 0.0002970695495605469
ell 401, elapsed: 0.0002930164337158203
ell 400, elapsed: 0.0002980232238769531
ell 399, elapsed: 0.0002899169921875
ell 398, elapsed: 0.0002880096435546875
ell 397, elapsed: 0.0002989768981933594
ell 396, elapsed: 0.00038886070251464844
ell 395, elapsed: 0.00030112266540527344
ell 394, elapsed: 0.000308990478515625
ell 393, elapsed: 0.00030612945556640625
ell 392, elapsed: 0.00028896331787109375
ell 391, elapsed: 0.0002961158752441406
ell 390, elapsed: 0.0003199577331542969
ell 389, elapsed: 0.0002999305725097656
ell 388, elapsed: 0.000308990478515625
ell 387, elapsed: 0.0002951622009277344
ell 386, elapsed: 0.00030112266540527344
ell 385, elapsed: 0.0002999305725097656
ell 384, elapsed: 0.0004360675811767578
ell 383, elapsed: 0.00030112266540527344
ell 382, elapsed: 0.0002949237823486328
ell 381, elapsed: 0.0002930164337158203
ell 380, elapsed: 0.0002970695495605469
ell 379, elapsed: 0.00029206275939941406
ell 378, elapsed: 0.00029778480529785156
ell 377, elapsed: 0.0002899169921875
ell 376, elapsed: 0.0002949237823486328
ell 375, elapsed: 0.0002970695495605469
ell 374, elapsed: 0.0002930164337158203
ell 373, elapsed: 0.0002989768981933594
ell 372, elapsed: 0.0002930164337158203
ell 371, elapsed: 0.0003638267517089844
ell 370, elapsed: 0.0002970695495605469
ell 369, elapsed: 0.00029397010803222656
ell 368, elapsed: 0.0002989768981933594
ell 367, elapsed: 0.0002911090850830078
ell 366, elapsed: 0.0002989768981933594
ell 365, elapsed: 0.0002930164337158203
ell 364, elapsed: 0.00029397010803222656
ell 363, elapsed: 0.0003039836883544922
ell 362, elapsed: 0.0002930164337158203
ell 361, elapsed: 0.0002970695495605469
ell 360, elapsed: 0.0002918243408203125
ell 359, elapsed: 0.0003781318664550781
ell 358, elapsed: 0.0003018379211425781
ell 357, elapsed: 0.0002951622009277344
ell 356, elapsed: 0.0003018379211425781
ell 355, elapsed: 0.0002970695495605469
ell 354, elapsed: 0.0002980232238769531
ell 353, elapsed: 0.0002999305725097656
ell 352, elapsed: 0.0002930164337158203
ell 351, elapsed: 0.0003018379211425781
ell 350, elapsed: 0.00029397010803222656
ell 349, elapsed: 0.0002970695495605469
ell 348, elapsed: 0.0002989768981933594
ell 347, elapsed: 0.00029587745666503906
ell 346, elapsed: 0.0003788471221923828
ell 345, elapsed: 0.0002570152282714844
ell 344, elapsed: 0.0002529621124267578
ell 343, elapsed: 0.0002570152282714844
ell 342, elapsed: 0.00025200843811035156
ell 341, elapsed: 0.0002608299255371094
ell 340, elapsed: 0.0002551078796386719
ell 339, elapsed: 0.0002498626708984375
ell 338, elapsed: 0.0002551078796386719
ell 337, elapsed: 0.00025200843811035156
ell 336, elapsed: 0.0002551078796386719
ell 335, elapsed: 0.00025200843811035156
ell 334, elapsed: 0.00025391578674316406
ell 333, elapsed: 0.0002510547637939453
ell 332, elapsed: 0.0003209114074707031
ell 331, elapsed: 0.000286102294921875
ell 330, elapsed: 0.0002751350402832031
ell 329, elapsed: 0.0002789497375488281
ell 328, elapsed: 0.0002751350402832031
ell 327, elapsed: 0.0002770423889160156
ell 326, elapsed: 0.00028204917907714844
ell 325, elapsed: 0.00027298927307128906
ell 324, elapsed: 0.000286102294921875
ell 323, elapsed: 0.00027298927307128906
ell 322, elapsed: 0.0002739429473876953
ell 321, elapsed: 0.0002770423889160156
ell 320, elapsed: 0.0002868175506591797
ell 319, elapsed: 0.0002789497375488281
ell 318, elapsed: 0.0003561973571777344
ell 317, elapsed: 0.000270843505859375
ell 316, elapsed: 0.0002789497375488281
ell 315, elapsed: 0.00027298927307128906
ell 314, elapsed: 0.0002791881561279297
ell 313, elapsed: 0.0002751350402832031
ell 312, elapsed: 0.0002720355987548828
ell 311, elapsed: 0.0002779960632324219
ell 310, elapsed: 0.0002808570861816406
ell 309, elapsed: 0.0002791881561279297
ell 308, elapsed: 0.00027489662170410156
ell 307, elapsed: 0.0002701282501220703
ell 306, elapsed: 0.0002779960632324219
ell 305, elapsed: 0.0003108978271484375
ell 304, elapsed: 0.0002899169921875
ell 303, elapsed: 0.00027489662170410156
ell 302, elapsed: 0.0002808570861816406
ell 301, elapsed: 0.000270843505859375
ell 300, elapsed: 0.0002720355987548828
ell 299, elapsed: 0.0002830028533935547
ell 298, elapsed: 0.0002739429473876953
ell 297, elapsed: 0.0002779960632324219
ell 296, elapsed: 0.0002741813659667969
ell 295, elapsed: 0.0002799034118652344
ell 294, elapsed: 0.0002791881561279297
ell 293, elapsed: 0.00027298927307128906
ell 292, elapsed: 0.0002789497375488281
ell 291, elapsed: 0.0002970695495605469
ell 290, elapsed: 0.0002579689025878906
ell 289, elapsed: 0.0002689361572265625
ell 288, elapsed: 0.0002541542053222656
ell 287, elapsed: 0.0002529621124267578
ell 286, elapsed: 0.0002460479736328125
ell 285, elapsed: 0.00024819374084472656
ell 284, elapsed: 0.0002510547637939453
ell 283, elapsed: 0.000247955322265625
ell 282, elapsed: 0.0002510547637939453
ell 281, elapsed: 0.0002498626708984375
ell 280, elapsed: 0.0002498626708984375
ell 279, elapsed: 0.00025391578674316406
ell 278, elapsed: 0.0002491474151611328
ell 277, elapsed: 0.000263214111328125
ell 276, elapsed: 0.000247955322265625
ell 275, elapsed: 0.0002579689025878906
ell 274, elapsed: 0.0002570152282714844
ell 273, elapsed: 0.0002570152282714844
ell 272, elapsed: 0.0002589225769042969
ell 271, elapsed: 0.00025200843811035156
ell 270, elapsed: 0.00026607513427734375
ell 269, elapsed: 0.0002570152282714844
ell 268, elapsed: 0.0002560615539550781
ell 267, elapsed: 0.0002620220184326172
ell 266, elapsed: 0.0002560615539550781
ell 265, elapsed: 0.0002598762512207031
ell 264, elapsed: 0.0002570152282714844
ell 263, elapsed: 0.0002570152282714844
ell 262, elapsed: 0.0002791881561279297
ell 261, elapsed: 0.0002548694610595703
ell 260, elapsed: 0.00025916099548339844
ell 259, elapsed: 0.00025391578674316406
ell 258, elapsed: 0.0002529621124267578
ell 257, elapsed: 0.00026416778564453125
ell 256, elapsed: 0.0002532005310058594
ell 255, elapsed: 0.0002608299255371094
ell 254, elapsed: 0.0002551078796386719
ell 253, elapsed: 0.0002560615539550781
ell 252, elapsed: 0.0002651214599609375
ell 251, elapsed: 0.00025200843811035156
ell 250, elapsed: 0.0002579689025878906
ell 249, elapsed: 0.0002541542053222656
ell 248, elapsed: 0.0002639293670654297
ell 247, elapsed: 0.00026798248291015625
ell 246, elapsed: 0.0002529621124267578
ell 245, elapsed: 0.0002620220184326172
ell 244, elapsed: 0.0002560615539550781
ell 243, elapsed: 0.0002570152282714844
ell 242, elapsed: 0.0002560615539550781
ell 241, elapsed: 0.0002720355987548828
ell 240, elapsed: 0.0002589225769042969
ell 239, elapsed: 0.0002570152282714844
ell 238, elapsed: 0.0002570152282714844
ell 237, elapsed: 0.0002541542053222656
ell 236, elapsed: 0.00025391578674316406
ell 235, elapsed: 0.0002598762512207031
ell 234, elapsed: 0.0002570152282714844
ell 233, elapsed: 0.0043909549713134766
ell 232, elapsed: 0.0002989768981933594
ell 231, elapsed: 0.0003101825714111328
ell 230, elapsed: 0.00030303001403808594
ell 229, elapsed: 0.00029397010803222656
ell 228, elapsed: 0.0002961158752441406
ell 227, elapsed: 0.0002961158752441406
ell 226, elapsed: 0.0002949237823486328
ell 225, elapsed: 0.0003058910369873047
ell 224, elapsed: 0.00029206275939941406
ell 223, elapsed: 0.00030303001403808594
ell 222, elapsed: 0.0002970695495605469
ell 221, elapsed: 0.00033593177795410156
ell 220, elapsed: 0.0002899169921875
ell 219, elapsed: 0.0002720355987548828
ell 218, elapsed: 0.00027298927307128906
ell 217, elapsed: 0.00026917457580566406
ell 216, elapsed: 0.00027298927307128906
ell 215, elapsed: 0.0002799034118652344
ell 214, elapsed: 0.000270843505859375
ell 213, elapsed: 0.00027489662170410156
ell 212, elapsed: 0.00026798248291015625
ell 211, elapsed: 0.0002741813659667969
ell 210, elapsed: 0.0002689361572265625
ell 209, elapsed: 0.0002701282501220703
ell 208, elapsed: 0.0002760887145996094
ell 207, elapsed: 0.0003077983856201172
ell 206, elapsed: 0.0002779960632324219
ell 205, elapsed: 0.0002720355987548828
ell 204, elapsed: 0.0002689361572265625
ell 203, elapsed: 0.00027489662170410156
ell 202, elapsed: 0.00026798248291015625
ell 201, elapsed: 0.00027680397033691406
ell 200, elapsed: 0.0002689361572265625
ell 199, elapsed: 0.000270843505859375
ell 198, elapsed: 0.00027489662170410156
ell 197, elapsed: 0.0002689361572265625
ell 196, elapsed: 0.0002741813659667969
ell 195, elapsed: 0.00028705596923828125
ell 194, elapsed: 0.0002961158752441406
ell 193, elapsed: 0.0003039836883544922
ell 192, elapsed: 0.0002899169921875
ell 191, elapsed: 0.0003020763397216797
ell 190, elapsed: 0.0002970695495605469
ell 189, elapsed: 0.00029015541076660156
ell 188, elapsed: 0.00029397010803222656
ell 187, elapsed: 0.0002880096435546875
ell 186, elapsed: 0.0002968311309814453
ell 185, elapsed: 0.0002989768981933594
ell 184, elapsed: 0.0003070831298828125
ell 183, elapsed: 0.0002999305725097656
ell 182, elapsed: 0.00030112266540527344
ell 181, elapsed: 0.004400968551635742
ell 180, elapsed: 0.00033092498779296875
ell 179, elapsed: 0.0006740093231201172
ell 178, elapsed: 0.00028204917907714844
ell 177, elapsed: 0.00027108192443847656
ell 176, elapsed: 0.00028014183044433594
ell 175, elapsed: 0.00027108192443847656
ell 174, elapsed: 0.00027680397033691406
ell 173, elapsed: 0.00027298927307128906
ell 172, elapsed: 0.0002701282501220703
ell 171, elapsed: 0.0002739429473876953
ell 170, elapsed: 0.00026988983154296875
ell 169, elapsed: 0.0003178119659423828
ell 168, elapsed: 0.000286102294921875
ell 167, elapsed: 0.0002529621124267578
ell 166, elapsed: 0.0002541542053222656
ell 165, elapsed: 0.00025177001953125
ell 164, elapsed: 0.0002579689025878906
ell 163, elapsed: 0.00025200843811035156
ell 162, elapsed: 0.00025200843811035156
ell 161, elapsed: 0.0002541542053222656
ell 160, elapsed: 0.0002532005310058594
ell 159, elapsed: 0.00025582313537597656
ell 158, elapsed: 0.0002510547637939453
ell 157, elapsed: 0.00025391578674316406
ell 156, elapsed: 0.00025010108947753906
ell 155, elapsed: 0.00025391578674316406
ell 154, elapsed: 0.0002970695495605469
ell 153, elapsed: 0.0002720355987548828
ell 152, elapsed: 0.0002760887145996094
ell 151, elapsed: 0.0005269050598144531
ell 150, elapsed: 0.0004489421844482422
ell 149, elapsed: 0.0007710456848144531
ell 148, elapsed: 0.0007281303405761719
ell 147, elapsed: 0.0008089542388916016
ell 146, elapsed: 0.0004210472106933594
ell 145, elapsed: 0.00028514862060546875
ell 144, elapsed: 0.0002770423889160156
ell 143, elapsed: 0.00027489662170410156
ell 142, elapsed: 0.00027489662170410156
ell 141, elapsed: 0.0002720355987548828
ell 140, elapsed: 0.0002701282501220703
ell 139, elapsed: 0.0002760887145996094
ell 138, elapsed: 0.0002808570861816406
ell 137, elapsed: 0.0002779960632324219
ell 136, elapsed: 0.00028395652770996094
ell 135, elapsed: 0.0002548694610595703
ell 134, elapsed: 0.00026607513427734375
ell 133, elapsed: 0.0002930164337158203
ell 132, elapsed: 0.0002810955047607422
ell 131, elapsed: 0.000286102294921875
ell 130, elapsed: 0.0002758502960205078
ell 129, elapsed: 0.0002739429473876953
ell 128, elapsed: 0.0002779960632324219
ell 127, elapsed: 0.0002770423889160156
ell 126, elapsed: 0.00027489662170410156
ell 125, elapsed: 0.00028586387634277344
ell 124, elapsed: 0.00027489662170410156
ell 123, elapsed: 0.00027489662170410156
ell 122, elapsed: 0.0002799034118652344
ell 121, elapsed: 0.0002720355987548828
ell 120, elapsed: 0.0003070831298828125
ell 119, elapsed: 0.00027298927307128906
ell 118, elapsed: 0.00027298927307128906
ell 117, elapsed: 0.0002789497375488281
ell 116, elapsed: 0.0002720355987548828
ell 115, elapsed: 0.0002760887145996094
ell 114, elapsed: 0.0002760887145996094
ell 113, elapsed: 0.0002720355987548828
ell 112, elapsed: 0.0002758502960205078
ell 111, elapsed: 0.00027298927307128906
ell 110, elapsed: 0.0002760887145996094
ell 109, elapsed: 0.00027298927307128906
ell 108, elapsed: 0.0003039836883544922
ell 107, elapsed: 0.00028705596923828125
ell 106, elapsed: 0.00032401084899902344
ell 105, elapsed: 0.0002791881561279297
ell 104, elapsed: 0.0002770423889160156
ell 103, elapsed: 0.0002739429473876953
ell 102, elapsed: 0.0002789497375488281
ell 101, elapsed: 0.00027298927307128906
ell 100, elapsed: 0.00029206275939941406
ell 99, elapsed: 0.0002808570861816406
ell 98, elapsed: 0.0002968311309814453
ell 97, elapsed: 0.0002560615539550781
ell 96, elapsed: 0.00026488304138183594
ell 95, elapsed: 0.0003170967102050781
ell 94, elapsed: 0.00030112266540527344
ell 93, elapsed: 0.0003330707550048828
ell 92, elapsed: 0.0003180503845214844
ell 91, elapsed: 0.0003170967102050781
ell 90, elapsed: 0.00031185150146484375
ell 89, elapsed: 0.0002918243408203125
ell 88, elapsed: 0.0003001689910888672
ell 87, elapsed: 0.00029397010803222656
ell 86, elapsed: 0.0002899169921875
ell 85, elapsed: 0.0002980232238769531
ell 84, elapsed: 0.0002911090850830078
ell 83, elapsed: 0.0003209114074707031
ell 82, elapsed: 0.0002930164337158203
ell 81, elapsed: 0.0003018379211425781
ell 80, elapsed: 0.0002989768981933594
ell 79, elapsed: 0.0002930164337158203
ell 78, elapsed: 0.0002949237823486328
ell 77, elapsed: 0.00029206275939941406
ell 76, elapsed: 0.0002930164337158203
ell 75, elapsed: 0.0002970695495605469
ell 74, elapsed: 0.00029397010803222656
ell 73, elapsed: 0.0002970695495605469
ell 72, elapsed: 0.0002980232238769531
ell 71, elapsed: 0.00029397010803222656
ell 70, elapsed: 0.00029587745666503906
ell 69, elapsed: 0.0002930164337158203
ell 68, elapsed: 0.004354000091552734
ell 67, elapsed: 0.0002999305725097656
ell 66, elapsed: 0.0002970695495605469
ell 65, elapsed: 0.0002951622009277344
ell 64, elapsed: 0.00029587745666503906
ell 63, elapsed: 0.0002970695495605469
ell 62, elapsed: 0.0002951622009277344
ell 61, elapsed: 0.00029587745666503906
ell 60, elapsed: 0.0002930164337158203
ell 59, elapsed: 0.00029397010803222656
ell 58, elapsed: 0.0002999305725097656
ell 57, elapsed: 0.00029397010803222656
ell 56, elapsed: 0.0002999305725097656
ell 55, elapsed: 0.0003409385681152344
ell 54, elapsed: 0.0002968311309814453
ell 53, elapsed: 0.0002951622009277344
ell 52, elapsed: 0.00029397010803222656
ell 51, elapsed: 0.0002970695495605469
ell 50, elapsed: 0.00029206275939941406
ell 49, elapsed: 0.00029206275939941406
ell 48, elapsed: 0.00029587745666503906
ell 47, elapsed: 0.00029206275939941406
ell 46, elapsed: 0.0002970695495605469
ell 45, elapsed: 0.0002918243408203125
ell 44, elapsed: 0.0002951622009277344
ell 43, elapsed: 0.0003058910369873047
ell 42, elapsed: 0.00030994415283203125
ell 41, elapsed: 0.0002980232238769531
ell 40, elapsed: 0.0002949237823486328
ell 39, elapsed: 0.0002899169921875
ell 38, elapsed: 0.00029397010803222656
ell 37, elapsed: 0.00029778480529785156
ell 36, elapsed: 0.00029587745666503906
ell 35, elapsed: 0.00029015541076660156
ell 34, elapsed: 0.0002951622009277344
ell 33, elapsed: 0.00029206275939941406
ell 32, elapsed: 0.00029397010803222656
ell 31, elapsed: 0.0002970695495605469
ell 30, elapsed: 0.0003218650817871094
ell 29, elapsed: 0.0003008842468261719
ell 28, elapsed: 0.00029206275939941406
ell 27, elapsed: 0.0002949237823486328
ell 26, elapsed: 0.0002880096435546875
ell 25, elapsed: 0.0002498626708984375
ell 24, elapsed: 0.0002560615539550781
ell 23, elapsed: 0.0002498626708984375
ell 22, elapsed: 0.00024890899658203125
ell 21, elapsed: 0.0002541542053222656
ell 20, elapsed: 0.0002498626708984375
ell 19, elapsed: 0.00025081634521484375
ell 18, elapsed: 0.00024700164794921875
ell 17, elapsed: 0.00024700164794921875
ell 16, elapsed: 0.00029015541076660156
ell 15, elapsed: 0.00024700164794921875
ell 14, elapsed: 0.0002491474151611328
ell 13, elapsed: 0.0002460479736328125
ell 12, elapsed: 0.00024509429931640625
ell 11, elapsed: 0.0002510547637939453
ell 10, elapsed: 0.0002460479736328125
ell 9, elapsed: 0.0002529621124267578
ell 8, elapsed: 0.00024390220642089844
ell 7, elapsed: 0.00025010108947753906
ell 6, elapsed: 0.0002498626708984375
ell 5, elapsed: 0.0002448558807373047
ell 4, elapsed: 0.00025010108947753906
ell 3, elapsed: 0.00024509429931640625
ell 2, elapsed: 0.0002589225769042969
ell 1, elapsed: 0.0002570152282714844
ell 0, elapsed: 0.0002751350402832031
  0.460573 seconds (46.03 k allocations: 3.091 MiB, 8.75% compilation time)
elapsed: 0.0003190040588378906
step:          0.051502 sec (0 allocations: 0 byte, 0.0% gc time)
swapping:      0.000382 sec (0 allocations: 0 byte, 0.0% gc time)
calc_Mellell!: 0.005668 sec (0 allocations: 0 byte, 0.0% gc time)
  t0 :  0.001417 sec (0 allocations: 0 byte, 0.0% gc time)
  tm2 : 0.070139 sec (0 allocations: 0 byte, 0.0% gc time)
  tm2s: 0.00091 sec (0 allocations: 0 byte, 0.0% gc time)
  tm4 : 0.18457 sec (0 allocations: 0 byte, 0.0% gc time)
  tp2 : 0.0 sec (0 allocations: 0 byte, 0.0% gc time)
  tp2s: 0.0 sec (0 allocations: 0 byte, 0.0% gc time)
  tp4 : 0.0 sec (0 allocations: 0 byte, 0.0% gc time)
calc_wtdll!:   0.30047 sec (9.9 k allocations: 1.047 MB, 0.0% gc time)
calc_wljj!:    0.01867 sec (689 allocations: 10.766 KB, 0.0% gc time)
mult_prefac!:  0.0 sec (0 allocations: 0 byte, 0.0% gc time)
convert:       0.0 sec (0 allocations: 0 byte, 0.0% gc time)
write:         0.030676 sec (0 allocations: 0 byte, 0.0% gc time)
test_rand_2f1: 0.0 sec (0 allocations: 0 byte, 0.0% gc time)
Closing outfile out/Ml21-cache.bin...   0.000007 seconds
  0.000485 seconds (36 allocations: 27.953 KiB)
make_phi():   0.004659 seconds (8.18 k allocations: 237.844 KiB)
  0.121878 seconds (141.90 k allocations: 3.483 MiB)
tskip:       0.001119 sec (0 allocations: 0 byte, 0.0% gc time)
tread:       0.020405 sec (17 allocations: 10.641 KB, 0.0% gc time)
tmultphi:    0.008967 sec (0 allocations: 0 byte, 0.0% gc time)
tbrfft:      0.032529 sec (0 allocations: 0 byte, 0.0% gc time)
tmultprefac: 0.015896 sec (0 allocations: 0 byte, 0.0% gc time)
toutfunc:    0.039555 sec (127.507 k allocations: 2.312 MB, 0.0% gc time)
Testing R=1.0 ... passed
Calculating fmax: 
  dlrec    = 4
  dlrecRg1 = -4
  q=1.1, R=0.9:	  0.255155 seconds (105.72 k allocations: 15.273 MiB)

  0.255436 seconds (105.77 k allocations: 15.307 MiB)
ℓ = 1202
Δℓ = 4
ΔℓRg1 = -4
N = 1600
q = 1.1
kmin = 1.0e-5
kmax = 100000.00000000004
χ0 = 0.023029999999999995
RR = RR.tsv
ℓmax = ℓmax.bin
f21 = f21.bin
kmin = 1.0e-5
kmax = 100000.0
dlrec    = 4
dlrecRg1 = -4
Output size: 5741568 bytes = 0.005347251892089844 GiB
Output size: 51264 bytes = 4.774332046508789e-5 GiB
Reading 'out/F21EllCache'...   0.001241 seconds (197 allocations: 84.203 KiB)
ellmax: 1202
lmaxcache: 1202
fell[:,1,1] = ComplexF64[1.3482014726274674e-57 - 3.302141236118086e-73im, 1.357860004724329e-57 - 3.3257978169518355e-73im]
ell 1202, elapsed: 2.288818359375e-5
ell 1201, elapsed: 0.0003139972686767578
ell 1200, elapsed: 0.00027179718017578125
ell 1199, elapsed: 0.0002701282501220703
ell 1198, elapsed: 0.00027298927307128906
ell 1002, elapsed: 0.00836181640625
ell 1001, elapsed: 0.00026702880859375
ell 1000, elapsed: 0.00026488304138183594
ell 999, elapsed: 0.0002651214599609375
ell 998, elapsed: 0.0002560615539550781
ell 902, elapsed: 0.004252910614013672
ell 901, elapsed: 0.0002770423889160156
ell 900, elapsed: 0.0002999305725097656
ell 899, elapsed: 0.00026607513427734375
ell 898, elapsed: 0.0002579689025878906
ell 802, elapsed: 0.004319906234741211
ell 801, elapsed: 0.0002689361572265625
ell 800, elapsed: 0.0002598762512207031
ell 799, elapsed: 0.00025916099548339844
ell 798, elapsed: 0.0002601146697998047
ell 702, elapsed: 0.004164218902587891
ell 701, elapsed: 0.0002651214599609375
ell 700, elapsed: 0.0002560615539550781
ell 699, elapsed: 0.0002598762512207031
ell 698, elapsed: 0.0002620220184326172
ell 602, elapsed: 0.004343986511230469
ell 601, elapsed: 0.00028395652770996094
ell 600, elapsed: 0.0002620220184326172
ell 599, elapsed: 0.00026297569274902344
ell 598, elapsed: 0.00026798248291015625
ell 502, elapsed: 0.004323005676269531
ell 501, elapsed: 0.0002739429473876953
ell 500, elapsed: 0.00026297569274902344
ell 499, elapsed: 0.00026702880859375
ell 498, elapsed: 0.0002601146697998047
ell 402, elapsed: 0.004256010055541992
ell 401, elapsed: 0.0002791881561279297
ell 400, elapsed: 0.0002689361572265625
ell 399, elapsed: 0.00026297569274902344
ell 398, elapsed: 0.00029397010803222656
ell 302, elapsed: 0.004377841949462891
ell 301, elapsed: 0.00027108192443847656
ell 300, elapsed: 0.00026607513427734375
ell 299, elapsed: 0.00026297569274902344
ell 298, elapsed: 0.0002601146697998047
ell 202, elapsed: 0.004319906234741211
ell 201, elapsed: 0.0002739429473876953
ell 200, elapsed: 0.0002689361572265625
ell 199, elapsed: 0.0002689361572265625
ell 198, elapsed: 0.00026798248291015625
ell 152, elapsed: 0.002135038375854492
ell 151, elapsed: 0.00026106834411621094
ell 150, elapsed: 0.0002620220184326172
ell 149, elapsed: 0.00026106834411621094
ell 148, elapsed: 0.0002529621124267578
ell 127, elapsed: 0.005604982376098633
ell 126, elapsed: 0.000247955322265625
ell 125, elapsed: 0.00023889541625976562
ell 124, elapsed: 0.0002391338348388672
ell 123, elapsed: 0.00023794174194335938
ell 114, elapsed: 0.0005838871002197266
ell 113, elapsed: 0.0002338886260986328
ell 112, elapsed: 0.00023698806762695312
ell 111, elapsed: 0.0002338886260986328
ell 110, elapsed: 0.00023603439331054688
ell 102, elapsed: 0.0005309581756591797
ell 101, elapsed: 0.0002338886260986328
ell 100, elapsed: 0.00023698806762695312
ell 99, elapsed: 0.0003190040588378906
ell 98, elapsed: 0.0002570152282714844
ell 97, elapsed: 0.0003070831298828125
ell 96, elapsed: 0.00029587745666503906
ell 95, elapsed: 0.0003020763397216797
ell 94, elapsed: 0.00029397010803222656
ell 93, elapsed: 0.00030612945556640625
ell 92, elapsed: 0.0002930164337158203
ell 91, elapsed: 0.0002961158752441406
ell 90, elapsed: 0.0002949237823486328
ell 89, elapsed: 0.0003027915954589844
ell 88, elapsed: 0.0002930164337158203
ell 87, elapsed: 0.0003018379211425781
ell 86, elapsed: 0.0005068778991699219
ell 85, elapsed: 0.0002970695495605469
ell 84, elapsed: 0.0002989768981933594
ell 83, elapsed: 0.0002968311309814453
ell 82, elapsed: 0.00029397010803222656
ell 81, elapsed: 0.0002989768981933594
ell 80, elapsed: 0.0002980232238769531
ell 79, elapsed: 0.0003027915954589844
ell 78, elapsed: 0.00030803680419921875
ell 77, elapsed: 0.0002961158752441406
ell 76, elapsed: 0.000308990478515625
ell 75, elapsed: 0.0002949237823486328
ell 74, elapsed: 0.0004980564117431641
ell 73, elapsed: 0.0003070831298828125
ell 72, elapsed: 0.0002961158752441406
ell 71, elapsed: 0.0003070831298828125
ell 70, elapsed: 0.0003027915954589844
ell 69, elapsed: 0.000308990478515625
ell 68, elapsed: 0.00030112266540527344
ell 67, elapsed: 0.0002980232238769531
ell 66, elapsed: 0.00030112266540527344
ell 65, elapsed: 0.0002970695495605469
ell 64, elapsed: 0.0003020763397216797
ell 63, elapsed: 0.0004901885986328125
ell 62, elapsed: 0.0003039836883544922
ell 61, elapsed: 0.00031685829162597656
ell 60, elapsed: 0.00030303001403808594
ell 59, elapsed: 0.0003070831298828125
ell 58, elapsed: 0.0003070831298828125
ell 57, elapsed: 0.0003001689910888672
ell 56, elapsed: 0.00030803680419921875
ell 55, elapsed: 0.0003058910369873047
ell 54, elapsed: 0.0003108978271484375
ell 53, elapsed: 0.000308990478515625
ell 52, elapsed: 0.00030684471130371094
ell 51, elapsed: 0.00034499168395996094
ell 50, elapsed: 0.0003020763397216797
ell 49, elapsed: 0.00030994415283203125
ell 48, elapsed: 0.0002989768981933594
ell 47, elapsed: 0.0002980232238769531
ell 46, elapsed: 0.00030612945556640625
ell 45, elapsed: 0.0003058910369873047
ell 44, elapsed: 0.00030803680419921875
ell 43, elapsed: 0.0003001689910888672
ell 42, elapsed: 0.0003101825714111328
ell 41, elapsed: 0.00030303001403808594
ell 40, elapsed: 0.0003058910369873047
ell 39, elapsed: 0.0004849433898925781
ell 38, elapsed: 0.0002961158752441406
ell 37, elapsed: 0.000308990478515625
ell 36, elapsed: 0.0003008842468261719
ell 35, elapsed: 0.00031113624572753906
ell 34, elapsed: 0.000308990478515625
ell 33, elapsed: 0.0003120899200439453
ell 32, elapsed: 0.0003190040588378906
ell 31, elapsed: 0.0003070831298828125
ell 30, elapsed: 0.0003077983856201172
ell 29, elapsed: 0.0003159046173095703
ell 28, elapsed: 0.0003020763397216797
ell 27, elapsed: 0.0004858970642089844
ell 26, elapsed: 0.0003039836883544922
ell 25, elapsed: 0.00029778480529785156
ell 24, elapsed: 0.0003161430358886719
ell 23, elapsed: 0.0003020763397216797
ell 22, elapsed: 0.00031280517578125
ell 21, elapsed: 0.0003020763397216797
ell 20, elapsed: 0.0002989768981933594
ell 19, elapsed: 0.00030612945556640625
ell 18, elapsed: 0.0002980232238769531
ell 17, elapsed: 0.0003108978271484375
ell 16, elapsed: 0.00033020973205566406
ell 15, elapsed: 0.000308990478515625
ell 14, elapsed: 0.00031495094299316406
ell 13, elapsed: 0.00030493736267089844
ell 12, elapsed: 0.00031280517578125
ell 11, elapsed: 0.0003020763397216797
ell 10, elapsed: 0.0003077983856201172
ell 9, elapsed: 0.0003077983856201172
ell 8, elapsed: 0.00030112266540527344
ell 7, elapsed: 0.00030493736267089844
ell 6, elapsed: 0.0002999305725097656
ell 5, elapsed: 0.0002970695495605469
ell 4, elapsed: 0.00030303001403808594
ell 3, elapsed: 0.00046706199645996094
ell 2, elapsed: 0.0003120899200439453
ell 1, elapsed: 0.00030303001403808594
ell 0, elapsed: 0.0002970695495605469
  0.101114 seconds (11.51 k allocations: 719.594 KiB)
elapsed: 0.0003609657287597656
step:          0.048021 sec (0 allocations: 0 byte, 0.0% gc time)
swapping:      0.000325 sec (0 allocations: 0 byte, 0.0% gc time)
calc_Mellell!: 0.000986 sec (0 allocations: 0 byte, 0.0% gc time)
  t0 :  0.000246 sec (0 allocations: 0 byte, 0.0% gc time)
  tm2 : 0.010259 sec (0 allocations: 0 byte, 0.0% gc time)
  tm2s: 0.000187 sec (0 allocations: 0 byte, 0.0% gc time)
  tm4 : 0.02358 sec (0 allocations: 0 byte, 0.0% gc time)
  tp2 : 0.0 sec (0 allocations: 0 byte, 0.0% gc time)
  tp2s: 0.0 sec (0 allocations: 0 byte, 0.0% gc time)
  tp4 : 0.0 sec (0 allocations: 0 byte, 0.0% gc time)
calc_wtdll!:   0.034742 sec (1.344 k allocations: 147.0 KB, 0.0% gc time)
calc_wljj!:    0.001958 sec (6 allocations: 96 byte, 0.0% gc time)
mult_prefac!:  0.0 sec (0 allocations: 0 byte, 0.0% gc time)
convert:       0.0 sec (0 allocations: 0 byte, 0.0% gc time)
write:         0.002905 sec (0 allocations: 0 byte, 0.0% gc time)
test_rand_2f1: 0.0 sec (0 allocations: 0 byte, 0.0% gc time)
Closing outfile out/Ml21-cache.bin...   0.000006 seconds
  0.001404 seconds (36 allocations: 27.953 KiB)
make_phi():   0.001704 seconds (8.18 k allocations: 237.844 KiB)
  0.010799 seconds (11.65 k allocations: 308.688 KiB)
tskip:       1.9e-5 sec (0 allocations: 0 byte, 0.0% gc time)
tread:       0.001902 sec (17 allocations: 2.125 KB, 0.0% gc time)
tmultphi:    0.00082 sec (0 allocations: 0 byte, 0.0% gc time)
tbrfft:      0.003007 sec (0 allocations: 0 byte, 0.0% gc time)
tmultprefac: 0.001471 sec (0 allocations: 0 byte, 0.0% gc time)
toutfunc:    0.003311 sec (10.304 k allocations: 196.0 KB, 0.0% gc time)
Testing R=0.9 ... passed
Calculating fmax: 
  dlrec    = 4
  dlrecRg1 = -4
  q=1.1, R=0.8:	  0.226221 seconds (103.21 k allocations: 14.840 MiB, 13.39% gc time)

  0.226419 seconds (103.27 k allocations: 14.874 MiB, 13.38% gc time)
ℓ = 1202
Δℓ = 4
ΔℓRg1 = -4
N = 1600
q = 1.1
kmin = 1.0e-5
kmax = 100000.00000000004
χ0 = 0.023029999999999995
RR = RR.tsv
ℓmax = ℓmax.bin
f21 = f21.bin
kmin = 1.0e-5
kmax = 100000.0
dlrec    = 4
dlrecRg1 = -4
Output size: 5741568 bytes = 0.005347251892089844 GiB
Output size: 51264 bytes = 4.774332046508789e-5 GiB
Reading 'out/F21EllCache'...   0.000887 seconds (197 allocations: 84.203 KiB)
ellmax: 1202
lmaxcache: 1202
fell[:,1,1] = ComplexF64[7.519068145690986e-120 - 1.8416405474382574e-135im, 7.541664537386155e-120 - 1.847175067190611e-135im]
ell 1202, elapsed: 2.8133392333984375e-5
ell 1201, elapsed: 0.0003769397735595703
ell 1200, elapsed: 0.00026917457580566406
ell 1199, elapsed: 0.00026297569274902344
ell 1198, elapsed: 0.00026607513427734375
ell 1002, elapsed: 0.008300065994262695
ell 1001, elapsed: 0.0002491474151611328
ell 1000, elapsed: 0.0002651214599609375
ell 999, elapsed: 0.00026297569274902344
ell 998, elapsed: 0.00023794174194335938
ell 902, elapsed: 0.004138946533203125
ell 901, elapsed: 0.00027108192443847656
ell 900, elapsed: 0.00026416778564453125
ell 899, elapsed: 0.00026106834411621094
ell 898, elapsed: 0.00026488304138183594
ell 802, elapsed: 0.004185914993286133
ell 801, elapsed: 0.0003039836883544922
ell 800, elapsed: 0.0002639293670654297
ell 799, elapsed: 0.0002720355987548828
ell 798, elapsed: 0.0002658367156982422
ell 702, elapsed: 0.0043010711669921875
ell 701, elapsed: 0.00027680397033691406
ell 700, elapsed: 0.0002601146697998047
ell 699, elapsed: 0.00026106834411621094
ell 698, elapsed: 0.0002598762512207031
ell 602, elapsed: 0.004274845123291016
ell 601, elapsed: 0.00027298927307128906
ell 600, elapsed: 0.00026297569274902344
ell 599, elapsed: 0.00026297569274902344
ell 598, elapsed: 0.0002980232238769531
ell 502, elapsed: 0.004224061965942383
ell 501, elapsed: 0.0002720355987548828
ell 500, elapsed: 0.00026106834411621094
ell 499, elapsed: 0.00026297569274902344
ell 498, elapsed: 0.00026488304138183594
ell 402, elapsed: 0.004256010055541992
ell 401, elapsed: 0.000270843505859375
ell 400, elapsed: 0.0002639293670654297
ell 399, elapsed: 0.00026297569274902344
ell 398, elapsed: 0.00026416778564453125
ell 302, elapsed: 0.004261970520019531
ell 301, elapsed: 0.00027298927307128906
ell 300, elapsed: 0.00026679039001464844
ell 299, elapsed: 0.00036978721618652344
ell 298, elapsed: 0.0002658367156982422
ell 202, elapsed: 0.004236936569213867
ell 201, elapsed: 0.0002701282501220703
ell 200, elapsed: 0.00026607513427734375
ell 199, elapsed: 0.0002682209014892578
ell 198, elapsed: 0.0002651214599609375
ell 152, elapsed: 0.0021910667419433594
ell 151, elapsed: 0.0002620220184326172
ell 150, elapsed: 0.00026106834411621094
ell 149, elapsed: 0.00026607513427734375
ell 148, elapsed: 0.0002639293670654297
ell 127, elapsed: 0.0011248588562011719
ell 126, elapsed: 0.0002620220184326172
ell 125, elapsed: 0.0002601146697998047
ell 124, elapsed: 0.0002579689025878906
ell 123, elapsed: 0.0002601146697998047
ell 114, elapsed: 0.0007140636444091797
ell 113, elapsed: 0.00026702880859375
ell 112, elapsed: 0.0002658367156982422
ell 111, elapsed: 0.0002598762512207031
ell 110, elapsed: 0.00026297569274902344
ell 102, elapsed: 0.0005941390991210938
ell 101, elapsed: 0.0002620220184326172
ell 100, elapsed: 0.00026106834411621094
ell 99, elapsed: 0.0002608299255371094
ell 98, elapsed: 0.00025582313537597656
ell 97, elapsed: 0.00030493736267089844
ell 96, elapsed: 0.00029015541076660156
ell 95, elapsed: 0.0007989406585693359
ell 94, elapsed: 0.0002980232238769531
ell 93, elapsed: 0.0002899169921875
ell 92, elapsed: 0.0002951622009277344
ell 91, elapsed: 0.0002849102020263672
ell 90, elapsed: 0.00029921531677246094
ell 89, elapsed: 0.0002949237823486328
ell 88, elapsed: 0.00029587745666503906
ell 87, elapsed: 0.00030112266540527344
ell 86, elapsed: 0.00028896331787109375
ell 85, elapsed: 0.0002949237823486328
ell 84, elapsed: 0.0002880096435546875
ell 83, elapsed: 0.0003070831298828125
ell 82, elapsed: 0.0002980232238769531
ell 81, elapsed: 0.0002911090850830078
ell 80, elapsed: 0.00029397010803222656
ell 79, elapsed: 0.0002911090850830078
ell 78, elapsed: 0.0002942085266113281
ell 77, elapsed: 0.0002961158752441406
ell 76, elapsed: 0.0003020763397216797
ell 75, elapsed: 0.00030112266540527344
ell 74, elapsed: 0.00029397010803222656
ell 73, elapsed: 0.00029587745666503906
ell 72, elapsed: 0.0007619857788085938
ell 71, elapsed: 0.0002949237823486328
ell 70, elapsed: 0.00029587745666503906
ell 69, elapsed: 0.0003838539123535156
ell 68, elapsed: 0.0002949237823486328
ell 67, elapsed: 0.0002899169921875
ell 66, elapsed: 0.0002951622009277344
ell 65, elapsed: 0.0002930164337158203
ell 64, elapsed: 0.0002911090850830078
ell 63, elapsed: 0.00029206275939941406
ell 62, elapsed: 0.0003070831298828125
ell 61, elapsed: 0.0003387928009033203
ell 60, elapsed: 0.00030493736267089844
ell 59, elapsed: 0.0003008842468261719
ell 58, elapsed: 0.0002961158752441406
ell 57, elapsed: 0.0003039836883544922
[...]
ell 782, elapsed: 0.0010199546813964844
ell 781, elapsed: 0.0005381107330322266
ell 780, elapsed: 0.0005590915679931641
ell 779, elapsed: 0.0005309581756591797
ell 778, elapsed: 0.0005490779876708984
ell 772, elapsed: 0.0009610652923583984
ell 771, elapsed: 0.0005788803100585938
ell 770, elapsed: 0.0005550384521484375
ell 769, elapsed: 0.0005362033843994141
ell 768, elapsed: 0.0005450248718261719
ell 762, elapsed: 0.0010039806365966797
ell 761, elapsed: 0.0005409717559814453
ell 760, elapsed: 0.0005609989166259766
ell 759, elapsed: 0.0006670951843261719
ell 758, elapsed: 0.0005450248718261719
ell 752, elapsed: 0.0009579658508300781
ell 751, elapsed: 0.0005419254302978516
ell 750, elapsed: 0.0005581378936767578
ell 749, elapsed: 0.0005459785461425781
ell 748, elapsed: 0.0008440017700195312
ell 742, elapsed: 0.0009229183197021484
ell 741, elapsed: 0.0005359649658203125
ell 740, elapsed: 0.0005462169647216797
ell 739, elapsed: 0.0005278587341308594
ell 738, elapsed: 0.0005528926849365234
ell 732, elapsed: 0.0010001659393310547
ell 731, elapsed: 0.0005340576171875
ell 730, elapsed: 0.0005578994750976562
ell 729, elapsed: 0.0005421638488769531
ell 728, elapsed: 0.0005509853363037109
ell 722, elapsed: 0.001004934310913086
ell 721, elapsed: 0.0005428791046142578
ell 720, elapsed: 0.0005390644073486328
ell 719, elapsed: 0.0005359649658203125
ell 718, elapsed: 0.0005578994750976562
ell 712, elapsed: 0.0009429454803466797
ell 711, elapsed: 0.0005390644073486328
ell 710, elapsed: 0.0005719661712646484
ell 709, elapsed: 0.0005409717559814453
ell 708, elapsed: 0.0005412101745605469
ell 702, elapsed: 0.0009109973907470703
ell 701, elapsed: 0.0005450248718261719
ell 700, elapsed: 0.000537872314453125
ell 699, elapsed: 0.0005521774291992188
ell 698, elapsed: 0.0005350112915039062
ell 692, elapsed: 0.0009050369262695312
ell 691, elapsed: 0.0005290508270263672
ell 690, elapsed: 0.0005168914794921875
ell 689, elapsed: 0.0005400180816650391
ell 688, elapsed: 0.0005500316619873047
ell 682, elapsed: 0.0009980201721191406
ell 681, elapsed: 0.0005412101745605469
ell 680, elapsed: 0.0005478858947753906
ell 679, elapsed: 0.0005400180816650391
ell 678, elapsed: 0.0005500316619873047
ell 672, elapsed: 0.0009331703186035156
ell 671, elapsed: 0.0005359649658203125
ell 670, elapsed: 0.0005421638488769531
ell 669, elapsed: 0.0005421638488769531
ell 668, elapsed: 0.0005300045013427734
ell 662, elapsed: 0.0009169578552246094
ell 661, elapsed: 0.0005240440368652344
ell 660, elapsed: 0.0017371177673339844
ell 659, elapsed: 0.00045609474182128906
ell 658, elapsed: 0.0004570484161376953
ell 652, elapsed: 0.0007691383361816406
ell 651, elapsed: 0.0004520416259765625
ell 650, elapsed: 0.0004558563232421875
ell 649, elapsed: 0.00043392181396484375
ell 648, elapsed: 0.00043082237243652344
ell 642, elapsed: 0.0007221698760986328
ell 641, elapsed: 0.00042891502380371094
ell 640, elapsed: 0.00047087669372558594
ell 639, elapsed: 0.0004749298095703125
ell 638, elapsed: 0.0004878044128417969
ell 632, elapsed: 0.0009009838104248047
ell 631, elapsed: 0.0004951953887939453
ell 630, elapsed: 0.0005159378051757812
ell 629, elapsed: 0.0005171298980712891
ell 628, elapsed: 0.0004630088806152344
ell 622, elapsed: 0.0007319450378417969
ell 621, elapsed: 0.00043702125549316406
ell 620, elapsed: 0.00046896934509277344
ell 619, elapsed: 0.00043392181396484375
ell 618, elapsed: 0.0004360675811767578
ell 612, elapsed: 0.0007240772247314453
ell 611, elapsed: 0.0004329681396484375
ell 610, elapsed: 0.00043582916259765625
ell 609, elapsed: 0.0004341602325439453
ell 608, elapsed: 0.00043582916259765625
ell 602, elapsed: 0.0007240772247314453
ell 601, elapsed: 0.00043511390686035156
ell 600, elapsed: 0.0004341602325439453
ell 599, elapsed: 0.00043392181396484375
ell 598, elapsed: 0.00043320655822753906
ell 592, elapsed: 0.0007119178771972656
ell 591, elapsed: 0.00043010711669921875
ell 590, elapsed: 0.0004360675811767578
ell 589, elapsed: 0.00045800209045410156
ell 588, elapsed: 0.00043201446533203125
ell 582, elapsed: 0.0007061958312988281
ell 581, elapsed: 0.000431060791015625
ell 580, elapsed: 0.0004279613494873047
ell 579, elapsed: 0.000431060791015625
ell 578, elapsed: 0.0004267692565917969
ell 572, elapsed: 0.0007297992706298828
ell 571, elapsed: 0.00045990943908691406
ell 570, elapsed: 0.0028989315032958984
ell 569, elapsed: 0.000598907470703125
ell 568, elapsed: 0.0005309581756591797
ell 562, elapsed: 0.0009219646453857422
ell 561, elapsed: 0.0005218982696533203
ell 560, elapsed: 0.0004830360412597656
ell 559, elapsed: 0.0004470348358154297
ell 558, elapsed: 0.00044608116149902344
ell 552, elapsed: 0.0008499622344970703
ell 551, elapsed: 0.0005037784576416016
ell 550, elapsed: 0.0005040168762207031
ell 549, elapsed: 0.0005109310150146484
ell 548, elapsed: 0.0005078315734863281
ell 542, elapsed: 0.000865936279296875
ell 541, elapsed: 0.0005178451538085938
ell 540, elapsed: 0.0005450248718261719
ell 539, elapsed: 0.0005190372467041016
ell 538, elapsed: 0.0005140304565429688
ell 532, elapsed: 0.0008900165557861328
ell 531, elapsed: 0.0005381107330322266
ell 530, elapsed: 0.0005331039428710938
ell 529, elapsed: 0.0005459785461425781
ell 528, elapsed: 0.0005359649658203125
ell 522, elapsed: 0.0009000301361083984
ell 521, elapsed: 0.0005350112915039062
ell 520, elapsed: 0.0005328655242919922
ell 519, elapsed: 0.0005309581756591797
ell 518, elapsed: 0.0005409717559814453
ell 512, elapsed: 0.0010061264038085938
ell 511, elapsed: 0.0005369186401367188
ell 510, elapsed: 0.0005548000335693359
ell 509, elapsed: 0.0005438327789306641
ell 508, elapsed: 0.0005550384521484375
ell 502, elapsed: 0.001001119613647461
ell 501, elapsed: 0.00055694580078125
ell 500, elapsed: 0.0005540847778320312
ell 499, elapsed: 0.0005600452423095703
ell 498, elapsed: 0.0005609989166259766
ell 492, elapsed: 0.0009899139404296875
ell 491, elapsed: 0.0005831718444824219
ell 490, elapsed: 0.0005609989166259766
ell 489, elapsed: 0.0005958080291748047
ell 488, elapsed: 0.0005640983581542969
ell 482, elapsed: 0.0009548664093017578
ell 481, elapsed: 0.0005438327789306641
ell 480, elapsed: 0.00055694580078125
ell 479, elapsed: 0.0005939006805419922
ell 478, elapsed: 0.0005490779876708984
ell 472, elapsed: 0.0009610652923583984
ell 471, elapsed: 0.0005419254302978516
ell 470, elapsed: 0.0005571842193603516
ell 469, elapsed: 0.0005400180816650391
ell 468, elapsed: 0.0006740093231201172
ell 462, elapsed: 0.0009729862213134766
ell 461, elapsed: 0.0005381107330322266
ell 460, elapsed: 0.0005290508270263672
ell 459, elapsed: 0.0005428791046142578
ell 458, elapsed: 0.0005431175231933594
ell 452, elapsed: 0.0010669231414794922
ell 451, elapsed: 0.0005471706390380859
ell 450, elapsed: 0.0005550384521484375
ell 449, elapsed: 0.0005419254302978516
ell 448, elapsed: 0.0005581378936767578
ell 442, elapsed: 0.0009169578552246094
ell 441, elapsed: 0.0005440711975097656
ell 440, elapsed: 0.0005509853363037109
ell 439, elapsed: 0.0005471706390380859
ell 438, elapsed: 0.0005459785461425781
ell 432, elapsed: 0.0009629726409912109
ell 431, elapsed: 0.0005431175231933594
ell 430, elapsed: 0.0006570816040039062
ell 429, elapsed: 0.0005550384521484375
ell 428, elapsed: 0.0005559921264648438
ell 422, elapsed: 0.0009920597076416016
ell 421, elapsed: 0.0005390644073486328
ell 420, elapsed: 0.0005619525909423828
ell 419, elapsed: 0.0006258487701416016
ell 418, elapsed: 0.0005459785461425781
ell 412, elapsed: 0.0009450912475585938
ell 411, elapsed: 0.0005450248718261719
ell 410, elapsed: 0.0005550384521484375
ell 409, elapsed: 0.0005400180816650391
ell 408, elapsed: 0.0006389617919921875
ell 402, elapsed: 0.0009419918060302734
ell 401, elapsed: 0.0005371570587158203
ell 400, elapsed: 0.0005540847778320312
ell 399, elapsed: 0.0005450248718261719
ell 398, elapsed: 0.0005438327789306641
ell 392, elapsed: 0.0009741783142089844
ell 391, elapsed: 0.0005350112915039062
ell 390, elapsed: 0.0005400180816650391
ell 389, elapsed: 0.0005578994750976562
ell 388, elapsed: 0.0005478858947753906
ell 382, elapsed: 0.0009419918060302734
ell 381, elapsed: 0.0005931854248046875
ell 380, elapsed: 0.0005419254302978516
ell 379, elapsed: 0.0005340576171875
ell 378, elapsed: 0.0005409717559814453
ell 372, elapsed: 0.0009000301361083984
ell 371, elapsed: 0.0005261898040771484
ell 370, elapsed: 0.0005538463592529297
ell 369, elapsed: 0.0005199909210205078
ell 368, elapsed: 0.0005228519439697266
ell 362, elapsed: 0.0008640289306640625
ell 361, elapsed: 0.0005159378051757812
ell 360, elapsed: 0.0005221366882324219
ell 359, elapsed: 0.0005180835723876953
ell 358, elapsed: 0.0005419254302978516
ell 352, elapsed: 0.0008950233459472656
ell 351, elapsed: 0.0005171298980712891
ell 350, elapsed: 0.0005168914794921875
ell 349, elapsed: 0.000514984130859375
ell 348, elapsed: 0.0005190372467041016
ell 342, elapsed: 0.0009160041809082031
ell 341, elapsed: 0.000514984130859375
ell 340, elapsed: 0.0005190372467041016
ell 339, elapsed: 0.0005249977111816406
ell 338, elapsed: 0.0005240440368652344
ell 332, elapsed: 0.0009250640869140625
ell 331, elapsed: 0.0005240440368652344
ell 330, elapsed: 0.0005440711975097656
ell 329, elapsed: 0.0005300045013427734
ell 328, elapsed: 0.0005419254302978516
ell 322, elapsed: 0.0009407997131347656
ell 321, elapsed: 0.0005249977111816406
ell 320, elapsed: 0.0005359649658203125
ell 319, elapsed: 0.0005810260772705078
ell 318, elapsed: 0.0005319118499755859
ell 312, elapsed: 0.0009109973907470703
ell 311, elapsed: 0.0005228519439697266
ell 310, elapsed: 0.0005319118499755859
ell 309, elapsed: 0.0005338191986083984
ell 308, elapsed: 0.0005359649658203125
ell 302, elapsed: 0.000865936279296875
ell 301, elapsed: 0.0004858970642089844
ell 300, elapsed: 0.0005171298980712891
ell 299, elapsed: 0.0005290508270263672
ell 298, elapsed: 0.0005331039428710938
ell 292, elapsed: 0.0009257793426513672
ell 291, elapsed: 0.0005209445953369141
ell 290, elapsed: 0.0005130767822265625
ell 289, elapsed: 0.0005211830139160156
ell 288, elapsed: 0.0005269050598144531
ell 282, elapsed: 0.0009288787841796875
ell 281, elapsed: 0.0005230903625488281
ell 280, elapsed: 0.0005428791046142578
ell 279, elapsed: 0.0005240440368652344
ell 278, elapsed: 0.0005249977111816406
ell 272, elapsed: 0.0009310245513916016
ell 271, elapsed: 0.0005218982696533203
ell 270, elapsed: 0.0005338191986083984
ell 269, elapsed: 0.0005240440368652344
ell 268, elapsed: 0.0005581378936767578
ell 262, elapsed: 0.0009300708770751953
ell 261, elapsed: 0.0005319118499755859
ell 260, elapsed: 0.0005390644073486328
ell 259, elapsed: 0.0005249977111816406
ell 258, elapsed: 0.0005350112915039062
ell 252, elapsed: 0.0008671283721923828
ell 251, elapsed: 0.00046181678771972656
ell 250, elapsed: 0.0004570484161376953
ell 249, elapsed: 0.00045800209045410156
ell 248, elapsed: 0.0004608631134033203
ell 242, elapsed: 0.0007638931274414062
ell 241, elapsed: 0.00045013427734375
ell 240, elapsed: 0.0004799365997314453
ell 239, elapsed: 0.0005218982696533203
ell 238, elapsed: 0.0005190372467041016
ell 232, elapsed: 0.0008959770202636719
ell 231, elapsed: 0.0005121231079101562
ell 230, elapsed: 0.0005180835723876953
ell 229, elapsed: 0.0005218982696533203
ell 228, elapsed: 0.0005290508270263672
ell 222, elapsed: 0.0008919239044189453
ell 221, elapsed: 0.0005190372467041016
ell 220, elapsed: 0.0005230903625488281
ell 219, elapsed: 0.0005249977111816406
ell 218, elapsed: 0.0005350112915039062
ell 212, elapsed: 0.0009450912475585938
ell 211, elapsed: 0.0005309581756591797
ell 210, elapsed: 0.0005350112915039062
ell 209, elapsed: 0.0005278587341308594
ell 208, elapsed: 0.0005159378051757812
ell 202, elapsed: 0.0008029937744140625
ell 201, elapsed: 0.0004680156707763672
ell 200, elapsed: 0.0004899501800537109
ell 199, elapsed: 0.0004661083221435547
ell 198, elapsed: 0.00047087669372558594
ell 192, elapsed: 0.0008950233459472656
ell 191, elapsed: 0.0005397796630859375
ell 190, elapsed: 0.0005459785461425781
ell 189, elapsed: 0.0005509853363037109
ell 188, elapsed: 0.0006020069122314453
ell 182, elapsed: 0.000982046127319336
ell 181, elapsed: 0.0005619525909423828
ell 180, elapsed: 0.0005581378936767578
ell 179, elapsed: 0.0005559921264648438
ell 178, elapsed: 0.0005698204040527344
ell 172, elapsed: 0.0011010169982910156
ell 171, elapsed: 0.00055694580078125
ell 170, elapsed: 0.0005669593811035156
ell 169, elapsed: 0.0005619525909423828
ell 168, elapsed: 0.00057220458984375
ell 162, elapsed: 0.001088857650756836
ell 161, elapsed: 0.0005588531494140625
ell 160, elapsed: 0.0005679130554199219
ell 159, elapsed: 0.0005269050598144531
ell 158, elapsed: 0.0005509853363037109
ell 152, elapsed: 0.0009589195251464844
ell 151, elapsed: 0.0006089210510253906
ell 150, elapsed: 0.0005021095275878906
ell 149, elapsed: 0.0004889965057373047
ell 148, elapsed: 0.00049591064453125
ell 142, elapsed: 0.0008549690246582031
ell 141, elapsed: 0.0004849433898925781
ell 140, elapsed: 0.0004889965057373047
ell 139, elapsed: 0.0005490779876708984
ell 138, elapsed: 0.0005729198455810547
ell 132, elapsed: 0.0009400844573974609
ell 131, elapsed: 0.0005350112915039062
ell 130, elapsed: 0.0005440711975097656
ell 129, elapsed: 0.0005440711975097656
ell 128, elapsed: 0.0005948543548583984
ell 122, elapsed: 0.0009629726409912109
ell 121, elapsed: 0.0005459785461425781
ell 120, elapsed: 0.0005509853363037109
ell 119, elapsed: 0.0005509853363037109
ell 118, elapsed: 0.0005478858947753906
ell 112, elapsed: 0.0010118484497070312
ell 111, elapsed: 0.0005438327789306641
ell 110, elapsed: 0.0005519390106201172
ell 109, elapsed: 0.0005359649658203125
ell 108, elapsed: 0.0005459785461425781
ell 102, elapsed: 0.0009469985961914062
ell 101, elapsed: 0.0023288726806640625
ell 100, elapsed: 0.002382040023803711
ell 99, elapsed: 0.0023479461669921875
ell 98, elapsed: 0.002351999282836914
ell 92, elapsed: 0.004503011703491211
ell 91, elapsed: 0.0023419857025146484
ell 90, elapsed: 0.002310037612915039
ell 89, elapsed: 0.0023398399353027344
ell 88, elapsed: 0.0023040771484375
ell 82, elapsed: 0.00448298454284668
ell 81, elapsed: 0.002382040023803711
ell 80, elapsed: 0.0023870468139648438
ell 79, elapsed: 0.002331972122192383
ell 78, elapsed: 0.0023550987243652344
ell 72, elapsed: 0.004505157470703125
ell 71, elapsed: 0.0023550987243652344
ell 70, elapsed: 0.0023088455200195312
ell 69, elapsed: 0.0023190975189208984
ell 68, elapsed: 0.002296924591064453
ell 62, elapsed: 0.004488945007324219
ell 61, elapsed: 0.002315998077392578
ell 60, elapsed: 0.002295970916748047
ell 59, elapsed: 0.0022649765014648438
ell 58, elapsed: 0.0022940635681152344
ell 52, elapsed: 0.004503965377807617
ell 51, elapsed: 0.0023169517517089844
ell 50, elapsed: 0.002315998077392578
ell 49, elapsed: 0.0023441314697265625
ell 48, elapsed: 0.0023081302642822266
ell 42, elapsed: 0.008400917053222656
ell 41, elapsed: 0.0023238658905029297
ell 40, elapsed: 0.0022881031036376953
ell 39, elapsed: 0.0022678375244140625
ell 38, elapsed: 0.002328157424926758
ell 32, elapsed: 0.004403114318847656
ell 31, elapsed: 0.002270936965942383
ell 30, elapsed: 0.0023109912872314453
ell 29, elapsed: 0.002296924591064453
ell 28, elapsed: 0.0022630691528320312
ell 22, elapsed: 0.004429817199707031
ell 21, elapsed: 0.0023169517517089844
ell 20, elapsed: 0.002299070358276367
ell 19, elapsed: 0.0023391246795654297
ell 18, elapsed: 0.0023009777069091797
ell 12, elapsed: 0.004382133483886719
ell 11, elapsed: 0.0022988319396972656
ell 10, elapsed: 0.0023679733276367188
ell 9, elapsed: 0.0023050308227539062
ell 8, elapsed: 0.002312183380126953
  0.519662 seconds (68.56 k allocations: 12.176 MiB)
elapsed: 0.002825021743774414
step:          0.042724 sec (0 allocations: 0 byte, 0.0% gc time)
swapping:      0.000375 sec (0 allocations: 0 byte, 0.0% gc time)
calc_Mellell!: 0.020312 sec (0 allocations: 0 byte, 0.0% gc time)
  t0 :  0.006728 sec (0 allocations: 0 byte, 0.0% gc time)
  tm2 : 0.050394 sec (0 allocations: 0 byte, 0.0% gc time)
  tm2s: 0.005294 sec (0 allocations: 0 byte, 0.0% gc time)
  tm4 : 0.119543 sec (0 allocations: 0 byte, 0.0% gc time)
  tp2 : 0.0 sec (0 allocations: 0 byte, 0.0% gc time)
  tp2s: 0.0 sec (0 allocations: 0 byte, 0.0% gc time)
  tp4 : 0.0 sec (0 allocations: 0 byte, 0.0% gc time)
calc_wtdll!:   0.373442 sec (48.6 k allocations: 11.096 MB, 0.0% gc time)
calc_wljj!:    0.018218 sec (69 allocations: 1.078 KB, 0.0% gc time)
mult_prefac!:  0.0 sec (0 allocations: 0 byte, 0.0% gc time)
convert:       0.0 sec (0 allocations: 0 byte, 0.0% gc time)
write:         0.024218 sec (0 allocations: 0 byte, 0.0% gc time)
test_rand_2f1: 0.0 sec (0 allocations: 0 byte, 0.0% gc time)
Closing outfile out/MlCache/MlCache.bin...   0.000009 seconds
xi, l=0, nu=0:   0.328950 seconds (620.46 k allocations: 33.880 MiB, 99.48% compilation time)
xi, l=0, nu=-2:  0.001446 seconds (114 allocations: 148.969 KiB)
Created 'out/xi.tsv'.
  q=1.1, R=0.6:	  0.403699 seconds (264.58 k allocations: 38.109 MiB)
  q=1.1, R=0.7:	  0.487762 seconds (276.43 k allocations: 40.113 MiB, 3.53% gc time)
  q=1.1, R=0.8:	  0.475229 seconds (271.87 k allocations: 39.334 MiB, 2.44% gc time)
  q=1.1, R=0.9:	  0.535851 seconds (266.68 k allocations: 38.464 MiB, 1.29% gc time)
  q=1.1, R=0.998:	 14.121858 seconds (114.96 k allocations: 7.588 MiB)
  q=1.1, R=1.0:	  0.003026 seconds (8.20 k allocations: 704.344 KiB)

ℓ = 1000
Δℓ = 4
ΔℓRg1 = -4
N = 4096
q = 1.1
kmin = 1.0e-5
kmax = 1000.0
χ0 = 0.001
RR = RR.tsv
ℓmax = ℓmax.bin
f21 = f21.bin
kmin = 1.0e-5
kmax = 1000.0
dlrec    = 4
dlrecRg1 = -4
Output size: 1573632 bytes = 0.0014655590057373047 GiB
Output size: 786816 bytes = 0.0007327795028686523 GiB
Reading 'out/F21EllCache'...   0.001163 seconds (198 allocations: 533.078 KiB)
ellmax: 1002
lmaxcache: 1000
fell[:,1,1] = ComplexF64[1.726292812820208e-224 - 4.2281979352226965e-240im, 1.7282693092099638e-224 - 4.233038955177178e-240im]
ell 1002, elapsed: 5.4836273193359375e-5
ell 1001, elapsed: 0.0008199214935302734
ell 1000, elapsed: 0.0009200572967529297
ell 999, elapsed: 0.0041811466217041016
ell 998, elapsed: 0.004134178161621094
ell 44, elapsed: 0.5968630313873291
ell 43, elapsed: 0.003963947296142578
ell 42, elapsed: 0.0039789676666259766
ell 41, elapsed: 0.003965854644775391
ell 40, elapsed: 0.004021167755126953
  0.629186 seconds (4.59 k allocations: 322.266 KiB)
elapsed: 0.0052220821380615234
step:          0.590807 sec (0 allocations: 0 byte, 0.0% gc time)
swapping:      0.000324 sec (0 allocations: 0 byte, 0.0% gc time)
calc_Mellell!: 0.000888 sec (0 allocations: 0 byte, 0.0% gc time)
  t0 :  0.000474 sec (0 allocations: 0 byte, 0.0% gc time)
  tm2 : 0.007463 sec (0 allocations: 0 byte, 0.0% gc time)
  tm2s: 0.000409 sec (0 allocations: 0 byte, 0.0% gc time)
  tm4 : 0.018564 sec (0 allocations: 0 byte, 0.0% gc time)
  tp2 : 0.0 sec (0 allocations: 0 byte, 0.0% gc time)
  tp2s: 0.0 sec (0 allocations: 0 byte, 0.0% gc time)
  tp4 : 0.0 sec (0 allocations: 0 byte, 0.0% gc time)
calc_wtdll!:   0.02707 sec (480 allocations: 52.5 KB, 0.0% gc time)
calc_wljj!:    0.000787 sec (1 allocations: 16 byte, 0.0% gc time)
mult_prefac!:  0.0 sec (0 allocations: 0 byte, 0.0% gc time)
convert:       0.0 sec (0 allocations: 0 byte, 0.0% gc time)
write:         0.000647 sec (0 allocations: 0 byte, 0.0% gc time)
test_rand_2f1: 0.0 sec (0 allocations: 0 byte, 0.0% gc time)
Closing outfile out/MlCache/MlCache.bin...   0.000008 seconds
  0.414900 seconds (38 allocations: 66.859 KiB)
make_phi():   0.006141 seconds (65 allocations: 275.984 KiB)
  0.068735 seconds (14.06 k allocations: 845.429 KiB, 91.21% compilation time)
tskip:       0.0 sec (0 allocations: 0 byte, 0.0% gc time)
tread:       0.000711 sec (17 allocations: 1.266 KB, 0.0% gc time)
tmultphi:    0.000237 sec (0 allocations: 0 byte, 0.0% gc time)
tbrfft:      0.001098 sec (0 allocations: 0 byte, 0.0% gc time)
tmultprefac: 0.000449 sec (0 allocations: 0 byte, 0.0% gc time)
toutfunc:    9.5e-5 sec (0 allocations: 0 byte, 0.0% gc time)
Created 'out/wl42_jj00.tsv'.
Created 'out/wl42_jj02.tsv'.
    Testing TwoFAST tests passed 
