Julia Version 1.6.0-DEV.1139
Commit be1f3abcc6 (2020-10-06 02:47 UTC)
Platform Info:
  OS: Linux (x86_64-pc-linux-gnu)
  CPU: AMD EPYC 7502 32-Core Processor
  WORD_SIZE: 64
  LIBM: libopenlibm
  LLVM: libLLVM-10.0.1 (ORCJIT, znver2)
Environment:
  JULIA_DEPOT_PATH = ::/usr/local/share/julia
  JULIA_NUM_THREADS = 2

  Resolving package versions...
  Installed Reexport ───────────────────── v0.2.0
  Installed IntelOpenMP_jll ────────────── v2018.0.3+0
  Installed MKL_jll ────────────────────── v2020.2.254+0
  Installed OpenSpecFun_jll ────────────── v0.5.3+3
  Installed CompilerSupportLibraries_jll ─ v0.3.3+0
  Installed GenericSVD ─────────────────── v0.3.0
  Installed Readables ──────────────────── v0.3.3
  Installed SpecialFunctions ───────────── v0.10.3
  Installed FFTW ───────────────────────── v1.2.4
  Installed BinaryProvider ─────────────── v0.5.10
  Installed ArbNumerics ────────────────── v1.2.1
  Installed FFTW_jll ───────────────────── v3.3.9+5
  Installed GenericSchur ───────────────── v0.4.0
  Installed TwoFAST ────────────────────── v0.1.3
  Installed AbstractFFTs ───────────────── v0.5.0
Updating `~/.julia/environments/v1.6/Project.toml`
  [0dd23c3e] + TwoFAST v0.1.3
Updating `~/.julia/environments/v1.6/Manifest.toml`
  [621f4979] + AbstractFFTs v0.5.0
  [7e558dbc] + ArbNumerics v1.2.1
  [b99e7846] + BinaryProvider v0.5.10
  [e66e0078] + CompilerSupportLibraries_jll v0.3.3+0
  [7a1cc6ca] + FFTW v1.2.4
  [f5851436] + FFTW_jll v3.3.9+5
  [01680d73] + GenericSVD v0.3.0
  [c145ed77] + GenericSchur v0.4.0
  [1d5cc7b8] + IntelOpenMP_jll v2018.0.3+0
  [856f044c] + MKL_jll v2020.2.254+0
  [efe28fd5] + OpenSpecFun_jll v0.5.3+3
  [0d4725de] + Readables v0.3.3
  [189a3867] + Reexport v0.2.0
  [276daf66] + SpecialFunctions v0.10.3
  [0dd23c3e] + TwoFAST v0.1.3
  [56f22d72] + Artifacts
  [2a0f44e3] + Base64
  [ade2ca70] + Dates
  [8bb1440f] + DelimitedFiles
  [8ba89e20] + Distributed
  [b77e0a4c] + InteractiveUtils
  [76f85450] + LibGit2
  [8f399da3] + Libdl
  [37e2e46d] + LinearAlgebra
  [56ddb016] + Logging
  [d6f4376e] + Markdown
  [a63ad114] + Mmap
  [44cfe95a] + Pkg
  [de0858da] + Printf
  [3fa0cd96] + REPL
  [9a3f8284] + Random
  [ea8e919c] + SHA
  [9e88b42a] + Serialization
  [6462fe0b] + Sockets
  [fa267f1f] + TOML
  [8dfed614] + Test
  [cf7118a7] + UUIDs
  [4ec0a83e] + Unicode
   Building ArbNumerics → `~/.julia/scratchspaces/44cfe95a-1eb2-52ea-b672-e2afdf69b78f/329a81d67c64e3a51c176a243b6424fbe39213d0/build.log`
   Building FFTW ───────→ `~/.julia/scratchspaces/44cfe95a-1eb2-52ea-b672-e2afdf69b78f/8b7c16b56936047ca41bf25effa137ae0b381ae8/build.log`
    Testing TwoFAST
Status `/tmp/jl_RVW540/Project.toml`
  [7e558dbc] ArbNumerics v1.2.1
  [39dd38d3] Dierckx v0.5.0
  [7a1cc6ca] FFTW v1.2.4
  [276daf66] SpecialFunctions v0.10.3
  [0dd23c3e] TwoFAST v0.1.3
  [8bb1440f] DelimitedFiles
  [37e2e46d] LinearAlgebra
  [56ddb016] Logging
  [8dfed614] Test
Status `/tmp/jl_RVW540/Manifest.toml`
  [621f4979] AbstractFFTs v0.5.0
  [7e558dbc] ArbNumerics v1.2.1
  [b99e7846] BinaryProvider v0.5.10
  [e66e0078] CompilerSupportLibraries_jll v0.3.3+0
  [39dd38d3] Dierckx v0.5.0
  [cd4c43a9] Dierckx_jll v0.0.1+0
  [7a1cc6ca] FFTW v1.2.4
  [f5851436] FFTW_jll v3.3.9+5
  [01680d73] GenericSVD v0.3.0
  [c145ed77] GenericSchur v0.4.0
  [1d5cc7b8] IntelOpenMP_jll v2018.0.3+0
  [856f044c] MKL_jll v2020.2.254+0
  [efe28fd5] OpenSpecFun_jll v0.5.3+3
  [0d4725de] Readables v0.3.3
  [189a3867] Reexport v0.2.0
  [276daf66] SpecialFunctions v0.10.3
  [0dd23c3e] TwoFAST v0.1.3
  [56f22d72] Artifacts
  [2a0f44e3] Base64
  [ade2ca70] Dates
  [8bb1440f] DelimitedFiles
  [8ba89e20] Distributed
  [b77e0a4c] InteractiveUtils
  [76f85450] LibGit2
  [8f399da3] Libdl
  [37e2e46d] LinearAlgebra
  [56ddb016] Logging
  [d6f4376e] Markdown
  [a63ad114] Mmap
  [44cfe95a] Pkg
  [de0858da] Printf
  [3fa0cd96] REPL
  [9a3f8284] Random
  [ea8e919c] SHA
  [9e88b42a] Serialization
  [6462fe0b] Sockets
  [fa267f1f] TOML
  [8dfed614] Test
  [cf7118a7] UUIDs
  [4ec0a83e] Unicode
    Testing Running tests...
WARNING: could not import Printf.ini_hex into ArbNumerics
WARNING: could not import Printf.ini_HEX into ArbNumerics
t = 0.0 sec (0 allocations: 0 byte, 0.0% gc time)
typeof(t) = NamedTuple{(:value, :time, :bytes, :gctime, :gcstats), Tuple{DataType, Float64, Int64, Float64, Base.GC_Diff}}
TwoFAST.PerformanceStats.TimedType = Union{NamedTuple{(:value, :time, :bytes, :gctime, :gcstats), Tuple{T, Float64, Int64, Float64, Base.GC_Diff}}, Tuple{Any, Float64, Int64, Float64, Base.GC_Diff}} where T
t = 0.0 sec (0 allocations: 0 byte, 0.0% gc time)
t: 0.0 sec (0 allocations: 0 byte, 0.0% gc time)
Testing ξ(r), ℓ=0, ν=-1 ... passed
Testing ξ(r), ℓ=0, ν=0 ... passed
Testing ξ(r), ℓ=0, ν=1 ... passed
Testing ξ(r), ℓ=0, ν=2 ... passed
Testing ξ(r), ℓ=0, ν=3 ... passed
Testing ξ(r), ℓ=1, ν=0 ... passed
Testing ξ(r), ℓ=1, ν=1 ... passed
Testing ξ(r), ℓ=1, ν=2 ... passed
Testing ξ(r), ℓ=1, ν=3 ... passed
Testing ξ(r), ℓ=2, ν=-1 ... passed
Testing ξ(r), ℓ=2, ν=0 ... passed
Testing ξ(r), ℓ=2, ν=1 ... passed
Testing ξ(r), ℓ=2, ν=2 ... passed
Testing ξ(r), ℓ=2, ν=3 ... passed
Testing ξ(r), ℓ=3, ν=-1 ... passed
Testing ξ(r), ℓ=3, ν=0 ... passed
Testing ξ(r), ℓ=3, ν=1 ... passed
Testing ξ(r), ℓ=3, ν=2 ... passed
Testing ξ(r), ℓ=3, ν=3 ... passed
Testing ξ(r), ℓ=4, ν=-1 ... passed
Testing ξ(r), ℓ=4, ν=0 ... passed
Testing ξ(r), ℓ=4, ν=1 ... passed
Testing ξ(r), ℓ=4, ν=2 ... passed
Testing ξ(r), ℓ=4, ν=3 ... passed
Testing ξ(r) ... passed
Testing ξ′(r) ... passed
Testing ξ″(r) ... passed
Calculating fmax: 
  dlrec    = 4
  dlrecRg1 = -4
  q=1.1, R=1.1:	  3.557856 seconds (843.25 k allocations: 53.918 MiB, 92.77% compilation time)

  3.570287 seconds (855.73 k allocations: 54.705 MiB, 92.79% compilation time)
ℓ = 1202
Δℓ = 4
ΔℓRg1 = -4
N = 1600
q = 1.1
kmin = 1.0e-5
kmax = 100000.00000000004
χ0 = 0.023029999999999995
RR = RR.tsv
ℓmax = ℓmax.bin
f21 = f21.bin
kmin = 1.0e-5
kmax = 100000.0
dlrec    = 4
dlrecRg1 = -4
Output size: 5741568 bytes = 0.005347251892089844 GiB
Output size: 51264 bytes = 4.774332046508789e-5 GiB
Reading 'out/F21EllCache'...   0.678554 seconds (426.51 k allocations: 24.996 MiB, 4.90% gc time, 99.45% compilation time)
ellmax: 1202
lmaxcache: 1202
fell[:,1,1] = ComplexF64[3.9583795592771634e-52 - 9.695233714158177e-68im, 3.990121772925759e-52 - 9.772979714843386e-68im]
ell 1202, elapsed: 3.2901763916015625e-5
ell 1201, elapsed: 1.1804299354553223
ell 1200, elapsed: 0.0004150867462158203
ell 1199, elapsed: 0.0003819465637207031
ell 1198, elapsed: 0.0003871917724609375
ell 1002, elapsed: 0.01248311996459961
ell 1001, elapsed: 0.000392913818359375
ell 1000, elapsed: 0.0003829002380371094
ell 999, elapsed: 0.0003800392150878906
ell 998, elapsed: 0.0004150867462158203
ell 902, elapsed: 0.0043179988861083984
ell 901, elapsed: 0.0003960132598876953
ell 900, elapsed: 0.00038695335388183594
ell 899, elapsed: 0.0003879070281982422
ell 898, elapsed: 0.0003819465637207031
ell 802, elapsed: 0.004431962966918945
ell 801, elapsed: 0.00039887428283691406
ell 800, elapsed: 0.00038504600524902344
ell 799, elapsed: 0.0007388591766357422
ell 798, elapsed: 0.00038886070251464844
ell 702, elapsed: 0.004697084426879883
ell 701, elapsed: 0.00038504600524902344
ell 700, elapsed: 0.0003731250762939453
ell 699, elapsed: 0.0003719329833984375
ell 698, elapsed: 0.00038814544677734375
ell 602, elapsed: 0.004645824432373047
ell 601, elapsed: 0.0005660057067871094
ell 600, elapsed: 0.00042891502380371094
ell 599, elapsed: 0.00038313865661621094
ell 598, elapsed: 0.00038504600524902344
ell 502, elapsed: 0.004494905471801758
ell 501, elapsed: 0.0005371570587158203
ell 500, elapsed: 0.00044798851013183594
ell 499, elapsed: 0.0004410743713378906
ell 498, elapsed: 0.00046706199645996094
ell 402, elapsed: 0.004515886306762695
ell 401, elapsed: 0.0003941059112548828
ell 400, elapsed: 0.00038504600524902344
ell 399, elapsed: 0.0003859996795654297
ell 398, elapsed: 0.00038313865661621094
ell 302, elapsed: 0.00441288948059082
ell 301, elapsed: 0.0003972053527832031
ell 300, elapsed: 0.00038886070251464844
ell 299, elapsed: 0.0005729198455810547
ell 298, elapsed: 0.0003941059112548828
ell 202, elapsed: 0.004392147064208984
ell 201, elapsed: 0.0003948211669921875
ell 200, elapsed: 0.00038695335388183594
ell 199, elapsed: 0.00038814544677734375
ell 198, elapsed: 0.0003838539123535156
ell 152, elapsed: 0.0024099349975585938
ell 151, elapsed: 0.00038313865661621094
ell 150, elapsed: 0.0003879070281982422
ell 149, elapsed: 0.00039005279541015625
ell 148, elapsed: 0.00038504600524902344
ell 127, elapsed: 0.00127410888671875
ell 126, elapsed: 0.00038909912109375
ell 125, elapsed: 0.0003859996795654297
ell 124, elapsed: 0.0003809928894042969
ell 123, elapsed: 0.00037789344787597656
ell 114, elapsed: 0.0007770061492919922
ell 113, elapsed: 0.0003840923309326172
ell 112, elapsed: 0.0003819465637207031
ell 111, elapsed: 0.00038313865661621094
ell 110, elapsed: 0.00042891502380371094
ell 102, elapsed: 0.0008399486541748047
ell 101, elapsed: 0.00038313865661621094
ell 100, elapsed: 0.00038909912109375
ell 99, elapsed: 0.0003859996795654297
ell 98, elapsed: 0.0003838539123535156
ell 97, elapsed: 0.00044798851013183594
ell 96, elapsed: 0.0004298686981201172
ell 95, elapsed: 0.00043392181396484375
ell 94, elapsed: 0.0005888938903808594
ell 93, elapsed: 0.0004279613494873047
ell 92, elapsed: 0.00043487548828125
ell 91, elapsed: 0.00043511390686035156
ell 90, elapsed: 0.0004420280456542969
ell 89, elapsed: 0.0004470348358154297
ell 88, elapsed: 0.0004379749298095703
ell 87, elapsed: 0.0004420280456542969
ell 86, elapsed: 0.0005800724029541016
ell 85, elapsed: 0.0004620552062988281
ell 84, elapsed: 0.0004642009735107422
ell 83, elapsed: 0.000453948974609375
ell 82, elapsed: 0.0004630088806152344
ell 81, elapsed: 0.00045299530029296875
ell 80, elapsed: 0.0004658699035644531
ell 79, elapsed: 0.00045800209045410156
ell 78, elapsed: 0.0004811286926269531
ell 77, elapsed: 0.0004949569702148438
ell 76, elapsed: 0.0004849433898925781
ell 75, elapsed: 0.0004909038543701172
ell 74, elapsed: 0.0004909038543701172
ell 73, elapsed: 0.0004811286926269531
ell 72, elapsed: 0.0004439353942871094
ell 71, elapsed: 0.00043702125549316406
ell 70, elapsed: 0.0005331039428710938
ell 69, elapsed: 0.0004439353942871094
ell 68, elapsed: 0.0004401206970214844
ell 67, elapsed: 0.0004439353942871094
ell 66, elapsed: 0.00043702125549316406
ell 65, elapsed: 0.0004329681396484375
ell 64, elapsed: 0.0004558563232421875
ell 63, elapsed: 0.0004420280456542969
ell 62, elapsed: 0.0004489421844482422
ell 61, elapsed: 0.0006470680236816406
ell 60, elapsed: 0.0004971027374267578
ell 59, elapsed: 0.0004889965057373047
ell 58, elapsed: 0.0004930496215820312
ell 57, elapsed: 0.0004439353942871094
ell 56, elapsed: 0.0004398822784423828
ell 55, elapsed: 0.0004420280456542969
ell 54, elapsed: 0.00043892860412597656
ell 53, elapsed: 0.0005171298980712891
ell 52, elapsed: 0.0004420280456542969
ell 51, elapsed: 0.0004329681396484375
ell 50, elapsed: 0.0004391670227050781
ell 49, elapsed: 0.0004360675811767578
ell 48, elapsed: 0.00043320655822753906
ell 47, elapsed: 0.0004398822784423828
ell 46, elapsed: 0.0004329681396484375
ell 45, elapsed: 0.0005800724029541016
ell 44, elapsed: 0.00043392181396484375
ell 43, elapsed: 0.0004329681396484375
ell 42, elapsed: 0.0004391670227050781
ell 41, elapsed: 0.0005018711090087891
ell 40, elapsed: 0.0004360675811767578
ell 39, elapsed: 0.00044798851013183594
ell 38, elapsed: 0.00043892860412597656
ell 37, elapsed: 0.0005707740783691406
ell 36, elapsed: 0.0004417896270751953
ell 35, elapsed: 0.0004398822784423828
ell 34, elapsed: 0.0004360675811767578
ell 33, elapsed: 0.0004470348358154297
ell 32, elapsed: 0.0004451274871826172
ell 31, elapsed: 0.00043392181396484375
ell 30, elapsed: 0.0004439353942871094
ell 29, elapsed: 0.00043892860412597656
ell 28, elapsed: 0.0005979537963867188
ell 27, elapsed: 0.0004990100860595703
ell 26, elapsed: 0.00043702125549316406
ell 25, elapsed: 0.0004489421844482422
ell 24, elapsed: 0.0004420280456542969
ell 23, elapsed: 0.0004401206970214844
ell 22, elapsed: 0.00044417381286621094
ell 21, elapsed: 0.0004298686981201172
ell 20, elapsed: 0.0006029605865478516
ell 19, elapsed: 0.0004878044128417969
ell 18, elapsed: 0.0004889965057373047
ell 17, elapsed: 0.0004839897155761719
ell 16, elapsed: 0.0004820823669433594
ell 15, elapsed: 0.0004940032958984375
ell 14, elapsed: 0.0004849433898925781
ell 13, elapsed: 0.00048804283142089844
ell 12, elapsed: 0.0005140304565429688
ell 11, elapsed: 0.00047898292541503906
ell 10, elapsed: 0.0004849433898925781
ell 9, elapsed: 0.0004870891571044922
ell 8, elapsed: 0.00044798851013183594
ell 7, elapsed: 0.00043582916259765625
ell 6, elapsed: 0.0004410743713378906
ell 5, elapsed: 0.00044083595275878906
ell 4, elapsed: 0.0005769729614257812
ell 3, elapsed: 0.0004417896270751953
ell 2, elapsed: 0.00042891502380371094
ell 1, elapsed: 0.00043010711669921875
ell 0, elapsed: 0.0004410743713378906
  1.752403 seconds (1.38 M allocations: 74.481 MiB, 2.52% gc time, 92.74% compilation time)
elapsed: 0.0005040168762207031
step:          0.328852 sec (311.14 k allocations: 16.963 MB, 0.0% gc time)
swapping:      0.000349 sec (0 allocations: 0 byte, 0.0% gc time)
calc_Mellell!: 0.132936 sec (135.739 k allocations: 7.431 MB, 0.0% gc time)
  t0 :  0.0 sec (0 allocations: 0 byte, 0.0% gc time)
  tm2 : 0.0 sec (0 allocations: 0 byte, 0.0% gc time)
  tm2s: 0.0 sec (0 allocations: 0 byte, 0.0% gc time)
  tm4 : 0.0 sec (0 allocations: 0 byte, 0.0% gc time)
  tp2 : 0.0 sec (0 allocations: 0 byte, 0.0% gc time)
  tp2s: 0.0 sec (0 allocations: 0 byte, 0.0% gc time)
  tp4 : 0.0 sec (0 allocations: 0 byte, 0.0% gc time)
calc_wtdll!:   0.829867 sec (509.624 k allocations: 28.198 MB, 2.81% gc time)
calc_wljj!:    0.002499 sec (6 allocations: 96 byte, 0.0% gc time)
mult_prefac!:  0.0 sec (0 allocations: 0 byte, 0.0% gc time)
convert:       0.0 sec (0 allocations: 0 byte, 0.0% gc time)
write:         0.003345 sec (0 allocations: 0 byte, 0.0% gc time)
test_rand_2f1: 0.0 sec (0 allocations: 0 byte, 0.0% gc time)
Closing outfile out/Ml21-cache.bin...   0.000013 seconds
  0.939900 seconds (246.35 k allocations: 14.216 MiB, 40.12% compilation time)
make_phi():   0.008611 seconds (8.18 k allocations: 237.844 KiB)
  0.239490 seconds (87.57 k allocations: 4.749 MiB, 7.24% gc time, 95.28% compilation time)
tskip:       1.6e-5 sec (0 allocations: 0 byte, 0.0% gc time)
tread:       0.002022 sec (17 allocations: 2.125 KB, 0.0% gc time)
tmultphi:    0.037675 sec (21.425 k allocations: 1.287 MB, 0.0% gc time)
tbrfft:      0.003224 sec (0 allocations: 0 byte, 0.0% gc time)
tmultprefac: 0.001399 sec (0 allocations: 0 byte, 0.0% gc time)
toutfunc:    0.158188 sec (64.483 k allocations: 3.33 MB, 10.96% gc time)
Testing R=1.1 ... passed
Calculating fmax: 
  dlrec    = 4
  dlrecRg1 = -4
  q=1.1, R=1.0:	  0.001210 seconds (3.20 k allocations: 275.344 KiB)

  0.001301 seconds (3.25 k allocations: 309.984 KiB)
ℓ = 1202
Δℓ = 4
ΔℓRg1 = -4
N = 1600
q = 1.1
kmin = 1.0e-5
kmax = 100000.00000000004
χ0 = 0.023029999999999995
RR = RR.tsv
ℓmax = ℓmax.bin
f21 = f21.bin
kmin = 1.0e-5
kmax = 100000.0
dlrec    = 4
dlrecRg1 = -4
Output size: 61465536 bytes = 0.05724424123764038 GiB
Output size: 51264 bytes = 4.774332046508789e-5 GiB
Reading 'out/F21EllCache'...   0.000875 seconds (197 allocations: 84.203 KiB)
ellmax: 1202
lmaxcache: 1202
fell[:,1,1] = ComplexF64[809.6031528389767 - 1.9829558194077161e-13im, 0.0 + 0.0im]
ell 1202, elapsed: 1.4066696166992188e-5
ell 1201, elapsed: 0.012701034545898438
ell 1200, elapsed: 0.013245820999145508
ell 1199, elapsed: 0.00027298927307128906
ell 1198, elapsed: 0.00025916099548339844
ell 1197, elapsed: 0.0003261566162109375
ell 1196, elapsed: 0.00030994415283203125
ell 1195, elapsed: 0.0002999305725097656
ell 1194, elapsed: 0.0003409385681152344
ell 1193, elapsed: 0.00031304359436035156
ell 1192, elapsed: 0.0003008842468261719
ell 1191, elapsed: 0.0002980232238769531
ell 1190, elapsed: 0.000308990478515625
ell 1189, elapsed: 0.0002989768981933594
ell 1188, elapsed: 0.0003039836883544922
ell 1187, elapsed: 0.0003199577331542969
ell 1186, elapsed: 0.0002989768981933594
ell 1185, elapsed: 0.00032401084899902344
ell 1184, elapsed: 0.0002989768981933594
ell 1183, elapsed: 0.00031495094299316406
ell 1182, elapsed: 0.0003440380096435547
ell 1181, elapsed: 0.0003170967102050781
ell 1180, elapsed: 0.0002961158752441406
ell 1179, elapsed: 0.00030493736267089844
ell 1178, elapsed: 0.00032806396484375
ell 1177, elapsed: 0.000308990478515625
ell 1176, elapsed: 0.0003299713134765625
ell 1175, elapsed: 0.00030994415283203125
ell 1174, elapsed: 0.00031304359436035156
ell 1173, elapsed: 0.00032401084899902344
ell 1172, elapsed: 0.00030994415283203125
ell 1171, elapsed: 0.0003218650817871094
ell 1170, elapsed: 0.0003581047058105469
ell 1169, elapsed: 0.00030994415283203125
ell 1168, elapsed: 0.0003161430358886719
ell 1167, elapsed: 0.0002999305725097656
ell 1166, elapsed: 0.0003008842468261719
ell 1165, elapsed: 0.0002970695495605469
ell 1164, elapsed: 0.0002949237823486328
ell 1163, elapsed: 0.0003027915954589844
ell 1162, elapsed: 0.0002949237823486328
ell 1161, elapsed: 0.00030303001403808594
ell 1160, elapsed: 0.0003008842468261719
ell 1159, elapsed: 0.00032401084899902344
ell 1158, elapsed: 0.00036406517028808594
ell 1157, elapsed: 0.0003039836883544922
ell 1156, elapsed: 0.0003190040588378906
ell 1155, elapsed: 0.00031304359436035156
ell 1154, elapsed: 0.00029778480529785156
ell 1153, elapsed: 0.00031495094299316406
ell 1152, elapsed: 0.00031113624572753906
ell 1151, elapsed: 0.0003151893615722656
ell 1150, elapsed: 0.0003039836883544922
ell 1149, elapsed: 0.0003070831298828125
ell 1148, elapsed: 0.0003101825714111328
ell 1147, elapsed: 0.0003190040588378906
ell 1146, elapsed: 0.00032806396484375
ell 1145, elapsed: 0.0003120899200439453
ell 1144, elapsed: 0.0002989768981933594
ell 1143, elapsed: 0.00029397010803222656
ell 1142, elapsed: 0.000286102294921875
ell 1141, elapsed: 0.0003020763397216797
ell 1140, elapsed: 0.00028896331787109375
ell 1139, elapsed: 0.0002830028533935547
ell 1138, elapsed: 0.0002930164337158203
ell 1137, elapsed: 0.0002918243408203125
ell 1136, elapsed: 0.0003058910369873047
ell 1135, elapsed: 0.0003039836883544922
ell 1134, elapsed: 0.0002970695495605469
ell 1133, elapsed: 0.00032210350036621094
ell 1132, elapsed: 0.0002918243408203125
ell 1131, elapsed: 0.000308990478515625
ell 1130, elapsed: 0.0002999305725097656
ell 1129, elapsed: 0.00029587745666503906
ell 1128, elapsed: 0.00032806396484375
ell 1127, elapsed: 0.0003070831298828125
ell 1126, elapsed: 0.00030422210693359375
ell 1125, elapsed: 0.0002968311309814453
ell 1124, elapsed: 0.0003020763397216797
ell 1123, elapsed: 0.0003039836883544922
ell 1122, elapsed: 0.0002980232238769531
ell 1121, elapsed: 0.0003619194030761719
ell 1120, elapsed: 0.0002970695495605469
ell 1119, elapsed: 0.0003070831298828125
ell 1118, elapsed: 0.0003027915954589844
ell 1117, elapsed: 0.0003209114074707031
ell 1116, elapsed: 0.0003108978271484375
ell 1115, elapsed: 0.00028586387634277344
ell 1114, elapsed: 0.0002911090850830078
ell 1113, elapsed: 0.0002930164337158203
ell 1112, elapsed: 0.0002980232238769531
ell 1111, elapsed: 0.0003020763397216797
ell 1110, elapsed: 0.0002930164337158203
ell 1109, elapsed: 0.0002999305725097656
ell 1108, elapsed: 0.0003230571746826172
ell 1107, elapsed: 0.0002961158752441406
ell 1106, elapsed: 0.0003159046173095703
ell 1105, elapsed: 0.00030112266540527344
ell 1104, elapsed: 0.00030303001403808594
ell 1103, elapsed: 0.00030493736267089844
ell 1102, elapsed: 0.00030803680419921875
ell 1101, elapsed: 0.0003108978271484375
ell 1100, elapsed: 0.0003039836883544922
ell 1099, elapsed: 0.00031304359436035156
ell 1098, elapsed: 0.0002999305725097656
ell 1097, elapsed: 0.0002899169921875
ell 1096, elapsed: 0.00032591819763183594
ell 1095, elapsed: 0.000308990478515625
ell 1094, elapsed: 0.0003139972686767578
ell 1093, elapsed: 0.0003108978271484375
ell 1092, elapsed: 0.0003018379211425781
ell 1091, elapsed: 0.00031280517578125
ell 1090, elapsed: 0.00031304359436035156
ell 1089, elapsed: 0.0003170967102050781
ell 1088, elapsed: 0.00030612945556640625
ell 1087, elapsed: 0.00030303001403808594
ell 1086, elapsed: 0.0003101825714111328
ell 1085, elapsed: 0.00030112266540527344
ell 1084, elapsed: 0.0003578662872314453
ell 1083, elapsed: 0.00029087066650390625
ell 1082, elapsed: 0.0002830028533935547
ell 1081, elapsed: 0.00029206275939941406
ell 1080, elapsed: 0.00029587745666503906
ell 1079, elapsed: 0.00030803680419921875
ell 1078, elapsed: 0.0003020763397216797
ell 1077, elapsed: 0.00030612945556640625
ell 1076, elapsed: 0.0003190040588378906
ell 1075, elapsed: 0.0002980232238769531
ell 1074, elapsed: 0.0003120899200439453
ell 1073, elapsed: 0.0002961158752441406
ell 1072, elapsed: 0.0003230571746826172
ell 1071, elapsed: 0.00033402442932128906
ell 1070, elapsed: 0.00031185150146484375
ell 1069, elapsed: 0.0003190040588378906
ell 1068, elapsed: 0.0003170967102050781
ell 1067, elapsed: 0.0003139972686767578
ell 1066, elapsed: 0.00032401084899902344
ell 1065, elapsed: 0.0003180503845214844
ell 1064, elapsed: 0.00033402442932128906
ell 1063, elapsed: 0.0003108978271484375
ell 1062, elapsed: 0.0003209114074707031
ell 1061, elapsed: 0.00031185150146484375
ell 1060, elapsed: 0.0003249645233154297
ell 1059, elapsed: 0.00036907196044921875
ell 1058, elapsed: 0.00031495094299316406
ell 1057, elapsed: 0.0003249645233154297
ell 1056, elapsed: 0.00030803680419921875
ell 1055, elapsed: 0.000308990478515625
ell 1054, elapsed: 0.00032711029052734375
ell 1053, elapsed: 0.0003101825714111328
ell 1052, elapsed: 0.00030994415283203125
ell 1051, elapsed: 0.0003159046173095703
ell 1050, elapsed: 0.0002980232238769531
ell 1049, elapsed: 0.00030612945556640625
ell 1048, elapsed: 0.0004019737243652344
ell 1047, elapsed: 0.00030493736267089844
ell 1046, elapsed: 0.0002970695495605469
ell 1045, elapsed: 0.00030422210693359375
ell 1044, elapsed: 0.00031495094299316406
ell 1043, elapsed: 0.00030612945556640625
ell 1042, elapsed: 0.00030612945556640625
ell 1041, elapsed: 0.00030112266540527344
ell 1040, elapsed: 0.0002999305725097656
ell 1039, elapsed: 0.0003230571746826172
ell 1038, elapsed: 0.00030112266540527344
ell 1037, elapsed: 0.0003070831298828125
ell 1036, elapsed: 0.0003001689910888672
ell 1035, elapsed: 0.0003249645233154297
ell 1034, elapsed: 0.00031685829162597656
ell 1033, elapsed: 0.00031185150146484375
ell 1032, elapsed: 0.00031304359436035156
ell 1031, elapsed: 0.00030994415283203125
ell 1030, elapsed: 0.0003070831298828125
ell 1029, elapsed: 0.00031495094299316406
ell 1028, elapsed: 0.0003008842468261719
ell 1027, elapsed: 0.0003159046173095703
ell 1026, elapsed: 0.00031304359436035156
ell 1025, elapsed: 0.00030493736267089844
ell 1024, elapsed: 0.00031685829162597656
ell 1023, elapsed: 0.00034809112548828125
ell 1022, elapsed: 0.00030803680419921875
ell 1021, elapsed: 0.000308990478515625
ell 1020, elapsed: 0.00031685829162597656
ell 1019, elapsed: 0.0002989768981933594
ell 1018, elapsed: 0.0002949237823486328
ell 1017, elapsed: 0.00031685829162597656
ell 1016, elapsed: 0.0003070831298828125
ell 1015, elapsed: 0.0003139972686767578
ell 1014, elapsed: 0.0002989768981933594
ell 1013, elapsed: 0.0002989768981933594
ell 1012, elapsed: 0.0003180503845214844
ell 1011, elapsed: 0.0003299713134765625
ell 1010, elapsed: 0.0003039836883544922
ell 1009, elapsed: 0.00030994415283203125
ell 1008, elapsed: 0.00030303001403808594
ell 1007, elapsed: 0.00030517578125
ell 1006, elapsed: 0.0003020763397216797
ell 1005, elapsed: 0.00031495094299316406
ell 1004, elapsed: 0.0003008842468261719
ell 1003, elapsed: 0.0003070831298828125
ell 1002, elapsed: 0.0003211498260498047
ell 1001, elapsed: 0.00030303001403808594
ell 1000, elapsed: 0.0003161430358886719
ell 999, elapsed: 0.004395961761474609
ell 998, elapsed: 0.0003139972686767578
ell 997, elapsed: 0.0003161430358886719
ell 996, elapsed: 0.0003039836883544922
ell 995, elapsed: 0.00030684471130371094
ell 994, elapsed: 0.0003139972686767578
ell 993, elapsed: 0.0003120899200439453
ell 992, elapsed: 0.0003190040588378906
ell 991, elapsed: 0.0003058910369873047
ell 990, elapsed: 0.00030112266540527344
ell 989, elapsed: 0.0002999305725097656
ell 988, elapsed: 0.00030684471130371094
ell 987, elapsed: 0.0003361701965332031
ell 986, elapsed: 0.00030803680419921875
ell 985, elapsed: 0.00030493736267089844
ell 984, elapsed: 0.00030612945556640625
ell 983, elapsed: 0.00032901763916015625
ell 982, elapsed: 0.000308990478515625
ell 981, elapsed: 0.0003218650817871094
ell 980, elapsed: 0.00030994415283203125
ell 979, elapsed: 0.00030493736267089844
ell 978, elapsed: 0.0003199577331542969
ell 977, elapsed: 0.00030493736267089844
ell 976, elapsed: 0.0002951622009277344
ell 975, elapsed: 0.0003452301025390625
ell 974, elapsed: 0.0003209114074707031
ell 973, elapsed: 0.0003230571746826172
ell 972, elapsed: 0.0002970695495605469
ell 971, elapsed: 0.0003039836883544922
ell 970, elapsed: 0.0003190040588378906
ell 969, elapsed: 0.0003058910369873047
ell 968, elapsed: 0.0002951622009277344
ell 967, elapsed: 0.00028705596923828125
ell 966, elapsed: 0.0002849102020263672
ell 965, elapsed: 0.0003020763397216797
ell 964, elapsed: 0.00030493736267089844
ell 963, elapsed: 0.0003399848937988281
ell 962, elapsed: 0.00030994415283203125
ell 961, elapsed: 0.00030612945556640625
ell 960, elapsed: 0.00030493736267089844
ell 959, elapsed: 0.00031876564025878906
ell 958, elapsed: 0.00031495094299316406
ell 957, elapsed: 0.00031113624572753906
ell 956, elapsed: 0.0003190040588378906
ell 955, elapsed: 0.0003070831298828125
ell 954, elapsed: 0.0003211498260498047
ell 953, elapsed: 0.0003139972686767578
ell 952, elapsed: 0.0003161430358886719
ell 951, elapsed: 0.00036406517028808594
ell 950, elapsed: 0.0003178119659423828
ell 949, elapsed: 0.00031495094299316406
ell 948, elapsed: 0.00032806396484375
ell 947, elapsed: 0.0003180503845214844
ell 946, elapsed: 0.0003199577331542969
ell 945, elapsed: 0.0003190040588378906
ell 944, elapsed: 0.0003039836883544922
ell 943, elapsed: 0.0003199577331542969
ell 942, elapsed: 0.0003058910369873047
ell 941, elapsed: 0.0003039836883544922
ell 940, elapsed: 0.00030803680419921875
ell 939, elapsed: 0.0003268718719482422
ell 938, elapsed: 0.00031304359436035156
ell 937, elapsed: 0.0003180503845214844
ell 936, elapsed: 0.0003199577331542969
ell 935, elapsed: 0.0003190040588378906
ell 934, elapsed: 0.00030612945556640625
ell 933, elapsed: 0.0003159046173095703
ell 932, elapsed: 0.00030612945556640625
ell 931, elapsed: 0.00030803680419921875
ell 930, elapsed: 0.0003039836883544922
ell 929, elapsed: 0.00030994415283203125
ell 928, elapsed: 0.0003039836883544922
ell 927, elapsed: 0.0003368854522705078
ell 926, elapsed: 0.00030994415283203125
ell 925, elapsed: 0.000308990478515625
ell 924, elapsed: 0.00030994415283203125
ell 923, elapsed: 0.00030493736267089844
ell 922, elapsed: 0.0003190040588378906
ell 921, elapsed: 0.0003180503845214844
ell 920, elapsed: 0.00030994415283203125
ell 919, elapsed: 0.00033402442932128906
ell 918, elapsed: 0.0003139972686767578
ell 917, elapsed: 0.0003020763397216797
ell 916, elapsed: 0.00031304359436035156
ell 915, elapsed: 0.0003490447998046875
ell 914, elapsed: 0.0002961158752441406
ell 913, elapsed: 0.00029397010803222656
ell 912, elapsed: 0.0002989768981933594
ell 911, elapsed: 0.0003120899200439453
ell 910, elapsed: 0.0002999305725097656
ell 909, elapsed: 0.0003170967102050781
ell 908, elapsed: 0.0003008842468261719
ell 907, elapsed: 0.00030684471130371094
ell 906, elapsed: 0.0003070831298828125
ell 905, elapsed: 0.0002980232238769531
ell 904, elapsed: 0.0003120899200439453
ell 903, elapsed: 0.00030493736267089844
ell 902, elapsed: 0.00033092498779296875
ell 901, elapsed: 0.00030493736267089844
ell 900, elapsed: 0.0002980232238769531
ell 899, elapsed: 0.00030493736267089844
ell 898, elapsed: 0.0002989768981933594
ell 897, elapsed: 0.0002999305725097656
ell 896, elapsed: 0.0003039836883544922
ell 895, elapsed: 0.00032401084899902344
ell 894, elapsed: 0.0003299713134765625
ell 893, elapsed: 0.00029397010803222656
ell 892, elapsed: 0.00030112266540527344
ell 891, elapsed: 0.0002949237823486328
ell 890, elapsed: 0.00032901763916015625
ell 889, elapsed: 0.00030112266540527344
ell 888, elapsed: 0.0002970695495605469
ell 887, elapsed: 0.0002999305725097656
ell 886, elapsed: 0.0002949237823486328
ell 885, elapsed: 0.00029015541076660156
ell 884, elapsed: 0.0003020763397216797
ell 883, elapsed: 0.00029206275939941406
ell 882, elapsed: 0.0002999305725097656
ell 881, elapsed: 0.0003020763397216797
ell 880, elapsed: 0.00029587745666503906
ell 879, elapsed: 0.0002999305725097656
ell 878, elapsed: 0.00029587745666503906
ell 877, elapsed: 0.0003337860107421875
ell 876, elapsed: 0.0003008842468261719
ell 875, elapsed: 0.0003027915954589844
ell 874, elapsed: 0.0003058910369873047
ell 873, elapsed: 0.0003001689910888672
ell 872, elapsed: 0.00030612945556640625
ell 871, elapsed: 0.00030112266540527344
ell 870, elapsed: 0.0003020763397216797
ell 869, elapsed: 0.00031495094299316406
ell 868, elapsed: 0.00030303001403808594
ell 867, elapsed: 0.00030994415283203125
ell 866, elapsed: 0.0002930164337158203
ell 865, elapsed: 0.0003559589385986328
ell 864, elapsed: 0.0002980232238769531
ell 863, elapsed: 0.0003039836883544922
ell 862, elapsed: 0.0003120899200439453
ell 861, elapsed: 0.0002980232238769531
ell 860, elapsed: 0.000308990478515625
ell 859, elapsed: 0.0003070831298828125
ell 858, elapsed: 0.0002949237823486328
ell 857, elapsed: 0.00030493736267089844
ell 856, elapsed: 0.00029921531677246094
ell 855, elapsed: 0.0002980232238769531
ell 854, elapsed: 0.00029397010803222656
ell 853, elapsed: 0.00032901763916015625
ell 852, elapsed: 0.0003120899200439453
ell 851, elapsed: 0.00030493736267089844
ell 850, elapsed: 0.0003170967102050781
ell 849, elapsed: 0.00030112266540527344
ell 848, elapsed: 0.00030303001403808594
ell 847, elapsed: 0.0003190040588378906
ell 846, elapsed: 0.00030303001403808594
ell 845, elapsed: 0.00031304359436035156
ell 844, elapsed: 0.0003001689910888672
ell 843, elapsed: 0.0003020763397216797
ell 842, elapsed: 0.00031495094299316406
ell 841, elapsed: 0.0003039836883544922
ell 840, elapsed: 0.00030994415283203125
ell 839, elapsed: 0.0003020763397216797
ell 838, elapsed: 0.0002970695495605469
ell 837, elapsed: 0.00030803680419921875
ell 836, elapsed: 0.0002999305725097656
ell 835, elapsed: 0.00030612945556640625
ell 834, elapsed: 0.00030112266540527344
ell 833, elapsed: 0.0003070831298828125
ell 832, elapsed: 0.0002989768981933594
ell 831, elapsed: 0.00029587745666503906
ell 830, elapsed: 0.0003039836883544922
ell 829, elapsed: 0.0002970695495605469
ell 828, elapsed: 0.0003440380096435547
ell 827, elapsed: 0.0002961158752441406
ell 826, elapsed: 0.0002989768981933594
ell 825, elapsed: 0.0003018379211425781
ell 824, elapsed: 0.0002989768981933594
ell 823, elapsed: 0.00030517578125
ell 822, elapsed: 0.0002999305725097656
ell 821, elapsed: 0.0002970695495605469
ell 820, elapsed: 0.00030803680419921875
ell 819, elapsed: 0.00030303001403808594
ell 818, elapsed: 0.00030612945556640625
ell 817, elapsed: 0.0002989768981933594
ell 816, elapsed: 0.0003299713134765625
ell 815, elapsed: 0.00030493736267089844
ell 814, elapsed: 0.00030517578125
ell 813, elapsed: 0.00030994415283203125
ell 812, elapsed: 0.0002999305725097656
ell 811, elapsed: 0.00029397010803222656
ell 810, elapsed: 0.000308990478515625
ell 809, elapsed: 0.00029587745666503906
ell 808, elapsed: 0.00030684471130371094
ell 807, elapsed: 0.0003058910369873047
ell 806, elapsed: 0.0003039836883544922
ell 805, elapsed: 0.00029397010803222656
ell 804, elapsed: 0.0003020763397216797
ell 803, elapsed: 0.0003428459167480469
ell 802, elapsed: 0.0002989768981933594
ell 801, elapsed: 0.0003039836883544922
ell 800, elapsed: 0.0002961158752441406
ell 799, elapsed: 0.0003001689910888672
ell 798, elapsed: 0.0003039836883544922
ell 797, elapsed: 0.00029921531677246094
ell 796, elapsed: 0.00030303001403808594
ell 795, elapsed: 0.0002989768981933594
ell 794, elapsed: 0.0002949237823486328
ell 793, elapsed: 0.0003039836883544922
ell 792, elapsed: 0.0002961158752441406
ell 791, elapsed: 0.0003781318664550781
ell 790, elapsed: 0.0003039836883544922
ell 789, elapsed: 0.0003039836883544922
ell 788, elapsed: 0.0003058910369873047
ell 787, elapsed: 0.0002968311309814453
ell 786, elapsed: 0.0002999305725097656
ell 785, elapsed: 0.0002951622009277344
ell 784, elapsed: 0.00029397010803222656
ell 783, elapsed: 0.0002999305725097656
ell 782, elapsed: 0.0002968311309814453
ell 781, elapsed: 0.00030303001403808594
ell 780, elapsed: 0.0002930164337158203
ell 779, elapsed: 0.00030303001403808594
ell 778, elapsed: 0.0003349781036376953
ell 777, elapsed: 0.0003039836883544922
ell 776, elapsed: 0.00030803680419921875
ell 775, elapsed: 0.0002999305725097656
ell 774, elapsed: 0.0003161430358886719
ell 773, elapsed: 0.0003039836883544922
ell 772, elapsed: 0.00030303001403808594
ell 771, elapsed: 0.00030994415283203125
ell 770, elapsed: 0.00029397010803222656
ell 769, elapsed: 0.0002980232238769531
ell 768, elapsed: 0.0002930164337158203
ell 767, elapsed: 0.0002899169921875
ell 766, elapsed: 0.0003371238708496094
ell 765, elapsed: 0.0002930164337158203
ell 764, elapsed: 0.0002999305725097656
ell 763, elapsed: 0.0002899169921875
ell 762, elapsed: 0.0002968311309814453
ell 761, elapsed: 0.0002968311309814453
ell 760, elapsed: 0.0002930164337158203
ell 759, elapsed: 0.0002999305725097656
ell 758, elapsed: 0.0002970695495605469
ell 757, elapsed: 0.0002999305725097656
ell 756, elapsed: 0.0003001689910888672
ell 755, elapsed: 0.0002980232238769531
ell 754, elapsed: 0.0003070831298828125
ell 753, elapsed: 0.0003190040588378906
ell 752, elapsed: 0.0002949237823486328
ell 751, elapsed: 0.0002980232238769531
ell 750, elapsed: 0.0002980232238769531
ell 749, elapsed: 0.0003020763397216797
ell 748, elapsed: 0.00030612945556640625
ell 747, elapsed: 0.0002970695495605469
ell 746, elapsed: 0.0003058910369873047
ell 745, elapsed: 0.0002930164337158203
ell 744, elapsed: 0.0002989768981933594
ell 743, elapsed: 0.0002970695495605469
ell 742, elapsed: 0.0003039836883544922
ell 741, elapsed: 0.00032591819763183594
ell 740, elapsed: 0.00030303001403808594
ell 739, elapsed: 0.000308990478515625
ell 738, elapsed: 0.00030803680419921875
ell 737, elapsed: 0.0003101825714111328
ell 736, elapsed: 0.00030303001403808594
ell 735, elapsed: 0.0003039836883544922
ell 734, elapsed: 0.0003027915954589844
ell 733, elapsed: 0.0002989768981933594
ell 732, elapsed: 0.00030303001403808594
ell 731, elapsed: 0.0002980232238769531
ell 730, elapsed: 0.0002949237823486328
ell 729, elapsed: 0.0003018379211425781
ell 728, elapsed: 0.000308990478515625
ell 727, elapsed: 0.0003058910369873047
ell 726, elapsed: 0.0002980232238769531
ell 725, elapsed: 0.0002999305725097656
ell 724, elapsed: 0.0003027915954589844
ell 723, elapsed: 0.0003018379211425781
ell 722, elapsed: 0.00030493736267089844
ell 721, elapsed: 0.0003020763397216797
ell 720, elapsed: 0.0003070831298828125
ell 719, elapsed: 0.00030994415283203125
ell 718, elapsed: 0.0003039836883544922
ell 717, elapsed: 0.00038504600524902344
ell 716, elapsed: 0.0003058910369873047
ell 715, elapsed: 0.0003077983856201172
ell 714, elapsed: 0.0002989768981933594
ell 713, elapsed: 0.0002961158752441406
ell 712, elapsed: 0.0002999305725097656
ell 711, elapsed: 0.00029206275939941406
ell 710, elapsed: 0.0003020763397216797
ell 709, elapsed: 0.0002951622009277344
ell 708, elapsed: 0.0002961158752441406
ell 707, elapsed: 0.0002980232238769531
ell 706, elapsed: 0.0002980232238769531
ell 705, elapsed: 0.0003020763397216797
ell 704, elapsed: 0.0003368854522705078
ell 703, elapsed: 0.0003018379211425781
ell 702, elapsed: 0.00030303001403808594
ell 701, elapsed: 0.0002961158752441406
ell 700, elapsed: 0.0003039836883544922
ell 699, elapsed: 0.00029397010803222656
ell 698, elapsed: 0.0003008842468261719
ell 697, elapsed: 0.00030612945556640625
ell 696, elapsed: 0.00030112266540527344
ell 695, elapsed: 0.00030684471130371094
ell 694, elapsed: 0.0003039836883544922
ell 693, elapsed: 0.0002949237823486328
ell 692, elapsed: 0.0010879039764404297
ell 691, elapsed: 0.00030303001403808594
ell 690, elapsed: 0.0002970695495605469
ell 689, elapsed: 0.00030112266540527344
ell 688, elapsed: 0.0002949237823486328
ell 687, elapsed: 0.0002930164337158203
ell 686, elapsed: 0.0003001689910888672
ell 685, elapsed: 0.0002980232238769531
ell 684, elapsed: 0.0003039836883544922
ell 683, elapsed: 0.0002951622009277344
ell 682, elapsed: 0.00033783912658691406
ell 681, elapsed: 0.0003159046173095703
ell 680, elapsed: 0.0002989768981933594
ell 679, elapsed: 0.0002999305725097656
ell 678, elapsed: 0.0002911090850830078
ell 677, elapsed: 0.00029087066650390625
ell 676, elapsed: 0.0003139972686767578
ell 675, elapsed: 0.0002989768981933594
ell 674, elapsed: 0.0002980232238769531
ell 673, elapsed: 0.0002961158752441406
ell 672, elapsed: 0.0003008842468261719
ell 671, elapsed: 0.0002980232238769531
ell 670, elapsed: 0.0002961158752441406
ell 669, elapsed: 0.0004818439483642578
ell 668, elapsed: 0.0002980232238769531
ell 667, elapsed: 0.0003020763397216797
ell 666, elapsed: 0.00029397010803222656
ell 665, elapsed: 0.0002970695495605469
ell 664, elapsed: 0.0003020763397216797
ell 663, elapsed: 0.0002930164337158203
ell 662, elapsed: 0.0003020763397216797
ell 661, elapsed: 0.0002989768981933594
ell 660, elapsed: 0.00029397010803222656
ell 659, elapsed: 0.0003027915954589844
ell 658, elapsed: 0.0002980232238769531
ell 657, elapsed: 0.00040793418884277344
ell 656, elapsed: 0.0002989768981933594
ell 655, elapsed: 0.0003001689910888672
ell 654, elapsed: 0.0002999305725097656
ell 653, elapsed: 0.0002999305725097656
ell 652, elapsed: 0.00030517578125
ell 651, elapsed: 0.0003020763397216797
ell 650, elapsed: 0.0002989768981933594
ell 649, elapsed: 0.00030803680419921875
ell 648, elapsed: 0.0002980232238769531
ell 647, elapsed: 0.00030684471130371094
ell 646, elapsed: 0.0002968311309814453
ell 645, elapsed: 0.00033092498779296875
ell 644, elapsed: 0.00030803680419921875
ell 643, elapsed: 0.00029587745666503906
ell 642, elapsed: 0.0003020763397216797
ell 641, elapsed: 0.0002968311309814453
ell 640, elapsed: 0.00030517578125
ell 639, elapsed: 0.00030303001403808594
ell 638, elapsed: 0.0002970695495605469
ell 637, elapsed: 0.0003018379211425781
ell 636, elapsed: 0.0002951622009277344
ell 635, elapsed: 0.0003008842468261719
ell 634, elapsed: 0.00029778480529785156
ell 633, elapsed: 0.0002949237823486328
ell 632, elapsed: 0.0003600120544433594
ell 631, elapsed: 0.0003020763397216797
ell 630, elapsed: 0.00031304359436035156
ell 629, elapsed: 0.0003020763397216797
ell 628, elapsed: 0.0002980232238769531
ell 627, elapsed: 0.000308990478515625
ell 626, elapsed: 0.0002949237823486328
ell 625, elapsed: 0.0003027915954589844
ell 624, elapsed: 0.00030684471130371094
ell 623, elapsed: 0.00029587745666503906
ell 622, elapsed: 0.00030684471130371094
ell 621, elapsed: 0.0002989768981933594
ell 620, elapsed: 0.0003459453582763672
ell 619, elapsed: 0.00030303001403808594
ell 618, elapsed: 0.00030112266540527344
ell 617, elapsed: 0.0003039836883544922
ell 616, elapsed: 0.0002970695495605469
ell 615, elapsed: 0.00030517578125
ell 614, elapsed: 0.0003070831298828125
ell 613, elapsed: 0.0002980232238769531
ell 612, elapsed: 0.00030994415283203125
ell 611, elapsed: 0.0002999305725097656
ell 610, elapsed: 0.0003070831298828125
ell 609, elapsed: 0.0003039836883544922
ell 608, elapsed: 0.0003600120544433594
ell 607, elapsed: 0.0002989768981933594
ell 606, elapsed: 0.0002970695495605469
ell 605, elapsed: 0.0003170967102050781
ell 604, elapsed: 0.0002989768981933594
ell 603, elapsed: 0.00030803680419921875
ell 602, elapsed: 0.0003008842468261719
ell 601, elapsed: 0.00030303001403808594
ell 600, elapsed: 0.0003120899200439453
ell 599, elapsed: 0.0003039836883544922
ell 598, elapsed: 0.00030517578125
ell 597, elapsed: 0.00030303001403808594
ell 596, elapsed: 0.00032806396484375
ell 595, elapsed: 0.0003108978271484375
ell 594, elapsed: 0.0003058910369873047
ell 593, elapsed: 0.00030994415283203125
ell 592, elapsed: 0.00029277801513671875
ell 591, elapsed: 0.0002942085266113281
ell 590, elapsed: 0.0002970695495605469
ell 589, elapsed: 0.00029015541076660156
ell 588, elapsed: 0.0002949237823486328
ell 587, elapsed: 0.0002980232238769531
ell 586, elapsed: 0.00029397010803222656
ell 585, elapsed: 0.0003020763397216797
ell 584, elapsed: 0.00029397010803222656
ell 583, elapsed: 0.0003349781036376953
ell 582, elapsed: 0.0002930164337158203
ell 581, elapsed: 0.0003008842468261719
ell 580, elapsed: 0.0002970695495605469
ell 579, elapsed: 0.00029587745666503906
ell 578, elapsed: 0.00030303001403808594
ell 577, elapsed: 0.0002930164337158203
ell 576, elapsed: 0.0002989768981933594
ell 575, elapsed: 0.0002930164337158203
ell 574, elapsed: 0.00030684471130371094
ell 573, elapsed: 0.0003058910369873047
ell 572, elapsed: 0.00030303001403808594
ell 571, elapsed: 0.00030517578125
ell 570, elapsed: 0.0003020763397216797
ell 569, elapsed: 0.0002999305725097656
ell 568, elapsed: 0.000308990478515625
ell 567, elapsed: 0.0002949237823486328
ell 566, elapsed: 0.0003039836883544922
ell 565, elapsed: 0.00029587745666503906
ell 564, elapsed: 0.00029206275939941406
ell 563, elapsed: 0.00030112266540527344
ell 562, elapsed: 0.0002980232238769531
ell 561, elapsed: 0.0002949237823486328
ell 560, elapsed: 0.0002911090850830078
ell 559, elapsed: 0.00028705596923828125
ell 558, elapsed: 0.0003170967102050781
ell 557, elapsed: 0.00028896331787109375
ell 556, elapsed: 0.0002911090850830078
ell 555, elapsed: 0.00028705596923828125
ell 554, elapsed: 0.0002942085266113281
ell 553, elapsed: 0.00028896331787109375
ell 552, elapsed: 0.00029397010803222656
ell 551, elapsed: 0.00028896331787109375
ell 550, elapsed: 0.000286102294921875
ell 549, elapsed: 0.00028705596923828125
ell 548, elapsed: 0.00029087066650390625
ell 547, elapsed: 0.0002841949462890625
ell 546, elapsed: 0.0002849102020263672
ell 545, elapsed: 0.0003039836883544922
ell 544, elapsed: 0.00028705596923828125
ell 543, elapsed: 0.000286102294921875
ell 542, elapsed: 0.000286102294921875
ell 541, elapsed: 0.0002911090850830078
ell 540, elapsed: 0.0002830028533935547
ell 539, elapsed: 0.00029587745666503906
ell 538, elapsed: 0.00028395652770996094
ell 537, elapsed: 0.000286102294921875
ell 536, elapsed: 0.00028896331787109375
ell 535, elapsed: 0.0002911090850830078
ell 534, elapsed: 0.00030493736267089844
ell 533, elapsed: 0.00029397010803222656
ell 532, elapsed: 0.00034618377685546875
ell 531, elapsed: 0.0003039836883544922
ell 530, elapsed: 0.0002892017364501953
ell 529, elapsed: 0.0002989768981933594
ell 528, elapsed: 0.0002880096435546875
ell 527, elapsed: 0.0002880096435546875
ell 526, elapsed: 0.00030612945556640625
ell 525, elapsed: 0.00029397010803222656
ell 524, elapsed: 0.0002989768981933594
ell 523, elapsed: 0.0002930164337158203
ell 522, elapsed: 0.0002880096435546875
ell 521, elapsed: 0.00029206275939941406
ell 520, elapsed: 0.0002999305725097656
ell 519, elapsed: 0.0003261566162109375
ell 518, elapsed: 0.00029397010803222656
ell 517, elapsed: 0.0003039836883544922
ell 516, elapsed: 0.00029397010803222656
ell 515, elapsed: 0.0002980232238769531
ell 514, elapsed: 0.0003008842468261719
ell 513, elapsed: 0.0003190040588378906
ell 512, elapsed: 0.0002970695495605469
ell 511, elapsed: 0.0002899169921875
ell 510, elapsed: 0.0002999305725097656
ell 509, elapsed: 0.0002980232238769531
ell 508, elapsed: 0.0002961158752441406
ell 507, elapsed: 0.00034809112548828125
ell 506, elapsed: 0.00030303001403808594
ell 505, elapsed: 0.0002970695495605469
ell 504, elapsed: 0.0003108978271484375
ell 503, elapsed: 0.0002980232238769531
ell 502, elapsed: 0.00030612945556640625
ell 501, elapsed: 0.0003070831298828125
ell 500, elapsed: 0.0003020763397216797
ell 499, elapsed: 0.00030517578125
ell 498, elapsed: 0.0002989768981933594
ell 497, elapsed: 0.00032019615173339844
ell 496, elapsed: 0.0002999305725097656
ell 495, elapsed: 0.0003008842468261719
ell 494, elapsed: 0.00035500526428222656
ell 493, elapsed: 0.0002989768981933594
ell 492, elapsed: 0.00031280517578125
ell 491, elapsed: 0.0003020763397216797
ell 490, elapsed: 0.0003199577331542969
ell 489, elapsed: 0.0002989768981933594
ell 488, elapsed: 0.0002989768981933594
ell 487, elapsed: 0.0003070831298828125
ell 486, elapsed: 0.00030803680419921875
ell 485, elapsed: 0.00031113624572753906
ell 484, elapsed: 0.00030303001403808594
ell 483, elapsed: 0.00030303001403808594
ell 482, elapsed: 0.0003399848937988281
ell 481, elapsed: 0.0003020763397216797
ell 480, elapsed: 0.000308990478515625
ell 479, elapsed: 0.00030303001403808594
ell 478, elapsed: 0.0003020763397216797
ell 477, elapsed: 0.000308990478515625
ell 476, elapsed: 0.00030112266540527344
ell 475, elapsed: 0.0003139972686767578
ell 474, elapsed: 0.0002989768981933594
ell 473, elapsed: 0.0002989768981933594
ell 472, elapsed: 0.00030303001403808594
ell 471, elapsed: 0.0002930164337158203
ell 470, elapsed: 0.0003528594970703125
ell 469, elapsed: 0.00029587745666503906
ell 468, elapsed: 0.0002942085266113281
ell 467, elapsed: 0.0003039836883544922
ell 466, elapsed: 0.0002980232238769531
ell 465, elapsed: 0.00030493736267089844
ell 464, elapsed: 0.00030612945556640625
ell 463, elapsed: 0.00030994415283203125
ell 462, elapsed: 0.0002999305725097656
ell 461, elapsed: 0.00030303001403808594
ell 460, elapsed: 0.0003039836883544922
ell 459, elapsed: 0.0002999305725097656
ell 458, elapsed: 0.0003139972686767578
ell 457, elapsed: 0.0003008842468261719
ell 456, elapsed: 0.0003020763397216797
ell 455, elapsed: 0.00030493736267089844
ell 454, elapsed: 0.0002892017364501953
ell 453, elapsed: 0.0003001689910888672
ell 452, elapsed: 0.0002930164337158203
ell 451, elapsed: 0.00028896331787109375
ell 450, elapsed: 0.0002980232238769531
ell 449, elapsed: 0.0002899169921875
ell 448, elapsed: 0.0003001689910888672
ell 447, elapsed: 0.00029206275939941406
ell 446, elapsed: 0.0002949237823486328
ell 445, elapsed: 0.0003402233123779297
ell 444, elapsed: 0.0002942085266113281
ell 443, elapsed: 0.0003058910369873047
ell 442, elapsed: 0.0002970695495605469
ell 441, elapsed: 0.0002951622009277344
ell 440, elapsed: 0.0003008842468261719
ell 439, elapsed: 0.0002930164337158203
ell 438, elapsed: 0.00029587745666503906
ell 437, elapsed: 0.00028705596923828125
ell 436, elapsed: 0.0002899169921875
ell 435, elapsed: 0.0003039836883544922
ell 434, elapsed: 0.0003020763397216797
ell 433, elapsed: 0.00031495094299316406
ell 432, elapsed: 0.00034308433532714844
ell 431, elapsed: 0.00030112266540527344
ell 430, elapsed: 0.0002989768981933594
ell 429, elapsed: 0.0002880096435546875
ell 428, elapsed: 0.0003020763397216797
ell 427, elapsed: 0.0002989768981933594
ell 426, elapsed: 0.00030994415283203125
ell 425, elapsed: 0.0002980232238769531
ell 424, elapsed: 0.00029397010803222656
ell 423, elapsed: 0.0003001689910888672
ell 422, elapsed: 0.0002930164337158203
ell 421, elapsed: 0.0003027915954589844
ell 420, elapsed: 0.0003209114074707031
ell 419, elapsed: 0.0002970695495605469
ell 418, elapsed: 0.00030112266540527344
ell 417, elapsed: 0.00029206275939941406
ell 416, elapsed: 0.0002989768981933594
ell 415, elapsed: 0.0002880096435546875
ell 414, elapsed: 0.0002930164337158203
ell 413, elapsed: 0.0002961158752441406
ell 412, elapsed: 0.0002911090850830078
ell 411, elapsed: 0.0003058910369873047
ell 410, elapsed: 0.0002961158752441406
ell 409, elapsed: 0.0002989768981933594
ell 408, elapsed: 0.00030303001403808594
ell 407, elapsed: 0.0003101825714111328
ell 406, elapsed: 0.00030684471130371094
ell 405, elapsed: 0.0002949237823486328
ell 404, elapsed: 0.0002970695495605469
ell 403, elapsed: 0.00030112266540527344
ell 402, elapsed: 0.00030303001403808594
ell 401, elapsed: 0.0003020763397216797
ell 400, elapsed: 0.0003008842468261719
ell 399, elapsed: 0.0003058910369873047
ell 398, elapsed: 0.000308990478515625
ell 397, elapsed: 0.00030303001403808594
ell 396, elapsed: 0.000308990478515625
ell 395, elapsed: 0.0003421306610107422
ell 394, elapsed: 0.0003108978271484375
ell 393, elapsed: 0.0002989768981933594
ell 392, elapsed: 0.00029587745666503906
ell 391, elapsed: 0.0003058910369873047
ell 390, elapsed: 0.0002989768981933594
ell 389, elapsed: 0.0003020763397216797
ell 388, elapsed: 0.0002951622009277344
ell 387, elapsed: 0.0002930164337158203
ell 386, elapsed: 0.00030994415283203125
ell 385, elapsed: 0.00029921531677246094
ell 384, elapsed: 0.00030303001403808594
ell 383, elapsed: 0.0002980232238769531
ell 382, elapsed: 0.0003209114074707031
ell 381, elapsed: 0.0003018379211425781
ell 380, elapsed: 0.0002968311309814453
ell 379, elapsed: 0.0002989768981933594
ell 378, elapsed: 0.0003020763397216797
ell 377, elapsed: 0.0002968311309814453
ell 376, elapsed: 0.0003027915954589844
ell 375, elapsed: 0.00029087066650390625
ell 374, elapsed: 0.00030612945556640625
ell 373, elapsed: 0.0002989768981933594
ell 372, elapsed: 0.000308990478515625
ell 371, elapsed: 0.00030303001403808594
ell 370, elapsed: 0.00033593177795410156
ell 369, elapsed: 0.0003039836883544922
ell 368, elapsed: 0.0002949237823486328
ell 367, elapsed: 0.00030493736267089844
ell 366, elapsed: 0.0002999305725097656
ell 365, elapsed: 0.0002980232238769531
ell 364, elapsed: 0.00030684471130371094
ell 363, elapsed: 0.0002970695495605469
ell 362, elapsed: 0.00030612945556640625
ell 361, elapsed: 0.0003070831298828125
ell 360, elapsed: 0.0002930164337158203
ell 359, elapsed: 0.00030112266540527344
ell 358, elapsed: 0.0002970695495605469
ell 357, elapsed: 0.00033092498779296875
ell 356, elapsed: 0.00030493736267089844
ell 355, elapsed: 0.0003018379211425781
ell 354, elapsed: 0.0003018379211425781
ell 353, elapsed: 0.00029778480529785156
ell 352, elapsed: 0.0003001689910888672
ell 351, elapsed: 0.0002968311309814453
ell 350, elapsed: 0.0002989768981933594
ell 349, elapsed: 0.00030994415283203125
ell 348, elapsed: 0.0003018379211425781
ell 347, elapsed: 0.0002999305725097656
ell 346, elapsed: 0.00029015541076660156
ell 345, elapsed: 0.0003669261932373047
ell 344, elapsed: 0.00030303001403808594
ell 343, elapsed: 0.0003039836883544922
ell 342, elapsed: 0.0003039836883544922
ell 341, elapsed: 0.0002989768981933594
ell 340, elapsed: 0.00030112266540527344
ell 339, elapsed: 0.00030112266540527344
ell 338, elapsed: 0.0002970695495605469
ell 337, elapsed: 0.00030612945556640625
ell 336, elapsed: 0.0002961158752441406
ell 335, elapsed: 0.0002970695495605469
ell 334, elapsed: 0.00029206275939941406
ell 333, elapsed: 0.0002980232238769531
ell 332, elapsed: 0.00033402442932128906
ell 331, elapsed: 0.0002980232238769531
ell 330, elapsed: 0.00030612945556640625
ell 329, elapsed: 0.0002989768981933594
ell 328, elapsed: 0.0003020763397216797
ell 327, elapsed: 0.0003151893615722656
ell 326, elapsed: 0.0002999305725097656
ell 325, elapsed: 0.0003070831298828125
ell 324, elapsed: 0.00030303001403808594
ell 323, elapsed: 0.00030684471130371094
ell 322, elapsed: 0.0003139972686767578
ell 321, elapsed: 0.00030994415283203125
ell 320, elapsed: 0.00036406517028808594
ell 319, elapsed: 0.00028586387634277344
ell 318, elapsed: 0.00031113624572753906
ell 317, elapsed: 0.000308990478515625
ell 316, elapsed: 0.00030112266540527344
ell 315, elapsed: 0.000308990478515625
ell 314, elapsed: 0.00030493736267089844
ell 313, elapsed: 0.0002989768981933594
ell 312, elapsed: 0.00031495094299316406
ell 311, elapsed: 0.0003058910369873047
ell 310, elapsed: 0.000308990478515625
ell 309, elapsed: 0.0003070831298828125
ell 308, elapsed: 0.0003440380096435547
ell 307, elapsed: 0.00030493736267089844
ell 306, elapsed: 0.0003070831298828125
ell 305, elapsed: 0.00031113624572753906
ell 304, elapsed: 0.0003077983856201172
ell 303, elapsed: 0.0003077983856201172
ell 302, elapsed: 0.00030303001403808594
ell 301, elapsed: 0.0002999305725097656
ell 300, elapsed: 0.00030803680419921875
ell 299, elapsed: 0.0003108978271484375
ell 298, elapsed: 0.000308990478515625
ell 297, elapsed: 0.0003039836883544922
ell 296, elapsed: 0.0003211498260498047
ell 295, elapsed: 0.00031113624572753906
ell 294, elapsed: 0.000308990478515625
ell 293, elapsed: 0.0003070831298828125
ell 292, elapsed: 0.00030303001403808594
ell 291, elapsed: 0.00030493736267089844
ell 290, elapsed: 0.00030803680419921875
ell 289, elapsed: 0.00029397010803222656
ell 288, elapsed: 0.00030112266540527344
ell 287, elapsed: 0.0002970695495605469
ell 286, elapsed: 0.00029587745666503906
ell 285, elapsed: 0.00030803680419921875
ell 284, elapsed: 0.00033593177795410156
ell 283, elapsed: 0.0002999305725097656
ell 282, elapsed: 0.0002951622009277344
ell 281, elapsed: 0.0003039836883544922
ell 280, elapsed: 0.00029087066650390625
ell 279, elapsed: 0.0002970695495605469
ell 278, elapsed: 0.0002999305725097656
ell 277, elapsed: 0.00029587745666503906
ell 276, elapsed: 0.00030112266540527344
ell 275, elapsed: 0.0003058910369873047
ell 274, elapsed: 0.0002989768981933594
ell 273, elapsed: 0.00030517578125
ell 272, elapsed: 0.00032711029052734375
ell 271, elapsed: 0.0003058910369873047
ell 270, elapsed: 0.0002970695495605469
ell 269, elapsed: 0.0002999305725097656
ell 268, elapsed: 0.0002999305725097656
ell 267, elapsed: 0.0003020763397216797
ell 266, elapsed: 0.00031304359436035156
ell 265, elapsed: 0.0003018379211425781
ell 264, elapsed: 0.0002970695495605469
ell 263, elapsed: 0.00031685829162597656
ell 262, elapsed: 0.0003039836883544922
ell 261, elapsed: 0.00031280517578125
ell 260, elapsed: 0.0003058910369873047
ell 259, elapsed: 0.0003440380096435547
ell 258, elapsed: 0.0002980232238769531
ell 257, elapsed: 0.0002949237823486328
ell 256, elapsed: 0.0003039836883544922
ell 255, elapsed: 0.0002899169921875
ell 254, elapsed: 0.0002989768981933594
ell 253, elapsed: 0.0002899169921875
ell 252, elapsed: 0.00029587745666503906
ell 251, elapsed: 0.0002999305725097656
ell 250, elapsed: 0.0002970695495605469
ell 249, elapsed: 0.0003008842468261719
ell 248, elapsed: 0.0002930164337158203
ell 247, elapsed: 0.0003261566162109375
ell 246, elapsed: 0.0003008842468261719
ell 245, elapsed: 0.0002930164337158203
ell 244, elapsed: 0.0003039836883544922
ell 243, elapsed: 0.0002911090850830078
ell 242, elapsed: 0.0002880096435546875
ell 241, elapsed: 0.0002980232238769531
ell 240, elapsed: 0.00029087066650390625
ell 239, elapsed: 0.0002930164337158203
ell 238, elapsed: 0.0002911090850830078
ell 237, elapsed: 0.0002868175506591797
ell 236, elapsed: 0.00030517578125
ell 235, elapsed: 0.00028896331787109375
ell 234, elapsed: 0.0003199577331542969
ell 233, elapsed: 0.00029587745666503906
ell 232, elapsed: 0.0003018379211425781
ell 231, elapsed: 0.00031113624572753906
ell 230, elapsed: 0.0002930164337158203
ell 229, elapsed: 0.0002989768981933594
ell 228, elapsed: 0.00030684471130371094
ell 227, elapsed: 0.0002999305725097656
ell 226, elapsed: 0.00030684471130371094
ell 225, elapsed: 0.0003001689910888672
ell 224, elapsed: 0.0002980232238769531
ell 223, elapsed: 0.00029397010803222656
ell 222, elapsed: 0.0003590583801269531
ell 221, elapsed: 0.0003020763397216797
ell 220, elapsed: 0.00028896331787109375
ell 219, elapsed: 0.0003027915954589844
ell 218, elapsed: 0.00029587745666503906
ell 217, elapsed: 0.0003027915954589844
ell 216, elapsed: 0.00032401084899902344
ell 215, elapsed: 0.0002930164337158203
ell 214, elapsed: 0.0002999305725097656
ell 213, elapsed: 0.0002968311309814453
ell 212, elapsed: 0.00029206275939941406
ell 211, elapsed: 0.0002911090850830078
ell 210, elapsed: 0.000286102294921875
ell 209, elapsed: 0.0004949569702148438
ell 208, elapsed: 0.00029587745666503906
ell 207, elapsed: 0.0003008842468261719
ell 206, elapsed: 0.0002949237823486328
ell 205, elapsed: 0.0002980232238769531
ell 204, elapsed: 0.0003070831298828125
ell 203, elapsed: 0.0002930164337158203
ell 202, elapsed: 0.00029921531677246094
ell 201, elapsed: 0.0002949237823486328
ell 200, elapsed: 0.00029397010803222656
ell 199, elapsed: 0.00030493736267089844
ell 198, elapsed: 0.00029397010803222656
ell 197, elapsed: 0.00032806396484375
ell 196, elapsed: 0.00028896331787109375
ell 195, elapsed: 0.0002942085266113281
ell 194, elapsed: 0.0002918243408203125
ell 193, elapsed: 0.0002849102020263672
ell 192, elapsed: 0.0002961158752441406
ell 191, elapsed: 0.0002899169921875
ell 190, elapsed: 0.0003058910369873047
ell 189, elapsed: 0.00029015541076660156
ell 188, elapsed: 0.0003001689910888672
ell 187, elapsed: 0.0003020763397216797
ell 186, elapsed: 0.0002918243408203125
ell 185, elapsed: 0.00030803680419921875
ell 184, elapsed: 0.0003440380096435547
ell 183, elapsed: 0.0002989768981933594
ell 182, elapsed: 0.00030994415283203125
ell 181, elapsed: 0.0002989768981933594
ell 180, elapsed: 0.00030303001403808594
ell 179, elapsed: 0.0002930164337158203
ell 178, elapsed: 0.0003008842468261719
ell 177, elapsed: 0.00030493736267089844
ell 176, elapsed: 0.00030684471130371094
ell 175, elapsed: 0.00031185150146484375
ell 174, elapsed: 0.00030112266540527344
ell 173, elapsed: 0.0002980232238769531
ell 172, elapsed: 0.0003371238708496094
ell 171, elapsed: 0.00029397010803222656
ell 170, elapsed: 0.0003020763397216797
ell 169, elapsed: 0.0002989768981933594
ell 168, elapsed: 0.0003151893615722656
ell 167, elapsed: 0.00030303001403808594
ell 166, elapsed: 0.0002930164337158203
ell 165, elapsed: 0.0002989768981933594
ell 164, elapsed: 0.0002930164337158203
ell 163, elapsed: 0.000308990478515625
ell 162, elapsed: 0.00029206275939941406
ell 161, elapsed: 0.0002961158752441406
ell 160, elapsed: 0.0004048347473144531
ell 159, elapsed: 0.0002989768981933594
ell 158, elapsed: 0.0002970695495605469
ell 157, elapsed: 0.0002949237823486328
ell 156, elapsed: 0.0002911090850830078
ell 155, elapsed: 0.0002999305725097656
ell 154, elapsed: 0.0002918243408203125
ell 153, elapsed: 0.0002999305725097656
ell 152, elapsed: 0.0002930164337158203
ell 151, elapsed: 0.0002911090850830078
ell 150, elapsed: 0.0002989768981933594
ell 149, elapsed: 0.0002930164337158203
ell 148, elapsed: 0.0002970695495605469
ell 147, elapsed: 0.0003199577331542969
ell 146, elapsed: 0.0002930164337158203
ell 145, elapsed: 0.0002999305725097656
ell 144, elapsed: 0.00029206275939941406
ell 143, elapsed: 0.0002970695495605469
ell 142, elapsed: 0.0002911090850830078
ell 141, elapsed: 0.0002961158752441406
ell 140, elapsed: 0.0002989768981933594
ell 139, elapsed: 0.00029087066650390625
ell 138, elapsed: 0.00030517578125
ell 137, elapsed: 0.0002949237823486328
ell 136, elapsed: 0.0002980232238769531
ell 135, elapsed: 0.0002930164337158203
ell 134, elapsed: 0.0002980232238769531
ell 133, elapsed: 0.0002989768981933594
ell 132, elapsed: 0.0002930164337158203
ell 131, elapsed: 0.0002980232238769531
ell 130, elapsed: 0.00029206275939941406
ell 129, elapsed: 0.0002899169921875
ell 128, elapsed: 0.0002989768981933594
ell 127, elapsed: 0.00029206275939941406
ell 126, elapsed: 0.0002980232238769531
ell 125, elapsed: 0.0002930164337158203
ell 124, elapsed: 0.00029397010803222656
ell 123, elapsed: 0.0002970695495605469
ell 122, elapsed: 0.0004909038543701172
ell 121, elapsed: 0.00030303001403808594
ell 120, elapsed: 0.00029587745666503906
ell 119, elapsed: 0.0002911090850830078
ell 118, elapsed: 0.0002949237823486328
ell 117, elapsed: 0.0003039836883544922
ell 116, elapsed: 0.0002989768981933594
ell 115, elapsed: 0.0002880096435546875
ell 114, elapsed: 0.0002949237823486328
ell 113, elapsed: 0.00029206275939941406
ell 112, elapsed: 0.00028705596923828125
ell 111, elapsed: 0.00029778480529785156
ell 110, elapsed: 0.000308990478515625
ell 109, elapsed: 0.00029397010803222656
ell 108, elapsed: 0.0002868175506591797
ell 107, elapsed: 0.0002880096435546875
ell 106, elapsed: 0.00029206275939941406
ell 105, elapsed: 0.0002880096435546875
ell 104, elapsed: 0.0002999305725097656
ell 103, elapsed: 0.0002899169921875
ell 102, elapsed: 0.00030112266540527344
ell 101, elapsed: 0.0002911090850830078
ell 100, elapsed: 0.0002999305725097656
ell 99, elapsed: 0.0002980232238769531
ell 98, elapsed: 0.0002880096435546875
ell 97, elapsed: 0.00047087669372558594
ell 96, elapsed: 0.0003039836883544922
ell 95, elapsed: 0.0002942085266113281
ell 94, elapsed: 0.0002949237823486328
ell 93, elapsed: 0.0002911090850830078
ell 92, elapsed: 0.00029087066650390625
ell 91, elapsed: 0.0002980232238769531
ell 90, elapsed: 0.00028896331787109375
ell 89, elapsed: 0.0003039836883544922
ell 88, elapsed: 0.0002880096435546875
ell 87, elapsed: 0.0002930164337158203
ell 86, elapsed: 0.0002980232238769531
ell 85, elapsed: 0.0002968311309814453
ell 84, elapsed: 0.00038504600524902344
ell 83, elapsed: 0.0002930164337158203
ell 82, elapsed: 0.00029587745666503906
ell 81, elapsed: 0.0002899169921875
ell 80, elapsed: 0.00028896331787109375
ell 79, elapsed: 0.00029397010803222656
ell 78, elapsed: 0.00028705596923828125
ell 77, elapsed: 0.0003008842468261719
ell 76, elapsed: 0.00029015541076660156
ell 75, elapsed: 0.0002899169921875
ell 74, elapsed: 0.0002970695495605469
ell 73, elapsed: 0.0002911090850830078
ell 72, elapsed: 0.00036597251892089844
ell 71, elapsed: 0.00029587745666503906
ell 70, elapsed: 0.0002949237823486328
ell 69, elapsed: 0.0002989768981933594
ell 68, elapsed: 0.00029397010803222656
ell 67, elapsed: 0.0002989768981933594
ell 66, elapsed: 0.00030803680419921875
ell 65, elapsed: 0.0002980232238769531
ell 64, elapsed: 0.0002989768981933594
ell 63, elapsed: 0.00029206275939941406
ell 62, elapsed: 0.0003058910369873047
ell 61, elapsed: 0.00029587745666503906
ell 60, elapsed: 0.00029015541076660156
ell 59, elapsed: 0.00034308433532714844
ell 58, elapsed: 0.0003039836883544922
ell 57, elapsed: 0.0003058910369873047
ell 56, elapsed: 0.0003058910369873047
ell 55, elapsed: 0.0003020763397216797
ell 54, elapsed: 0.0003139972686767578
ell 53, elapsed: 0.0003018379211425781
ell 52, elapsed: 0.00030493736267089844
ell 51, elapsed: 0.00030493736267089844
ell 50, elapsed: 0.00030803680419921875
ell 49, elapsed: 0.0003039836883544922
ell 48, elapsed: 0.0003039836883544922
ell 47, elapsed: 0.0003790855407714844
ell 46, elapsed: 0.00030517578125
ell 45, elapsed: 0.0003101825714111328
ell 44, elapsed: 0.00030422210693359375
ell 43, elapsed: 0.00030112266540527344
ell 42, elapsed: 0.00030803680419921875
ell 41, elapsed: 0.00030303001403808594
ell 40, elapsed: 0.00030493736267089844
ell 39, elapsed: 0.00030112266540527344
ell 38, elapsed: 0.0002961158752441406
ell 37, elapsed: 0.0003039836883544922
ell 36, elapsed: 0.0003001689910888672
ell 35, elapsed: 0.0004398822784423828
ell 34, elapsed: 0.00030112266540527344
ell 33, elapsed: 0.00029397010803222656
ell 32, elapsed: 0.0003058910369873047
ell 31, elapsed: 0.00029921531677246094
ell 30, elapsed: 0.00031185150146484375
ell 29, elapsed: 0.0002989768981933594
ell 28, elapsed: 0.0002968311309814453
ell 27, elapsed: 0.0003020763397216797
ell 26, elapsed: 0.0002930164337158203
ell 25, elapsed: 0.0003039836883544922
ell 24, elapsed: 0.0002951622009277344
ell 23, elapsed: 0.004118919372558594
ell 22, elapsed: 0.0003478527069091797
ell 21, elapsed: 0.0003070831298828125
ell 20, elapsed: 0.0003170967102050781
ell 19, elapsed: 0.0003001689910888672
ell 18, elapsed: 0.00030493736267089844
ell 17, elapsed: 0.0002949237823486328
ell 16, elapsed: 0.0002951622009277344
ell 15, elapsed: 0.0003020763397216797
ell 14, elapsed: 0.0002989768981933594
ell 13, elapsed: 0.0003020763397216797
ell 12, elapsed: 0.0002961158752441406
ell 11, elapsed: 0.0002989768981933594
ell 10, elapsed: 0.0003809928894042969
ell 9, elapsed: 0.0003039836883544922
ell 8, elapsed: 0.00030422210693359375
ell 7, elapsed: 0.0002970695495605469
ell 6, elapsed: 0.00030303001403808594
ell 5, elapsed: 0.00031304359436035156
ell 4, elapsed: 0.00029587745666503906
ell 3, elapsed: 0.00030112266540527344
ell 2, elapsed: 0.00029397010803222656
ell 1, elapsed: 0.0002999305725097656
ell 0, elapsed: 0.0002989768981933594
  0.423625 seconds (46.03 k allocations: 3.091 MiB, 5.96% compilation time)
elapsed: 0.00039386749267578125
step:          0.048084 sec (0 allocations: 0 byte, 0.0% gc time)
swapping:      0.000457 sec (0 allocations: 0 byte, 0.0% gc time)
calc_Mellell!: 0.005886 sec (0 allocations: 0 byte, 0.0% gc time)
  t0 :  0.001237 sec (0 allocations: 0 byte, 0.0% gc time)
  tm2 : 0.07014 sec (0 allocations: 0 byte, 0.0% gc time)
  tm2s: 0.000936 sec (0 allocations: 0 byte, 0.0% gc time)
  tm4 : 0.175808 sec (0 allocations: 0 byte, 0.0% gc time)
  tp2 : 0.0 sec (0 allocations: 0 byte, 0.0% gc time)
  tp2s: 0.0 sec (0 allocations: 0 byte, 0.0% gc time)
  tp4 : 0.0 sec (0 allocations: 0 byte, 0.0% gc time)
calc_wtdll!:   0.276002 sec (9.9 k allocations: 1.047 MB, 0.0% gc time)
calc_wljj!:    0.023757 sec (689 allocations: 10.766 KB, 0.0% gc time)
mult_prefac!:  0.0 sec (0 allocations: 0 byte, 0.0% gc time)
convert:       0.0 sec (0 allocations: 0 byte, 0.0% gc time)
write:         0.029852 sec (0 allocations: 0 byte, 0.0% gc time)
test_rand_2f1: 0.0 sec (0 allocations: 0 byte, 0.0% gc time)
Closing outfile out/Ml21-cache.bin...   0.000010 seconds
  0.000397 seconds (36 allocations: 27.953 KiB)
make_phi():   0.001485 seconds (8.18 k allocations: 237.844 KiB)
  0.113154 seconds (141.90 k allocations: 3.483 MiB)
tskip:       0.000597 sec (0 allocations: 0 byte, 0.0% gc time)
tread:       0.020471 sec (17 allocations: 10.641 KB, 0.0% gc time)
tmultphi:    0.008862 sec (0 allocations: 0 byte, 0.0% gc time)
tbrfft:      0.031903 sec (0 allocations: 0 byte, 0.0% gc time)
tmultprefac: 0.015558 sec (0 allocations: 0 byte, 0.0% gc time)
toutfunc:    0.032442 sec (127.507 k allocations: 2.312 MB, 0.0% gc time)
Testing R=1.0 ... passed
Calculating fmax: 
  dlrec    = 4
  dlrecRg1 = -4
  q=1.1, R=0.9:	  0.242809 seconds (105.72 k allocations: 15.273 MiB)

  0.242952 seconds (105.77 k allocations: 15.307 MiB)
ℓ = 1202
Δℓ = 4
ΔℓRg1 = -4
N = 1600
q = 1.1
kmin = 1.0e-5
kmax = 100000.00000000004
χ0 = 0.023029999999999995
RR = RR.tsv
ℓmax = ℓmax.bin
f21 = f21.bin
kmin = 1.0e-5
kmax = 100000.0
dlrec    = 4
dlrecRg1 = -4
Output size: 5741568 bytes = 0.005347251892089844 GiB
Output size: 51264 bytes = 4.774332046508789e-5 GiB
Reading 'out/F21EllCache'...   0.000981 seconds (197 allocations: 84.203 KiB)
ellmax: 1202
lmaxcache: 1202
fell[:,1,1] = ComplexF64[1.3482014726274674e-57 - 3.302141236118086e-73im, 1.357860004724329e-57 - 3.3257978169518355e-73im]
ell 1202, elapsed: 2.09808349609375e-5
ell 1201, elapsed: 0.0004508495330810547
ell 1200, elapsed: 0.0002739429473876953
ell 1199, elapsed: 0.0002541542053222656
ell 1198, elapsed: 0.0002548694610595703
ell 1002, elapsed: 0.008929014205932617
ell 1001, elapsed: 0.0002658367156982422
ell 1000, elapsed: 0.0002570152282714844
ell 999, elapsed: 0.0008480548858642578
ell 998, elapsed: 0.0015511512756347656
ell 902, elapsed: 0.004107952117919922
ell 901, elapsed: 0.0002570152282714844
ell 900, elapsed: 0.0002529621124267578
ell 899, elapsed: 0.0002529621124267578
ell 898, elapsed: 0.0002541542053222656
ell 802, elapsed: 0.004106044769287109
ell 801, elapsed: 0.0002589225769042969
ell 800, elapsed: 0.0003190040588378906
ell 799, elapsed: 0.0002560615539550781
ell 798, elapsed: 0.00025391578674316406
ell 702, elapsed: 0.004790067672729492
ell 701, elapsed: 0.00026702880859375
ell 700, elapsed: 0.0002529621124267578
ell 699, elapsed: 0.0002551078796386719
ell 698, elapsed: 0.0002548694610595703
ell 602, elapsed: 0.004353046417236328
ell 601, elapsed: 0.0002651214599609375
ell 600, elapsed: 0.0002541542053222656
ell 599, elapsed: 0.0002579689025878906
ell 598, elapsed: 0.0007739067077636719
ell 502, elapsed: 0.008968830108642578
ell 501, elapsed: 0.00026488304138183594
ell 500, elapsed: 0.00025391578674316406
ell 499, elapsed: 0.0002541542053222656
ell 498, elapsed: 0.0002529621124267578
ell 402, elapsed: 0.0041751861572265625
ell 401, elapsed: 0.00026798248291015625
ell 400, elapsed: 0.00026106834411621094
ell 399, elapsed: 0.0002601146697998047
ell 398, elapsed: 0.00028705596923828125
ell 302, elapsed: 0.0042018890380859375
ell 301, elapsed: 0.0002658367156982422
ell 300, elapsed: 0.0002598762512207031
ell 299, elapsed: 0.0002608299255371094
ell 298, elapsed: 0.0002579689025878906
ell 202, elapsed: 0.004225015640258789
ell 201, elapsed: 0.00026607513427734375
ell 200, elapsed: 0.0002570152282714844
ell 199, elapsed: 0.00025582313537597656
ell 198, elapsed: 0.000263214111328125
ell 152, elapsed: 0.0022029876708984375
ell 151, elapsed: 0.0002689361572265625
ell 150, elapsed: 0.0002620220184326172
ell 149, elapsed: 0.0002651214599609375
ell 148, elapsed: 0.00419306755065918
ell 127, elapsed: 0.0011420249938964844
ell 126, elapsed: 0.0002529621124267578
ell 125, elapsed: 0.00025010108947753906
ell 124, elapsed: 0.00030112266540527344
ell 123, elapsed: 0.00026106834411621094
ell 114, elapsed: 0.0006380081176757812
ell 113, elapsed: 0.0002570152282714844
ell 112, elapsed: 0.0002570152282714844
ell 111, elapsed: 0.00026798248291015625
ell 110, elapsed: 0.00026106834411621094
ell 102, elapsed: 0.0005891323089599609
ell 101, elapsed: 0.0002589225769042969
ell 100, elapsed: 0.0002601146697998047
ell 99, elapsed: 0.0002598762512207031
ell 98, elapsed: 0.000286102294921875
ell 97, elapsed: 0.0003058910369873047
ell 96, elapsed: 0.0002980232238769531
ell 95, elapsed: 0.0003070831298828125
ell 94, elapsed: 0.0003001689910888672
ell 93, elapsed: 0.0003008842468261719
ell 92, elapsed: 0.00030803680419921875
ell 91, elapsed: 0.00029397010803222656
ell 90, elapsed: 0.0003039836883544922
ell 89, elapsed: 0.00030303001403808594
ell 88, elapsed: 0.0002970695495605469
ell 87, elapsed: 0.0003008842468261719
ell 86, elapsed: 0.00030303001403808594
ell 85, elapsed: 0.00036597251892089844
ell 84, elapsed: 0.0003039836883544922
ell 83, elapsed: 0.0003070831298828125
ell 82, elapsed: 0.0003070831298828125
ell 81, elapsed: 0.0002980232238769531
ell 80, elapsed: 0.0003070831298828125
ell 79, elapsed: 0.00030303001403808594
ell 78, elapsed: 0.0002999305725097656
ell 77, elapsed: 0.00030612945556640625
ell 76, elapsed: 0.0002989768981933594
ell 75, elapsed: 0.00030803680419921875
ell 74, elapsed: 0.00030303001403808594
ell 73, elapsed: 0.0003559589385986328
ell 72, elapsed: 0.0003180503845214844
ell 71, elapsed: 0.0003058910369873047
ell 70, elapsed: 0.00031495094299316406
ell 69, elapsed: 0.00030303001403808594
ell 68, elapsed: 0.00030303001403808594
ell 67, elapsed: 0.00030994415283203125
ell 66, elapsed: 0.0003018379211425781
ell 65, elapsed: 0.00033211708068847656
ell 64, elapsed: 0.0003261566162109375
ell 63, elapsed: 0.0003020763397216797
ell 62, elapsed: 0.00029206275939941406
ell 61, elapsed: 0.0003731250762939453
ell 60, elapsed: 0.0002949237823486328
ell 59, elapsed: 0.0002899169921875
ell 58, elapsed: 0.00029015541076660156
ell 57, elapsed: 0.0002951622009277344
ell 56, elapsed: 0.0002880096435546875
ell 55, elapsed: 0.0002968311309814453
ell 54, elapsed: 0.00028705596923828125
ell 53, elapsed: 0.00028586387634277344
ell 52, elapsed: 0.0002970695495605469
ell 51, elapsed: 0.0003039836883544922
ell 50, elapsed: 0.0003001689910888672
ell 49, elapsed: 0.0002951622009277344
ell 48, elapsed: 0.00032901763916015625
ell 47, elapsed: 0.0002980232238769531
ell 46, elapsed: 0.00028896331787109375
ell 45, elapsed: 0.00030493736267089844
ell 44, elapsed: 0.00028896331787109375
ell 43, elapsed: 0.0002930164337158203
ell 42, elapsed: 0.0003199577331542969
ell 41, elapsed: 0.00029397010803222656
ell 40, elapsed: 0.0002989768981933594
ell 39, elapsed: 0.0002970695495605469
ell 38, elapsed: 0.00028896331787109375
ell 37, elapsed: 0.0002970695495605469
ell 36, elapsed: 0.00033283233642578125
ell 35, elapsed: 0.00030803680419921875
ell 34, elapsed: 0.0002949237823486328
ell 33, elapsed: 0.00029587745666503906
ell 32, elapsed: 0.0003018379211425781
ell 31, elapsed: 0.0002961158752441406
ell 30, elapsed: 0.0003018379211425781
ell 29, elapsed: 0.00029921531677246094
ell 28, elapsed: 0.0003018379211425781
ell 27, elapsed: 0.0003020763397216797
ell 26, elapsed: 0.00029206275939941406
ell 25, elapsed: 0.0003020763397216797
ell 24, elapsed: 0.00029587745666503906
ell 23, elapsed: 0.0003631114959716797
ell 22, elapsed: 0.0003027915954589844
ell 21, elapsed: 0.0003018379211425781
ell 20, elapsed: 0.0003120899200439453
ell 19, elapsed: 0.00029397010803222656
ell 18, elapsed: 0.0003139972686767578
ell 17, elapsed: 0.0002980232238769531
ell 16, elapsed: 0.00030303001403808594
ell 15, elapsed: 0.0003230571746826172
ell 14, elapsed: 0.00029397010803222656
ell 13, elapsed: 0.00029778480529785156
ell 12, elapsed: 0.0002930164337158203
ell 11, elapsed: 0.0004150867462158203
ell 10, elapsed: 0.0002961158752441406
ell 9, elapsed: 0.00029206275939941406
ell 8, elapsed: 0.0003018379211425781
ell 7, elapsed: 0.00029277801513671875
ell 6, elapsed: 0.00029087066650390625
ell 5, elapsed: 0.0002980232238769531
ell 4, elapsed: 0.0002930164337158203
ell 3, elapsed: 0.00030303001403808594
ell 2, elapsed: 0.0002980232238769531
ell 1, elapsed: 0.00029206275939941406
ell 0, elapsed: 0.0002980232238769531
  0.106918 seconds (11.51 k allocations: 719.594 KiB)
elapsed: 0.00038814544677734375
step:          0.052921 sec (0 allocations: 0 byte, 0.0% gc time)
swapping:      0.000306 sec (0 allocations: 0 byte, 0.0% gc time)
calc_Mellell!: 0.000859 sec (0 allocations: 0 byte, 0.0% gc time)
  t0 :  0.000234 sec (0 allocations: 0 byte, 0.0% gc time)
  tm2 : 0.010379 sec (0 allocations: 0 byte, 0.0% gc time)
  tm2s: 0.000188 sec (0 allocations: 0 byte, 0.0% gc time)
  tm4 : 0.025659 sec (0 allocations: 0 byte, 0.0% gc time)
  tp2 : 0.0 sec (0 allocations: 0 byte, 0.0% gc time)
  tp2s: 0.0 sec (0 allocations: 0 byte, 0.0% gc time)
  tp4 : 0.0 sec (0 allocations: 0 byte, 0.0% gc time)
calc_wtdll!:   0.036817 sec (1.344 k allocations: 147.0 KB, 0.0% gc time)
calc_wljj!:    0.002325 sec (6 allocations: 96 byte, 0.0% gc time)
mult_prefac!:  0.0 sec (0 allocations: 0 byte, 0.0% gc time)
convert:       0.0 sec (0 allocations: 0 byte, 0.0% gc time)
write:         0.002738 sec (0 allocations: 0 byte, 0.0% gc time)
test_rand_2f1: 0.0 sec (0 allocations: 0 byte, 0.0% gc time)
Closing outfile out/Ml21-cache.bin...   0.000003 seconds
  0.000238 seconds (36 allocations: 27.953 KiB)
make_phi():   0.001608 seconds (8.18 k allocations: 237.844 KiB)
  0.010910 seconds (11.65 k allocations: 308.688 KiB)
tskip:       1.6e-5 sec (0 allocations: 0 byte, 0.0% gc time)
tread:       0.002003 sec (17 allocations: 2.125 KB, 0.0% gc time)
tmultphi:    0.000847 sec (0 allocations: 0 byte, 0.0% gc time)
tbrfft:      0.002932 sec (0 allocations: 0 byte, 0.0% gc time)
tmultprefac: 0.001631 sec (0 allocations: 0 byte, 0.0% gc time)
toutfunc:    0.003196 sec (10.304 k allocations: 196.0 KB, 0.0% gc time)
Testing R=0.9 ... passed
Calculating fmax: 
  dlrec    = 4
  dlrecRg1 = -4
  q=1.1, R=0.8:	  0.220902 seconds (103.21 k allocations: 14.840 MiB)

  0.221044 seconds (103.26 k allocations: 14.874 MiB)
ℓ = 1202
Δℓ = 4
ΔℓRg1 = -4
N = 1600
q = 1.1
kmin = 1.0e-5
kmax = 100000.00000000004
χ0 = 0.023029999999999995
RR = RR.tsv
ℓmax = ℓmax.bin
f21 = f21.bin
kmin = 1.0e-5
kmax = 100000.0
dlrec    = 4
dlrecRg1 = -4
Output size: 5741568 bytes = 0.005347251892089844 GiB
Output size: 51264 bytes = 4.774332046508789e-5 GiB
Reading 'out/F21EllCache'...   0.023808 seconds (197 allocations: 84.203 KiB, 92.83% gc time)
ellmax: 1202
lmaxcache: 1202
fell[:,1,1] = ComplexF64[7.519068145690986e-120 - 1.8416405474382574e-135im, 7.541664537386155e-120 - 1.847175067190611e-135im]
ell 1202, elapsed: 1.5020370483398438e-5
ell 1201, elapsed: 0.0003039836883544922
ell 1200, elapsed: 0.0002779960632324219
ell 1199, elapsed: 0.0002770423889160156
ell 1198, elapsed: 0.0002849102020263672
ell 1002, elapsed: 0.009693145751953125
ell 1001, elapsed: 0.0002658367156982422
ell 1000, elapsed: 0.0002582073211669922
ell 999, elapsed: 0.00026106834411621094
ell 998, elapsed: 0.0002551078796386719
ell 902, elapsed: 0.0043489933013916016
ell 901, elapsed: 0.00026917457580566406
ell 900, elapsed: 0.00025916099548339844
ell 899, elapsed: 0.0002570152282714844
ell 898, elapsed: 0.0002570152282714844
ell 802, elapsed: 0.005352973937988281
ell 801, elapsed: 0.00028204917907714844
ell 800, elapsed: 0.00026297569274902344
ell 799, elapsed: 0.00026702880859375
ell 798, elapsed: 0.0002620220184326172
ell 702, elapsed: 0.0046520233154296875
ell 701, elapsed: 0.0002701282501220703
ell 700, elapsed: 0.00026416778564453125
ell 699, elapsed: 0.00026488304138183594
ell 698, elapsed: 0.0007600784301757812
ell 602, elapsed: 0.004645109176635742
ell 601, elapsed: 0.000270843505859375
ell 600, elapsed: 0.00028705596923828125
ell 599, elapsed: 0.0002639293670654297
ell 598, elapsed: 0.00026416778564453125
ell 502, elapsed: 0.0046079158782958984
ell 501, elapsed: 0.00026988983154296875
ell 500, elapsed: 0.0002639293670654297
ell 499, elapsed: 0.00026416778564453125
ell 498, elapsed: 0.0007579326629638672
ell 402, elapsed: 0.0045490264892578125
ell 401, elapsed: 0.0002570152282714844
ell 400, elapsed: 0.0002579689025878906
ell 399, elapsed: 0.0002510547637939453
ell 398, elapsed: 0.0002510547637939453
ell 302, elapsed: 0.0045778751373291016
ell 301, elapsed: 0.00026607513427734375
ell 300, elapsed: 0.00025391578674316406
ell 299, elapsed: 0.0002620220184326172
ell 298, elapsed: 0.008360147476196289
ell 202, elapsed: 0.0041539669036865234
ell 201, elapsed: 0.0002620220184326172
ell 200, elapsed: 0.0002598762512207031
ell 199, elapsed: 0.00025582313537597656
ell 198, elapsed: 0.0002579689025878906
ell 152, elapsed: 0.002109050750732422
ell 151, elapsed: 0.00025391578674316406
ell 150, elapsed: 0.00029087066650390625
ell 149, elapsed: 0.0002551078796386719
ell 148, elapsed: 0.0002560615539550781
ell 127, elapsed: 0.0011069774627685547
ell 126, elapsed: 0.00025582313537597656
ell 125, elapsed: 0.00025582313537597656
ell 124, elapsed: 0.0002510547637939453
ell 123, elapsed: 0.00025200843811035156
ell 114, elapsed: 0.0006380081176757812
ell 113, elapsed: 0.00025200843811035156
ell 112, elapsed: 0.0003039836883544922
ell 111, elapsed: 0.0002560615539550781
ell 110, elapsed: 0.0002579689025878906
ell 102, elapsed: 0.0005769729614257812
ell 101, elapsed: 0.0002551078796386719
ell 100, elapsed: 0.0002570152282714844
ell 99, elapsed: 0.0002570152282714844
ell 98, elapsed: 0.0002589225769042969
ell 97, elapsed: 0.0003108978271484375
ell 96, elapsed: 0.0002980232238769531
ell 95, elapsed: 0.0003039836883544922
ell 94, elapsed: 0.00030493736267089844
ell 93, elapsed: 0.00032591819763183594
ell 92, elapsed: 0.00030112266540527344
ell 91, elapsed: 0.0002930164337158203
ell 90, elapsed: 0.00028896331787109375
ell 89, elapsed: 0.0002961158752441406
ell 88, elapsed: 0.0002911090850830078
ell 87, elapsed: 0.0003058910369873047
ell 86, elapsed: 0.000286102294921875
ell 85, elapsed: 0.0002830028533935547
ell 84, elapsed: 0.0002911090850830078
ell 83, elapsed: 0.00029206275939941406
ell 82, elapsed: 0.00029587745666503906
ell 81, elapsed: 0.00029397010803222656
ell 80, elapsed: 0.00034689903259277344
ell 79, elapsed: 0.00030493736267089844
ell 78, elapsed: 0.0002968311309814453
ell 77, elapsed: 0.0003108978271484375
ell 76, elapsed: 0.0002961158752441406
ell 75, elapsed: 0.0003001689910888672
ell 74, elapsed: 0.00030112266540527344
ell 73, elapsed: 0.0005159378051757812
ell 72, elapsed: 0.0003190040588378906
ell 71, elapsed: 0.0003020763397216797
ell 70, elapsed: 0.00030112266540527344
ell 69, elapsed: 0.00030803680419921875
ell 68, elapsed: 0.0003578662872314453
ell 67, elapsed: 0.0002949237823486328
ell 66, elapsed: 0.0002911090850830078
ell 65, elapsed: 0.0002949237823486328
ell 64, elapsed: 0.00030684471130371094
ell 63, elapsed: 0.00030803680419921875
ell 62, elapsed: 0.00030303001403808594
ell 61, elapsed: 0.00030684471130371094
ell 60, elapsed: 0.00030112266540527344
ell 59, elapsed: 0.0003020763397216797
ell 58, elapsed: 0.00029397010803222656
ell 57, elapsed: 0.00030303001403808594
ell 56, elapsed: 0.00032901763916015625
[...]
ell 782, elapsed: 0.0009260177612304688
ell 781, elapsed: 0.0005440711975097656
ell 780, elapsed: 0.0005459785461425781
ell 779, elapsed: 0.000537872314453125
ell 778, elapsed: 0.0006778240203857422
ell 772, elapsed: 0.0009250640869140625
ell 771, elapsed: 0.0005269050598144531
ell 770, elapsed: 0.0005419254302978516
ell 769, elapsed: 0.0005269050598144531
ell 768, elapsed: 0.0005440711975097656
ell 762, elapsed: 0.0010612010955810547
ell 761, elapsed: 0.0005280971527099609
ell 760, elapsed: 0.0005331039428710938
ell 759, elapsed: 0.0005230903625488281
ell 758, elapsed: 0.0005481243133544922
ell 752, elapsed: 0.0009469985961914062
ell 751, elapsed: 0.0006709098815917969
ell 750, elapsed: 0.0005500316619873047
ell 749, elapsed: 0.0005321502685546875
ell 748, elapsed: 0.0005488395690917969
ell 742, elapsed: 0.0009698867797851562
ell 741, elapsed: 0.0005359649658203125
ell 740, elapsed: 0.0006730556488037109
ell 739, elapsed: 0.0005538463592529297
ell 738, elapsed: 0.0005340576171875
ell 732, elapsed: 0.0009400844573974609
ell 731, elapsed: 0.0005249977111816406
ell 730, elapsed: 0.0005409717559814453
ell 729, elapsed: 0.0006499290466308594
ell 728, elapsed: 0.0005490779876708984
ell 722, elapsed: 0.0009479522705078125
ell 721, elapsed: 0.0005369186401367188
ell 720, elapsed: 0.0005478858947753906
ell 719, elapsed: 0.0005381107330322266
ell 718, elapsed: 0.0006690025329589844
ell 712, elapsed: 0.0009469985961914062
ell 711, elapsed: 0.0005359649658203125
ell 710, elapsed: 0.0005538463592529297
ell 709, elapsed: 0.0005538463592529297
ell 708, elapsed: 0.0005550384521484375
ell 702, elapsed: 0.00109100341796875
ell 701, elapsed: 0.0005400180816650391
ell 700, elapsed: 0.0005450248718261719
ell 699, elapsed: 0.0005278587341308594
ell 698, elapsed: 0.0005388259887695312
ell 692, elapsed: 0.0009770393371582031
ell 691, elapsed: 0.0006799697875976562
ell 690, elapsed: 0.0005500316619873047
ell 689, elapsed: 0.0005228519439697266
ell 688, elapsed: 0.0005459785461425781
ell 682, elapsed: 0.0009579658508300781
ell 681, elapsed: 0.0005359649658203125
ell 680, elapsed: 0.0006740093231201172
ell 679, elapsed: 0.0005338191986083984
ell 678, elapsed: 0.0005390644073486328
ell 672, elapsed: 0.0009729862213134766
ell 671, elapsed: 0.0005369186401367188
ell 670, elapsed: 0.0005409717559814453
ell 669, elapsed: 0.0006570816040039062
ell 668, elapsed: 0.0005478858947753906
ell 662, elapsed: 0.0009810924530029297
ell 661, elapsed: 0.0005321502685546875
ell 660, elapsed: 0.0005309581756591797
ell 659, elapsed: 0.0005271434783935547
ell 658, elapsed: 0.0005290508270263672
ell 652, elapsed: 0.0009701251983642578
ell 651, elapsed: 0.0005269050598144531
ell 650, elapsed: 0.0005459785461425781
ell 649, elapsed: 0.0005311965942382812
ell 648, elapsed: 0.0005509853363037109
ell 642, elapsed: 0.0009961128234863281
ell 641, elapsed: 0.0004799365997314453
ell 640, elapsed: 0.0004901885986328125
ell 639, elapsed: 0.0004761219024658203
ell 638, elapsed: 0.0004839897155761719
ell 632, elapsed: 0.0008459091186523438
ell 631, elapsed: 0.0004649162292480469
ell 630, elapsed: 0.0006589889526367188
ell 629, elapsed: 0.0005319118499755859
ell 628, elapsed: 0.0005321502685546875
ell 622, elapsed: 0.0009779930114746094
ell 621, elapsed: 0.000537872314453125
ell 620, elapsed: 0.0005288124084472656
ell 619, elapsed: 0.0005729198455810547
ell 618, elapsed: 0.0005350112915039062
ell 612, elapsed: 0.0009560585021972656
ell 611, elapsed: 0.0005388259887695312
ell 610, elapsed: 0.0005300045013427734
ell 609, elapsed: 0.0005278587341308594
ell 608, elapsed: 0.0005369186401367188
ell 602, elapsed: 0.0010340213775634766
ell 601, elapsed: 0.0005319118499755859
ell 600, elapsed: 0.0005288124084472656
ell 599, elapsed: 0.000537872314453125
ell 598, elapsed: 0.0005419254302978516
ell 592, elapsed: 0.0009849071502685547
ell 591, elapsed: 0.0005280971527099609
ell 590, elapsed: 0.0005490779876708984
ell 589, elapsed: 0.0005340576171875
ell 588, elapsed: 0.0005421638488769531
ell 582, elapsed: 0.0009660720825195312
ell 581, elapsed: 0.0005381107330322266
ell 580, elapsed: 0.0005900859832763672
ell 579, elapsed: 0.0005390644073486328
ell 578, elapsed: 0.0005321502685546875
ell 572, elapsed: 0.0009729862213134766
ell 571, elapsed: 0.0005459785461425781
ell 570, elapsed: 0.0005409717559814453
ell 569, elapsed: 0.0005650520324707031
ell 568, elapsed: 0.0005497932434082031
ell 562, elapsed: 0.0009839534759521484
ell 561, elapsed: 0.0005440711975097656
ell 560, elapsed: 0.0005369186401367188
ell 559, elapsed: 0.0005409717559814453
ell 558, elapsed: 0.0005850791931152344
ell 552, elapsed: 0.0009579658508300781
ell 551, elapsed: 0.0005340576171875
ell 550, elapsed: 0.0005469322204589844
ell 549, elapsed: 0.0005340576171875
ell 548, elapsed: 0.000537872314453125
ell 542, elapsed: 0.0009829998016357422
ell 541, elapsed: 0.0005309581756591797
ell 540, elapsed: 0.0005338191986083984
ell 539, elapsed: 0.0005338191986083984
ell 538, elapsed: 0.0005309581756591797
ell 532, elapsed: 0.0009429454803466797
ell 531, elapsed: 0.0005660057067871094
ell 530, elapsed: 0.0005400180816650391
ell 529, elapsed: 0.0005218982696533203
ell 528, elapsed: 0.0005390644073486328
ell 522, elapsed: 0.0009648799896240234
ell 521, elapsed: 0.0005340576171875
ell 520, elapsed: 0.0005381107330322266
ell 519, elapsed: 0.0006840229034423828
ell 518, elapsed: 0.0005409717559814453
ell 512, elapsed: 0.0009570121765136719
ell 511, elapsed: 0.0005290508270263672
ell 510, elapsed: 0.0005469322204589844
ell 509, elapsed: 0.0005249977111816406
ell 508, elapsed: 0.0005900859832763672
ell 502, elapsed: 0.0009589195251464844
ell 501, elapsed: 0.0005249977111816406
ell 500, elapsed: 0.0005400180816650391
ell 499, elapsed: 0.0005311965942382812
ell 498, elapsed: 0.0005419254302978516
ell 492, elapsed: 0.0009801387786865234
ell 491, elapsed: 0.0005240440368652344
ell 490, elapsed: 0.0005381107330322266
ell 489, elapsed: 0.0005350112915039062
ell 488, elapsed: 0.0005319118499755859
ell 482, elapsed: 0.0009438991546630859
ell 481, elapsed: 0.0006301403045654297
ell 480, elapsed: 0.0005450248718261719
ell 479, elapsed: 0.0005288124084472656
ell 478, elapsed: 0.0005409717559814453
ell 472, elapsed: 0.0009469985961914062
ell 471, elapsed: 0.0005261898040771484
ell 470, elapsed: 0.0005731582641601562
ell 469, elapsed: 0.0005469322204589844
ell 468, elapsed: 0.0005328655242919922
ell 462, elapsed: 0.0009388923645019531
ell 461, elapsed: 0.0005269050598144531
ell 460, elapsed: 0.0005450248718261719
ell 459, elapsed: 0.0005381107330322266
ell 458, elapsed: 0.0006101131439208984
ell 452, elapsed: 0.0009582042694091797
ell 451, elapsed: 0.0005362033843994141
ell 450, elapsed: 0.0005319118499755859
ell 449, elapsed: 0.0005371570587158203
ell 448, elapsed: 0.0005478858947753906
ell 442, elapsed: 0.0010848045349121094
ell 441, elapsed: 0.0005350112915039062
ell 440, elapsed: 0.0005428791046142578
ell 439, elapsed: 0.0005321502685546875
ell 438, elapsed: 0.0005419254302978516
ell 432, elapsed: 0.0009400844573974609
ell 431, elapsed: 0.00048804283142089844
ell 430, elapsed: 0.0004858970642089844
ell 429, elapsed: 0.0004699230194091797
ell 428, elapsed: 0.0004858970642089844
ell 422, elapsed: 0.0008358955383300781
ell 421, elapsed: 0.0004639625549316406
ell 420, elapsed: 0.00047516822814941406
ell 419, elapsed: 0.0005481243133544922
ell 418, elapsed: 0.0005090236663818359
ell 412, elapsed: 0.0009319782257080078
ell 411, elapsed: 0.0005199909210205078
ell 410, elapsed: 0.0005381107330322266
ell 409, elapsed: 0.0005359649658203125
ell 408, elapsed: 0.0006120204925537109
ell 402, elapsed: 0.0009448528289794922
ell 401, elapsed: 0.0005118846893310547
ell 400, elapsed: 0.0005290508270263672
ell 399, elapsed: 0.0005209445953369141
ell 398, elapsed: 0.0005240440368652344
ell 392, elapsed: 0.0009298324584960938
ell 391, elapsed: 0.0005199909210205078
ell 390, elapsed: 0.0005371570587158203
ell 389, elapsed: 0.0005240440368652344
ell 388, elapsed: 0.0005280971527099609
ell 382, elapsed: 0.0009629726409912109
ell 381, elapsed: 0.0005879402160644531
ell 380, elapsed: 0.0005409717559814453
ell 379, elapsed: 0.0005269050598144531
ell 378, elapsed: 0.0005309581756591797
ell 372, elapsed: 0.0009598731994628906
ell 371, elapsed: 0.0005228519439697266
ell 370, elapsed: 0.0005369186401367188
ell 369, elapsed: 0.0008699893951416016
ell 368, elapsed: 0.0005350112915039062
ell 362, elapsed: 0.0009369850158691406
ell 361, elapsed: 0.0005280971527099609
ell 360, elapsed: 0.0005500316619873047
ell 359, elapsed: 0.0005359649658203125
ell 358, elapsed: 0.0006308555603027344
ell 352, elapsed: 0.00096893310546875
ell 351, elapsed: 0.0005519390106201172
ell 350, elapsed: 0.0005447864532470703
ell 349, elapsed: 0.0005650520324707031
ell 348, elapsed: 0.0005421638488769531
ell 342, elapsed: 0.0009751319885253906
ell 341, elapsed: 0.0005350112915039062
ell 340, elapsed: 0.0005450248718261719
ell 339, elapsed: 0.0005500316619873047
ell 338, elapsed: 0.0005428791046142578
ell 332, elapsed: 0.0010559558868408203
ell 331, elapsed: 0.0005240440368652344
ell 330, elapsed: 0.0005412101745605469
ell 329, elapsed: 0.0005359649658203125
ell 328, elapsed: 0.0005490779876708984
ell 322, elapsed: 0.0010521411895751953
ell 321, elapsed: 0.0005371570587158203
ell 320, elapsed: 0.0005519390106201172
ell 319, elapsed: 0.0005459785461425781
ell 318, elapsed: 0.0005521774291992188
ell 312, elapsed: 0.0009770393371582031
ell 311, elapsed: 0.0005741119384765625
ell 310, elapsed: 0.0005450248718261719
ell 309, elapsed: 0.0005278587341308594
ell 308, elapsed: 0.0005381107330322266
ell 302, elapsed: 0.0009379386901855469
ell 301, elapsed: 0.0005300045013427734
ell 300, elapsed: 0.0005350112915039062
ell 299, elapsed: 0.0005810260772705078
ell 298, elapsed: 0.0005509853363037109
ell 292, elapsed: 0.0009789466857910156
ell 291, elapsed: 0.0005290508270263672
ell 290, elapsed: 0.0005459785461425781
ell 289, elapsed: 0.0005369186401367188
ell 288, elapsed: 0.0009558200836181641
ell 282, elapsed: 0.000982046127319336
ell 281, elapsed: 0.0005321502685546875
ell 280, elapsed: 0.0005431175231933594
ell 279, elapsed: 0.0005419254302978516
ell 278, elapsed: 0.0005359649658203125
ell 272, elapsed: 0.0015320777893066406
ell 271, elapsed: 0.0005359649658203125
ell 270, elapsed: 0.0005509853363037109
ell 269, elapsed: 0.0005371570587158203
ell 268, elapsed: 0.0005481243133544922
ell 262, elapsed: 0.0014920234680175781
ell 261, elapsed: 0.0005381107330322266
ell 260, elapsed: 0.0005469322204589844
ell 259, elapsed: 0.0005328655242919922
ell 258, elapsed: 0.0005419254302978516
ell 252, elapsed: 0.0015270709991455078
ell 251, elapsed: 0.0005488395690917969
ell 250, elapsed: 0.0005469322204589844
ell 249, elapsed: 0.0005300045013427734
ell 248, elapsed: 0.0005390644073486328
ell 242, elapsed: 0.0014548301696777344
ell 241, elapsed: 0.0005290508270263672
ell 240, elapsed: 0.0005450248718261719
ell 239, elapsed: 0.0005290508270263672
ell 238, elapsed: 0.0005409717559814453
ell 232, elapsed: 0.0010190010070800781
ell 231, elapsed: 0.0005400180816650391
ell 230, elapsed: 0.000537872314453125
ell 229, elapsed: 0.0005311965942382812
ell 228, elapsed: 0.0005340576171875
ell 222, elapsed: 0.0009732246398925781
ell 221, elapsed: 0.0010700225830078125
ell 220, elapsed: 0.0005400180816650391
ell 219, elapsed: 0.0005290508270263672
ell 218, elapsed: 0.0005490779876708984
ell 212, elapsed: 0.0009400844573974609
ell 211, elapsed: 0.0005400180816650391
ell 210, elapsed: 0.0010390281677246094
ell 209, elapsed: 0.0005321502685546875
ell 208, elapsed: 0.0005521774291992188
ell 202, elapsed: 0.0009679794311523438
ell 201, elapsed: 0.0005290508270263672
ell 200, elapsed: 0.005037069320678711
ell 199, elapsed: 0.0005688667297363281
ell 198, elapsed: 0.0005440711975097656
ell 192, elapsed: 0.0009491443634033203
ell 191, elapsed: 0.000514984130859375
ell 190, elapsed: 0.0005218982696533203
ell 189, elapsed: 0.001007080078125
ell 188, elapsed: 0.0005278587341308594
ell 182, elapsed: 0.0009348392486572266
ell 181, elapsed: 0.0005190372467041016
ell 180, elapsed: 0.0005321502685546875
ell 179, elapsed: 0.0010180473327636719
ell 178, elapsed: 0.0005249977111816406
ell 172, elapsed: 0.0009179115295410156
ell 171, elapsed: 0.0005309581756591797
ell 170, elapsed: 0.0005459785461425781
ell 169, elapsed: 0.0005300045013427734
ell 168, elapsed: 0.0011081695556640625
ell 162, elapsed: 0.0009551048278808594
ell 161, elapsed: 0.0005321502685546875
ell 160, elapsed: 0.0005409717559814453
ell 159, elapsed: 0.0005228519439697266
ell 158, elapsed: 0.001032114028930664
ell 152, elapsed: 0.000965118408203125
ell 151, elapsed: 0.0005288124084472656
ell 150, elapsed: 0.0005409717559814453
ell 149, elapsed: 0.0005691051483154297
ell 148, elapsed: 0.0005519390106201172
ell 142, elapsed: 0.0018310546875
ell 141, elapsed: 0.0008800029754638672
ell 140, elapsed: 0.0005290508270263672
ell 139, elapsed: 0.0005359649658203125
ell 138, elapsed: 0.0008280277252197266
ell 132, elapsed: 0.0009369850158691406
ell 131, elapsed: 0.0005218982696533203
ell 130, elapsed: 0.0005550384521484375
ell 129, elapsed: 0.0005319118499755859
ell 128, elapsed: 0.0005490779876708984
ell 122, elapsed: 0.001024007797241211
ell 121, elapsed: 0.0005431175231933594
ell 120, elapsed: 0.0005488395690917969
ell 119, elapsed: 0.0005359649658203125
ell 118, elapsed: 0.0005500316619873047
ell 112, elapsed: 0.0009260177612304688
ell 111, elapsed: 0.0006000995635986328
ell 110, elapsed: 0.0005500316619873047
ell 109, elapsed: 0.0005450248718261719
ell 108, elapsed: 0.0005450248718261719
ell 102, elapsed: 0.0009729862213134766
ell 101, elapsed: 0.002351045608520508
ell 100, elapsed: 0.0023598670959472656
ell 99, elapsed: 0.0023381710052490234
ell 98, elapsed: 0.0023360252380371094
ell 92, elapsed: 0.0044651031494140625
ell 91, elapsed: 0.002323150634765625
ell 90, elapsed: 0.0023648738861083984
ell 89, elapsed: 0.002370119094848633
ell 88, elapsed: 0.0022869110107421875
ell 82, elapsed: 0.004455089569091797
ell 81, elapsed: 0.002315044403076172
ell 80, elapsed: 0.002290010452270508
ell 79, elapsed: 0.002315044403076172
ell 78, elapsed: 0.0023300647735595703
ell 72, elapsed: 0.004388093948364258
ell 71, elapsed: 0.002285003662109375
ell 70, elapsed: 0.0023310184478759766
ell 69, elapsed: 0.002293109893798828
ell 68, elapsed: 0.002309083938598633
ell 62, elapsed: 0.004456996917724609
ell 61, elapsed: 0.0024521350860595703
ell 60, elapsed: 0.002382993698120117
ell 59, elapsed: 0.0024518966674804688
ell 58, elapsed: 0.0023889541625976562
ell 52, elapsed: 0.004577159881591797
ell 51, elapsed: 0.0023109912872314453
ell 50, elapsed: 0.002357959747314453
ell 49, elapsed: 0.002309083938598633
ell 48, elapsed: 0.0023069381713867188
ell 42, elapsed: 0.004579067230224609
ell 41, elapsed: 0.002334117889404297
ell 40, elapsed: 0.002321004867553711
ell 39, elapsed: 0.0023250579833984375
ell 38, elapsed: 0.0023450851440429688
ell 32, elapsed: 0.004480838775634766
ell 31, elapsed: 0.0022950172424316406
ell 30, elapsed: 0.002315044403076172
ell 29, elapsed: 0.0023140907287597656
ell 28, elapsed: 0.0023241043090820312
ell 22, elapsed: 0.004340171813964844
ell 21, elapsed: 0.002279996871948242
ell 20, elapsed: 0.0022211074829101562
ell 19, elapsed: 0.0022737979888916016
ell 18, elapsed: 0.0022771358489990234
ell 12, elapsed: 0.0044820308685302734
ell 11, elapsed: 0.002285003662109375
ell 10, elapsed: 0.002332925796508789
ell 9, elapsed: 0.0023009777069091797
ell 8, elapsed: 0.002309083938598633
  0.507667 seconds (68.56 k allocations: 12.176 MiB)
elapsed: 0.002805948257446289
step:          0.042632 sec (0 allocations: 0 byte, 0.0% gc time)
swapping:      0.000425 sec (0 allocations: 0 byte, 0.0% gc time)
calc_Mellell!: 0.01998 sec (0 allocations: 0 byte, 0.0% gc time)
  t0 :  0.006582 sec (0 allocations: 0 byte, 0.0% gc time)
  tm2 : 0.05022 sec (0 allocations: 0 byte, 0.0% gc time)
  tm2s: 0.005644 sec (0 allocations: 0 byte, 0.0% gc time)
  tm4 : 0.114939 sec (0 allocations: 0 byte, 0.0% gc time)
  tp2 : 0.0 sec (0 allocations: 0 byte, 0.0% gc time)
  tp2s: 0.0 sec (0 allocations: 0 byte, 0.0% gc time)
  tp4 : 0.0 sec (0 allocations: 0 byte, 0.0% gc time)
calc_wtdll!:   0.373143 sec (48.6 k allocations: 11.096 MB, 0.0% gc time)
calc_wljj!:    0.021428 sec (69 allocations: 1.078 KB, 0.0% gc time)
mult_prefac!:  0.0 sec (0 allocations: 0 byte, 0.0% gc time)
convert:       0.0 sec (0 allocations: 0 byte, 0.0% gc time)
write:         0.023159 sec (0 allocations: 0 byte, 0.0% gc time)
test_rand_2f1: 0.0 sec (0 allocations: 0 byte, 0.0% gc time)
Closing outfile out/MlCache/MlCache.bin...   0.000010 seconds
xi, l=0, nu=0:   0.252887 seconds (602.83 k allocations: 32.970 MiB, 99.34% compilation time)
xi, l=0, nu=-2:  0.001427 seconds (114 allocations: 148.969 KiB)
Created 'out/xi.tsv'.
  q=1.1, R=0.6:	  0.418751 seconds (264.58 k allocations: 38.109 MiB, 4.36% gc time)
  q=1.1, R=0.7:	  0.484544 seconds (276.43 k allocations: 40.113 MiB, 2.80% gc time)
  q=1.1, R=0.8:	  0.495807 seconds (271.87 k allocations: 39.334 MiB, 3.27% gc time)
  q=1.1, R=0.9:	  0.546217 seconds (266.68 k allocations: 38.464 MiB, 1.14% gc time)
  q=1.1, R=0.998:	 14.794144 seconds (114.96 k allocations: 7.588 MiB)
  q=1.1, R=1.0:	  0.002966 seconds (8.20 k allocations: 704.344 KiB)

ℓ = 1000
Δℓ = 4
ΔℓRg1 = -4
N = 4096
q = 1.1
kmin = 1.0e-5
kmax = 1000.0
χ0 = 0.001
RR = RR.tsv
ℓmax = ℓmax.bin
f21 = f21.bin
kmin = 1.0e-5
kmax = 1000.0
dlrec    = 4
dlrecRg1 = -4
Output size: 1573632 bytes = 0.0014655590057373047 GiB
Output size: 786816 bytes = 0.0007327795028686523 GiB
Reading 'out/F21EllCache'...   0.001151 seconds (198 allocations: 533.078 KiB)
ellmax: 1002
lmaxcache: 1000
fell[:,1,1] = ComplexF64[1.726292812820208e-224 - 4.2281979352226965e-240im, 1.7282693092099638e-224 - 4.233038955177178e-240im]
ell 1002, elapsed: 2.09808349609375e-5
ell 1001, elapsed: 0.0004420280456542969
ell 1000, elapsed: 0.0004189014434814453
ell 999, elapsed: 0.003799915313720703
ell 998, elapsed: 0.003799915313720703
ell 44, elapsed: 0.6043851375579834
ell 43, elapsed: 0.0038118362426757812
ell 42, elapsed: 0.003782033920288086
ell 41, elapsed: 0.003847837448120117
ell 40, elapsed: 0.0038797855377197266
  0.633045 seconds (4.59 k allocations: 321.938 KiB)
elapsed: 0.004633903503417969
step:          0.600206 sec (0 allocations: 0 byte, 0.0% gc time)
swapping:      0.000453 sec (0 allocations: 0 byte, 0.0% gc time)
calc_Mellell!: 0.000673 sec (0 allocations: 0 byte, 0.0% gc time)
  t0 :  0.000219 sec (0 allocations: 0 byte, 0.0% gc time)
  tm2 : 0.007284 sec (0 allocations: 0 byte, 0.0% gc time)
  tm2s: 0.000196 sec (0 allocations: 0 byte, 0.0% gc time)
  tm4 : 0.017495 sec (0 allocations: 0 byte, 0.0% gc time)
  tp2 : 0.0 sec (0 allocations: 0 byte, 0.0% gc time)
  tp2s: 0.0 sec (0 allocations: 0 byte, 0.0% gc time)
  tp4 : 0.0 sec (0 allocations: 0 byte, 0.0% gc time)
calc_wtdll!:   0.025329 sec (480 allocations: 52.5 KB, 0.0% gc time)
calc_wljj!:    0.000906 sec (1 allocations: 16 byte, 0.0% gc time)
mult_prefac!:  0.0 sec (0 allocations: 0 byte, 0.0% gc time)
convert:       0.0 sec (0 allocations: 0 byte, 0.0% gc time)
write:         0.000667 sec (0 allocations: 0 byte, 0.0% gc time)
test_rand_2f1: 0.0 sec (0 allocations: 0 byte, 0.0% gc time)
Closing outfile out/MlCache/MlCache.bin...   0.000009 seconds
  0.403490 seconds (38 allocations: 66.859 KiB)
make_phi():   0.005898 seconds (65 allocations: 275.984 KiB)
  0.039203 seconds (11.42 k allocations: 711.960 KiB, 90.71% compilation time)
tskip:       1.0e-6 sec (0 allocations: 0 byte, 0.0% gc time)
tread:       0.000731 sec (17 allocations: 1.266 KB, 0.0% gc time)
tmultphi:    0.00023 sec (0 allocations: 0 byte, 0.0% gc time)
tbrfft:      0.001042 sec (0 allocations: 0 byte, 0.0% gc time)
tmultprefac: 0.00045 sec (0 allocations: 0 byte, 0.0% gc time)
toutfunc:    8.8e-5 sec (0 allocations: 0 byte, 0.0% gc time)
Created 'out/wl42_jj00.tsv'.
Created 'out/wl42_jj02.tsv'.
    Testing TwoFAST tests passed 
