Julia Version 1.6.0-DEV.1117
Commit 36effbe10a (2020-10-02 17:38 UTC)
Platform Info:
  OS: Linux (x86_64-linux-gnu)
  CPU: AMD EPYC 7502 32-Core Processor
  WORD_SIZE: 64
  LIBM: libopenlibm
  LLVM: libLLVM-10.0.1 (ORCJIT, znver2)
Environment:
  JULIA_DEPOT_PATH = ::/usr/local/share/julia
  JULIA_NUM_THREADS = 2

  Resolving package versions...
  Installed FFTW_jll ───────────────────── v3.3.9+5
  Installed CompilerSupportLibraries_jll ─ v0.3.3+0
  Installed OpenSpecFun_jll ────────────── v0.5.3+3
  Installed Reexport ───────────────────── v0.2.0
  Installed GenericSVD ─────────────────── v0.3.0
  Installed SpecialFunctions ───────────── v0.10.3
  Installed FFTW ───────────────────────── v1.2.4
  Installed MKL_jll ────────────────────── v2020.2.254+0
  Installed Readables ──────────────────── v0.3.3
  Installed IntelOpenMP_jll ────────────── v2018.0.3+0
  Installed AbstractFFTs ───────────────── v0.5.0
  Installed TwoFAST ────────────────────── v0.1.3
  Installed BinaryProvider ─────────────── v0.5.10
  Installed GenericSchur ───────────────── v0.4.0
  Installed ArbNumerics ────────────────── v1.2.1
Updating `~/.julia/environments/v1.6/Project.toml`
  [0dd23c3e] + TwoFAST v0.1.3
Updating `~/.julia/environments/v1.6/Manifest.toml`
  [621f4979] + AbstractFFTs v0.5.0
  [7e558dbc] + ArbNumerics v1.2.1
  [b99e7846] + BinaryProvider v0.5.10
  [e66e0078] + CompilerSupportLibraries_jll v0.3.3+0
  [7a1cc6ca] + FFTW v1.2.4
  [f5851436] + FFTW_jll v3.3.9+5
  [01680d73] + GenericSVD v0.3.0
  [c145ed77] + GenericSchur v0.4.0
  [1d5cc7b8] + IntelOpenMP_jll v2018.0.3+0
  [856f044c] + MKL_jll v2020.2.254+0
  [efe28fd5] + OpenSpecFun_jll v0.5.3+3
  [0d4725de] + Readables v0.3.3
  [189a3867] + Reexport v0.2.0
  [276daf66] + SpecialFunctions v0.10.3
  [0dd23c3e] + TwoFAST v0.1.3
  [56f22d72] + Artifacts
  [2a0f44e3] + Base64
  [ade2ca70] + Dates
  [8bb1440f] + DelimitedFiles
  [8ba89e20] + Distributed
  [b77e0a4c] + InteractiveUtils
  [76f85450] + LibGit2
  [8f399da3] + Libdl
  [37e2e46d] + LinearAlgebra
  [56ddb016] + Logging
  [d6f4376e] + Markdown
  [a63ad114] + Mmap
  [44cfe95a] + Pkg
  [de0858da] + Printf
  [3fa0cd96] + REPL
  [9a3f8284] + Random
  [ea8e919c] + SHA
  [9e88b42a] + Serialization
  [6462fe0b] + Sockets
  [fa267f1f] + TOML
  [8dfed614] + Test
  [cf7118a7] + UUIDs
  [4ec0a83e] + Unicode
   Building FFTW ───────→ `~/.julia/scratchspaces/44cfe95a-1eb2-52ea-b672-e2afdf69b78f/8b7c16b56936047ca41bf25effa137ae0b381ae8/build.log`
   Building ArbNumerics → `~/.julia/scratchspaces/44cfe95a-1eb2-52ea-b672-e2afdf69b78f/329a81d67c64e3a51c176a243b6424fbe39213d0/build.log`
    Testing TwoFAST
Status `/tmp/jl_JdRHf5/Project.toml`
  [7e558dbc] ArbNumerics v1.2.1
  [39dd38d3] Dierckx v0.5.0
  [7a1cc6ca] FFTW v1.2.4
  [276daf66] SpecialFunctions v0.10.3
  [0dd23c3e] TwoFAST v0.1.3
  [8bb1440f] DelimitedFiles
  [37e2e46d] LinearAlgebra
  [56ddb016] Logging
  [8dfed614] Test
Status `/tmp/jl_JdRHf5/Manifest.toml`
  [621f4979] AbstractFFTs v0.5.0
  [7e558dbc] ArbNumerics v1.2.1
  [b99e7846] BinaryProvider v0.5.10
  [e66e0078] CompilerSupportLibraries_jll v0.3.3+0
  [39dd38d3] Dierckx v0.5.0
  [cd4c43a9] Dierckx_jll v0.0.1+0
  [7a1cc6ca] FFTW v1.2.4
  [f5851436] FFTW_jll v3.3.9+5
  [01680d73] GenericSVD v0.3.0
  [c145ed77] GenericSchur v0.4.0
  [1d5cc7b8] IntelOpenMP_jll v2018.0.3+0
  [856f044c] MKL_jll v2020.2.254+0
  [efe28fd5] OpenSpecFun_jll v0.5.3+3
  [0d4725de] Readables v0.3.3
  [189a3867] Reexport v0.2.0
  [276daf66] SpecialFunctions v0.10.3
  [0dd23c3e] TwoFAST v0.1.3
  [56f22d72] Artifacts
  [2a0f44e3] Base64
  [ade2ca70] Dates
  [8bb1440f] DelimitedFiles
  [8ba89e20] Distributed
  [b77e0a4c] InteractiveUtils
  [76f85450] LibGit2
  [8f399da3] Libdl
  [37e2e46d] LinearAlgebra
  [56ddb016] Logging
  [d6f4376e] Markdown
  [a63ad114] Mmap
  [44cfe95a] Pkg
  [de0858da] Printf
  [3fa0cd96] REPL
  [9a3f8284] Random
  [ea8e919c] SHA
  [9e88b42a] Serialization
  [6462fe0b] Sockets
  [fa267f1f] TOML
  [8dfed614] Test
  [cf7118a7] UUIDs
  [4ec0a83e] Unicode
    Testing Running tests...
WARNING: could not import Printf.ini_hex into ArbNumerics
WARNING: could not import Printf.ini_HEX into ArbNumerics
t = 0.0 sec (0 allocations: 0 byte, 0.0% gc time)
typeof(t) = NamedTuple{(:value, :time, :bytes, :gctime, :gcstats), Tuple{DataType, Float64, Int64, Float64, Base.GC_Diff}}
TwoFAST.PerformanceStats.TimedType = Union{NamedTuple{(:value, :time, :bytes, :gctime, :gcstats), Tuple{T, Float64, Int64, Float64, Base.GC_Diff}}, Tuple{Any, Float64, Int64, Float64, Base.GC_Diff}} where T
t = 0.0 sec (0 allocations: 0 byte, 0.0% gc time)
t: 0.0 sec (0 allocations: 0 byte, 0.0% gc time)
Testing ξ(r), ℓ=0, ν=-1 ... passed
Testing ξ(r), ℓ=0, ν=0 ... passed
Testing ξ(r), ℓ=0, ν=1 ... passed
Testing ξ(r), ℓ=0, ν=2 ... passed
Testing ξ(r), ℓ=0, ν=3 ... passed
Testing ξ(r), ℓ=1, ν=0 ... passed
Testing ξ(r), ℓ=1, ν=1 ... passed
Testing ξ(r), ℓ=1, ν=2 ... passed
Testing ξ(r), ℓ=1, ν=3 ... passed
Testing ξ(r), ℓ=2, ν=-1 ... passed
Testing ξ(r), ℓ=2, ν=0 ... passed
Testing ξ(r), ℓ=2, ν=1 ... passed
Testing ξ(r), ℓ=2, ν=2 ... passed
Testing ξ(r), ℓ=2, ν=3 ... passed
Testing ξ(r), ℓ=3, ν=-1 ... passed
Testing ξ(r), ℓ=3, ν=0 ... passed
Testing ξ(r), ℓ=3, ν=1 ... passed
Testing ξ(r), ℓ=3, ν=2 ... passed
Testing ξ(r), ℓ=3, ν=3 ... passed
Testing ξ(r), ℓ=4, ν=-1 ... passed
Testing ξ(r), ℓ=4, ν=0 ... passed
Testing ξ(r), ℓ=4, ν=1 ... passed
Testing ξ(r), ℓ=4, ν=2 ... passed
Testing ξ(r), ℓ=4, ν=3 ... passed
Testing ξ(r) ... passed
Testing ξ′(r) ... passed
Testing ξ″(r) ... passed
Calculating fmax: 
  dlrec    = 4
  dlrecRg1 = -4
  q=1.1, R=1.1:	  3.660094 seconds (842.99 k allocations: 53.902 MiB, 1.48% gc time, 90.31% compilation time)

  3.680701 seconds (855.48 k allocations: 54.690 MiB, 1.47% gc time, 90.35% compilation time)
ℓ = 1202
Δℓ = 4
ΔℓRg1 = -4
N = 1600
q = 1.1
kmin = 1.0e-5
kmax = 100000.00000000004
χ0 = 0.023029999999999995
RR = RR.tsv
ℓmax = ℓmax.bin
f21 = f21.bin
kmin = 1.0e-5
kmax = 100000.0
dlrec    = 4
dlrecRg1 = -4
Output size: 5741568 bytes = 0.005347251892089844 GiB
Output size: 51264 bytes = 4.774332046508789e-5 GiB
Reading 'out/F21EllCache'...   0.648426 seconds (426.51 k allocations: 25.000 MiB, 4.76% gc time, 99.58% compilation time)
ellmax: 1202
lmaxcache: 1202
fell[:,1,1] = ComplexF64[3.9583795592771634e-52 - 9.695233714158177e-68im, 3.990121772925759e-52 - 9.772979714843386e-68im]
ell 1202, elapsed: 3.3855438232421875e-5
ell 1201, elapsed: 1.1028940677642822
ell 1200, elapsed: 0.00040912628173828125
ell 1199, elapsed: 0.0003781318664550781
ell 1198, elapsed: 0.0003790855407714844
ell 1002, elapsed: 0.008434057235717773
ell 1001, elapsed: 0.0003859996795654297
ell 1000, elapsed: 0.00037598609924316406
ell 999, elapsed: 0.0003750324249267578
ell 998, elapsed: 0.0004050731658935547
ell 902, elapsed: 0.004277944564819336
ell 901, elapsed: 0.0003819465637207031
ell 900, elapsed: 0.0003769397735595703
ell 899, elapsed: 0.0003838539123535156
ell 898, elapsed: 0.0003848075866699219
ell 802, elapsed: 0.004358053207397461
ell 801, elapsed: 0.00038695335388183594
ell 800, elapsed: 0.00038886070251464844
ell 799, elapsed: 0.00039696693420410156
ell 798, elapsed: 0.0004889965057373047
ell 702, elapsed: 0.004435062408447266
ell 701, elapsed: 0.0003972053527832031
ell 700, elapsed: 0.00037980079650878906
ell 699, elapsed: 0.0003781318664550781
ell 698, elapsed: 0.0003769397735595703
ell 602, elapsed: 0.004277229309082031
ell 601, elapsed: 0.00038695335388183594
ell 600, elapsed: 0.0003821849822998047
ell 599, elapsed: 0.0003769397735595703
ell 598, elapsed: 0.0004210472106933594
ell 502, elapsed: 0.004278898239135742
ell 501, elapsed: 0.0003750324249267578
ell 500, elapsed: 0.000370025634765625
ell 499, elapsed: 0.0003809928894042969
ell 498, elapsed: 0.0003731250762939453
ell 402, elapsed: 0.004230976104736328
ell 401, elapsed: 0.0003898143768310547
ell 400, elapsed: 0.0003788471221923828
ell 399, elapsed: 0.0003781318664550781
ell 398, elapsed: 0.00037789344787597656
ell 302, elapsed: 0.004326820373535156
ell 301, elapsed: 0.0003800392150878906
ell 300, elapsed: 0.00037384033203125
ell 299, elapsed: 0.0003750324249267578
ell 298, elapsed: 0.00038695335388183594
ell 202, elapsed: 0.0042819976806640625
ell 201, elapsed: 0.0003809928894042969
ell 200, elapsed: 0.00037598609924316406
ell 199, elapsed: 0.0003769397735595703
ell 198, elapsed: 0.0003819465637207031
ell 152, elapsed: 0.002292156219482422
ell 151, elapsed: 0.0003800392150878906
ell 150, elapsed: 0.00038504600524902344
ell 149, elapsed: 0.0003800392150878906
ell 148, elapsed: 0.0003790855407714844
ell 127, elapsed: 0.0012540817260742188
ell 126, elapsed: 0.0003819465637207031
ell 125, elapsed: 0.00037789344787597656
ell 124, elapsed: 0.0003848075866699219
ell 123, elapsed: 0.00037598609924316406
ell 114, elapsed: 0.0007469654083251953
ell 113, elapsed: 0.00037598609924316406
ell 112, elapsed: 0.0005209445953369141
ell 111, elapsed: 0.00037980079650878906
ell 110, elapsed: 0.00037598609924316406
ell 102, elapsed: 0.0007259845733642578
ell 101, elapsed: 0.0003809928894042969
ell 100, elapsed: 0.00037789344787597656
ell 99, elapsed: 0.0003800392150878906
ell 98, elapsed: 0.0003788471221923828
ell 97, elapsed: 0.0004241466522216797
ell 96, elapsed: 0.0005300045013427734
ell 95, elapsed: 0.00041985511779785156
ell 94, elapsed: 0.00041103363037109375
ell 93, elapsed: 0.0004220008850097656
ell 92, elapsed: 0.0004150867462158203
ell 91, elapsed: 0.0004200935363769531
ell 90, elapsed: 0.0004169940948486328
ell 89, elapsed: 0.0004131793975830078
ell 88, elapsed: 0.0004220008850097656
ell 87, elapsed: 0.0005278587341308594
ell 86, elapsed: 0.0004229545593261719
ell 85, elapsed: 0.0004150867462158203
ell 84, elapsed: 0.0004189014434814453
ell 83, elapsed: 0.00041604042053222656
ell 82, elapsed: 0.00041604042053222656
ell 81, elapsed: 0.0004189014434814453
ell 80, elapsed: 0.00041484832763671875
ell 79, elapsed: 0.000431060791015625
ell 78, elapsed: 0.0005819797515869141
ell 77, elapsed: 0.0004191398620605469
ell 76, elapsed: 0.00042319297790527344
ell 75, elapsed: 0.0004138946533203125
ell 74, elapsed: 0.00042891502380371094
ell 73, elapsed: 0.00041294097900390625
ell 72, elapsed: 0.00041794776916503906
ell 71, elapsed: 0.0004191398620605469
ell 70, elapsed: 0.0004220008850097656
ell 69, elapsed: 0.0005278587341308594
ell 68, elapsed: 0.00041794776916503906
ell 67, elapsed: 0.0004210472106933594
ell 66, elapsed: 0.0004229545593261719
ell 65, elapsed: 0.00041413307189941406
ell 64, elapsed: 0.00042700767517089844
ell 63, elapsed: 0.0004150867462158203
ell 62, elapsed: 0.0004181861877441406
ell 61, elapsed: 0.00041604042053222656
ell 60, elapsed: 0.0005230903625488281
ell 59, elapsed: 0.0004298686981201172
ell 58, elapsed: 0.0004181861877441406
ell 57, elapsed: 0.00041985511779785156
ell 56, elapsed: 0.00042510032653808594
ell 55, elapsed: 0.0004260540008544922
ell 54, elapsed: 0.0004248619079589844
ell 53, elapsed: 0.0004169940948486328
ell 52, elapsed: 0.00041413307189941406
ell 51, elapsed: 0.0005440711975097656
ell 50, elapsed: 0.0004279613494873047
ell 49, elapsed: 0.00042510032653808594
ell 48, elapsed: 0.00041794776916503906
ell 47, elapsed: 0.0004241466522216797
ell 46, elapsed: 0.00043082237243652344
ell 45, elapsed: 0.0004220008850097656
ell 44, elapsed: 0.00042700767517089844
ell 43, elapsed: 0.0004220008850097656
ell 42, elapsed: 0.00043082237243652344
ell 41, elapsed: 0.00042891502380371094
ell 40, elapsed: 0.0004279613494873047
ell 39, elapsed: 0.0004291534423828125
ell 38, elapsed: 0.0004229545593261719
ell 37, elapsed: 0.0004248619079589844
ell 36, elapsed: 0.00043487548828125
ell 35, elapsed: 0.0004279613494873047
ell 34, elapsed: 0.0005772113800048828
ell 33, elapsed: 0.00043082237243652344
ell 32, elapsed: 0.0004229545593261719
ell 31, elapsed: 0.00043487548828125
ell 30, elapsed: 0.0004220008850097656
ell 29, elapsed: 0.00043487548828125
ell 28, elapsed: 0.0004210472106933594
ell 27, elapsed: 0.0004229545593261719
ell 26, elapsed: 0.00041484832763671875
ell 25, elapsed: 0.0005362033843994141
ell 24, elapsed: 0.00043392181396484375
ell 23, elapsed: 0.00041484832763671875
ell 22, elapsed: 0.0004260540008544922
ell 21, elapsed: 0.00041794776916503906
ell 20, elapsed: 0.0004241466522216797
ell 19, elapsed: 0.00043511390686035156
ell 18, elapsed: 0.0004229545593261719
ell 17, elapsed: 0.0004279613494873047
ell 16, elapsed: 0.0005300045013427734
ell 15, elapsed: 0.0004229545593261719
ell 14, elapsed: 0.00043392181396484375
ell 13, elapsed: 0.0004229545593261719
ell 12, elapsed: 0.00043010711669921875
ell 11, elapsed: 0.000431060791015625
ell 10, elapsed: 0.0004279613494873047
ell 9, elapsed: 0.00043487548828125
ell 8, elapsed: 0.0004260540008544922
ell 7, elapsed: 0.0005528926849365234
ell 6, elapsed: 0.00042700767517089844
ell 5, elapsed: 0.0004200935363769531
ell 4, elapsed: 0.0004439353942871094
ell 3, elapsed: 0.00042510032653808594
ell 2, elapsed: 0.010177850723266602
ell 1, elapsed: 0.0004341602325439453
ell 0, elapsed: 0.0004391670227050781
  1.610901 seconds (1.38 M allocations: 74.479 MiB, 2.71% gc time, 92.18% compilation time)
elapsed: 0.0005049705505371094
step:          0.329582 sec (311.14 k allocations: 16.963 MB, 7.34% gc time)
swapping:      0.000312 sec (0 allocations: 0 byte, 0.0% gc time)
calc_Mellell!: 0.120395 sec (135.739 k allocations: 7.431 MB, 0.0% gc time)
  t0 :  0.0 sec (0 allocations: 0 byte, 0.0% gc time)
  tm2 : 0.0 sec (0 allocations: 0 byte, 0.0% gc time)
  tm2s: 0.0 sec (0 allocations: 0 byte, 0.0% gc time)
  tm4 : 0.0 sec (0 allocations: 0 byte, 0.0% gc time)
  tp2 : 0.0 sec (0 allocations: 0 byte, 0.0% gc time)
  tp2s: 0.0 sec (0 allocations: 0 byte, 0.0% gc time)
  tp4 : 0.0 sec (0 allocations: 0 byte, 0.0% gc time)
calc_wtdll!:   0.766291 sec (509.622 k allocations: 28.196 MB, 0.0% gc time)
calc_wljj!:    0.002131 sec (6 allocations: 96 byte, 0.0% gc time)
mult_prefac!:  0.0 sec (0 allocations: 0 byte, 0.0% gc time)
convert:       0.0 sec (0 allocations: 0 byte, 0.0% gc time)
write:         0.00287 sec (0 allocations: 0 byte, 0.0% gc time)
test_rand_2f1: 0.0 sec (0 allocations: 0 byte, 0.0% gc time)
Closing outfile out/Ml21-cache.bin...   0.000012 seconds
  1.009428 seconds (246.25 k allocations: 14.211 MiB, 46.60% compilation time)
make_phi():   0.008944 seconds (8.18 k allocations: 237.844 KiB)
  0.216622 seconds (87.57 k allocations: 4.749 MiB, 94.56% compilation time)
tskip:       1.5e-5 sec (0 allocations: 0 byte, 0.0% gc time)
tread:       0.001865 sec (17 allocations: 2.125 KB, 0.0% gc time)
tmultphi:    0.037235 sec (21.425 k allocations: 1.287 MB, 0.0% gc time)
tbrfft:      0.003231 sec (0 allocations: 0 byte, 0.0% gc time)
tmultprefac: 0.001616 sec (0 allocations: 0 byte, 0.0% gc time)
toutfunc:    0.140285 sec (64.483 k allocations: 3.33 MB, 0.0% gc time)
Testing R=1.1 ... passed
Calculating fmax: 
  dlrec    = 4
  dlrecRg1 = -4
  q=1.1, R=1.0:	  0.001199 seconds (3.20 k allocations: 275.344 KiB)

  0.001287 seconds (3.25 k allocations: 310.312 KiB)
ℓ = 1202
Δℓ = 4
ΔℓRg1 = -4
N = 1600
q = 1.1
kmin = 1.0e-5
kmax = 100000.00000000004
χ0 = 0.023029999999999995
RR = RR.tsv
ℓmax = ℓmax.bin
f21 = f21.bin
kmin = 1.0e-5
kmax = 100000.0
dlrec    = 4
dlrecRg1 = -4
Output size: 61465536 bytes = 0.05724424123764038 GiB
Output size: 51264 bytes = 4.774332046508789e-5 GiB
Reading 'out/F21EllCache'...   0.000818 seconds (197 allocations: 84.203 KiB)
ellmax: 1202
lmaxcache: 1202
fell[:,1,1] = ComplexF64[809.6031528389767 - 1.9829558194077161e-13im, 0.0 + 0.0im]
ell 1202, elapsed: 2.6941299438476562e-5
ell 1201, elapsed: 0.013511896133422852
ell 1200, elapsed: 0.012895822525024414
ell 1199, elapsed: 0.0002620220184326172
ell 1198, elapsed: 0.0002651214599609375
ell 1197, elapsed: 0.0003409385681152344
ell 1196, elapsed: 0.0002951622009277344
ell 1195, elapsed: 0.00029587745666503906
ell 1194, elapsed: 0.0002961158752441406
ell 1193, elapsed: 0.00033402442932128906
ell 1192, elapsed: 0.0002970695495605469
ell 1191, elapsed: 0.0002930164337158203
ell 1190, elapsed: 0.00029587745666503906
ell 1189, elapsed: 0.0002970695495605469
ell 1188, elapsed: 0.0002930164337158203
ell 1187, elapsed: 0.0002970695495605469
ell 1186, elapsed: 0.00030112266540527344
ell 1185, elapsed: 0.0003020763397216797
ell 1184, elapsed: 0.0002930164337158203
ell 1183, elapsed: 0.00030612945556640625
ell 1182, elapsed: 0.0002999305725097656
ell 1181, elapsed: 0.0003058910369873047
ell 1180, elapsed: 0.00032591819763183594
ell 1179, elapsed: 0.0002999305725097656
ell 1178, elapsed: 0.00030112266540527344
ell 1177, elapsed: 0.0003020763397216797
ell 1176, elapsed: 0.00031495094299316406
ell 1175, elapsed: 0.00030303001403808594
ell 1174, elapsed: 0.0003020763397216797
ell 1173, elapsed: 0.00030803680419921875
ell 1172, elapsed: 0.0003008842468261719
ell 1171, elapsed: 0.0003077983856201172
ell 1170, elapsed: 0.0003008842468261719
ell 1169, elapsed: 0.0003020763397216797
ell 1168, elapsed: 0.0003459453582763672
ell 1167, elapsed: 0.0003020763397216797
ell 1166, elapsed: 0.0003108978271484375
ell 1165, elapsed: 0.0003039836883544922
ell 1164, elapsed: 0.0002961158752441406
ell 1163, elapsed: 0.00029587745666503906
ell 1162, elapsed: 0.0002899169921875
ell 1161, elapsed: 0.0003120899200439453
ell 1160, elapsed: 0.0002989768981933594
ell 1159, elapsed: 0.00030684471130371094
ell 1158, elapsed: 0.00029206275939941406
ell 1157, elapsed: 0.0002999305725097656
ell 1156, elapsed: 0.0003390312194824219
ell 1155, elapsed: 0.0002989768981933594
ell 1154, elapsed: 0.00031113624572753906
ell 1153, elapsed: 0.0002949237823486328
ell 1152, elapsed: 0.00030612945556640625
ell 1151, elapsed: 0.00030422210693359375
ell 1150, elapsed: 0.0002961158752441406
ell 1149, elapsed: 0.0003008842468261719
ell 1148, elapsed: 0.00030112266540527344
ell 1147, elapsed: 0.0002930164337158203
ell 1146, elapsed: 0.0003018379211425781
ell 1145, elapsed: 0.000286102294921875
ell 1144, elapsed: 0.0002930164337158203
ell 1143, elapsed: 0.0003390312194824219
ell 1142, elapsed: 0.00030303001403808594
ell 1141, elapsed: 0.00030994415283203125
ell 1140, elapsed: 0.0002899169921875
ell 1139, elapsed: 0.000308990478515625
ell 1138, elapsed: 0.00029587745666503906
ell 1137, elapsed: 0.0002951622009277344
ell 1136, elapsed: 0.00030422210693359375
ell 1135, elapsed: 0.0002961158752441406
ell 1134, elapsed: 0.00030493736267089844
ell 1133, elapsed: 0.0002980232238769531
ell 1132, elapsed: 0.00030303001403808594
ell 1131, elapsed: 0.0003390312194824219
ell 1130, elapsed: 0.00030303001403808594
ell 1129, elapsed: 0.0003070831298828125
ell 1128, elapsed: 0.0003008842468261719
ell 1127, elapsed: 0.0002989768981933594
ell 1126, elapsed: 0.00030422210693359375
ell 1125, elapsed: 0.0002980232238769531
ell 1124, elapsed: 0.00030493736267089844
ell 1123, elapsed: 0.0002968311309814453
ell 1122, elapsed: 0.0002949237823486328
ell 1121, elapsed: 0.00030493736267089844
ell 1120, elapsed: 0.000308990478515625
ell 1119, elapsed: 0.0002989768981933594
ell 1118, elapsed: 0.00030994415283203125
ell 1117, elapsed: 0.0002930164337158203
ell 1116, elapsed: 0.0002999305725097656
ell 1115, elapsed: 0.0002980232238769531
ell 1114, elapsed: 0.0003039836883544922
ell 1113, elapsed: 0.0002968311309814453
ell 1112, elapsed: 0.00029397010803222656
ell 1111, elapsed: 0.00030994415283203125
ell 1110, elapsed: 0.0002989768981933594
ell 1109, elapsed: 0.000308990478515625
ell 1108, elapsed: 0.00030303001403808594
ell 1107, elapsed: 0.00030994415283203125
ell 1106, elapsed: 0.0003421306610107422
ell 1105, elapsed: 0.00029587745666503906
ell 1104, elapsed: 0.0002989768981933594
ell 1103, elapsed: 0.0002949237823486328
ell 1102, elapsed: 0.0002949237823486328
ell 1101, elapsed: 0.0002951622009277344
ell 1100, elapsed: 0.00029397010803222656
ell 1099, elapsed: 0.0002980232238769531
ell 1098, elapsed: 0.00029397010803222656
ell 1097, elapsed: 0.0003008842468261719
ell 1096, elapsed: 0.0002951622009277344
ell 1095, elapsed: 0.00029587745666503906
ell 1094, elapsed: 0.0003001689910888672
ell 1093, elapsed: 0.0003218650817871094
ell 1092, elapsed: 0.00030612945556640625
ell 1091, elapsed: 0.0002930164337158203
ell 1090, elapsed: 0.0002980232238769531
ell 1089, elapsed: 0.00030612945556640625
ell 1088, elapsed: 0.00029587745666503906
ell 1087, elapsed: 0.0002961158752441406
ell 1086, elapsed: 0.0002949237823486328
ell 1085, elapsed: 0.00029206275939941406
ell 1084, elapsed: 0.00030803680419921875
ell 1083, elapsed: 0.00030112266540527344
ell 1082, elapsed: 0.000308990478515625
ell 1081, elapsed: 0.0002989768981933594
ell 1080, elapsed: 0.0003349781036376953
ell 1079, elapsed: 0.00030493736267089844
ell 1078, elapsed: 0.0003027915954589844
ell 1077, elapsed: 0.00030612945556640625
ell 1076, elapsed: 0.0003008842468261719
ell 1075, elapsed: 0.0002999305725097656
ell 1074, elapsed: 0.0003058910369873047
ell 1073, elapsed: 0.0003020763397216797
ell 1072, elapsed: 0.0003070831298828125
ell 1071, elapsed: 0.0002980232238769531
ell 1070, elapsed: 0.0002970695495605469
ell 1069, elapsed: 0.00030493736267089844
ell 1068, elapsed: 0.0003509521484375
ell 1067, elapsed: 0.00030994415283203125
ell 1066, elapsed: 0.00030303001403808594
ell 1065, elapsed: 0.00030303001403808594
ell 1064, elapsed: 0.00031185150146484375
ell 1063, elapsed: 0.0002961158752441406
ell 1062, elapsed: 0.0003058910369873047
ell 1061, elapsed: 0.0002999305725097656
ell 1060, elapsed: 0.0003039836883544922
ell 1059, elapsed: 0.00030803680419921875
ell 1058, elapsed: 0.0002970695495605469
ell 1057, elapsed: 0.00030803680419921875
ell 1056, elapsed: 0.0003509521484375
ell 1055, elapsed: 0.00031185150146484375
ell 1054, elapsed: 0.00030303001403808594
ell 1053, elapsed: 0.00030303001403808594
ell 1052, elapsed: 0.00030994415283203125
ell 1051, elapsed: 0.00030517578125
ell 1050, elapsed: 0.0003108978271484375
ell 1049, elapsed: 0.00030493736267089844
ell 1048, elapsed: 0.0003020763397216797
ell 1047, elapsed: 0.00030803680419921875
ell 1046, elapsed: 0.00030112266540527344
ell 1045, elapsed: 0.0003139972686767578
ell 1044, elapsed: 0.0003039836883544922
ell 1043, elapsed: 0.00036787986755371094
ell 1042, elapsed: 0.00030684471130371094
ell 1041, elapsed: 0.0003018379211425781
ell 1040, elapsed: 0.00030994415283203125
ell 1039, elapsed: 0.0003039836883544922
ell 1038, elapsed: 0.0002989768981933594
ell 1037, elapsed: 0.00031280517578125
ell 1036, elapsed: 0.0002999305725097656
ell 1035, elapsed: 0.0003070831298828125
ell 1034, elapsed: 0.00030303001403808594
ell 1033, elapsed: 0.0002999305725097656
ell 1032, elapsed: 0.0003008842468261719
ell 1031, elapsed: 0.00035309791564941406
ell 1030, elapsed: 0.00030112266540527344
ell 1029, elapsed: 0.00029397010803222656
ell 1028, elapsed: 0.00029397010803222656
ell 1027, elapsed: 0.00029778480529785156
ell 1026, elapsed: 0.0003008842468261719
ell 1025, elapsed: 0.0003027915954589844
ell 1024, elapsed: 0.0003108978271484375
ell 1023, elapsed: 0.00030112266540527344
ell 1022, elapsed: 0.00030803680419921875
ell 1021, elapsed: 0.0003070831298828125
ell 1020, elapsed: 0.00030994415283203125
ell 1019, elapsed: 0.00032401084899902344
ell 1018, elapsed: 0.0003020763397216797
ell 1017, elapsed: 0.00030803680419921875
ell 1016, elapsed: 0.0003039836883544922
ell 1015, elapsed: 0.00030493736267089844
ell 1014, elapsed: 0.00030303001403808594
ell 1013, elapsed: 0.00030493736267089844
ell 1012, elapsed: 0.00030803680419921875
ell 1011, elapsed: 0.0002980232238769531
ell 1010, elapsed: 0.0003058910369873047
ell 1009, elapsed: 0.0002970695495605469
ell 1008, elapsed: 0.00030303001403808594
ell 1007, elapsed: 0.0003039836883544922
ell 1006, elapsed: 0.00032210350036621094
ell 1005, elapsed: 0.00030493736267089844
ell 1004, elapsed: 0.0003008842468261719
ell 1003, elapsed: 0.0002949237823486328
ell 1002, elapsed: 0.00031185150146484375
ell 1001, elapsed: 0.0002980232238769531
ell 1000, elapsed: 0.00030803680419921875
ell 999, elapsed: 0.0003039836883544922
ell 998, elapsed: 0.0003108978271484375
ell 997, elapsed: 0.0002989768981933594
ell 996, elapsed: 0.0002989768981933594
ell 995, elapsed: 0.0003058910369873047
ell 994, elapsed: 0.0003459453582763672
ell 993, elapsed: 0.0003058910369873047
ell 992, elapsed: 0.0002970695495605469
ell 991, elapsed: 0.0002980232238769531
ell 990, elapsed: 0.00030803680419921875
ell 989, elapsed: 0.0002980232238769531
ell 988, elapsed: 0.0003020763397216797
ell 987, elapsed: 0.0003018379211425781
ell 986, elapsed: 0.0002970695495605469
ell 985, elapsed: 0.00030994415283203125
ell 984, elapsed: 0.0002970695495605469
ell 983, elapsed: 0.0003070831298828125
ell 982, elapsed: 0.0003330707550048828
ell 981, elapsed: 0.0003018379211425781
ell 980, elapsed: 0.0003120899200439453
ell 979, elapsed: 0.0003039836883544922
ell 978, elapsed: 0.0071620941162109375
ell 977, elapsed: 0.0003478527069091797
ell 976, elapsed: 0.0003077983856201172
ell 975, elapsed: 0.00030803680419921875
ell 974, elapsed: 0.000308990478515625
ell 973, elapsed: 0.00031113624572753906
ell 972, elapsed: 0.00031495094299316406
ell 971, elapsed: 0.0002911090850830078
ell 970, elapsed: 0.00029397010803222656
ell 969, elapsed: 0.00028586387634277344
ell 968, elapsed: 0.0002880096435546875
ell 967, elapsed: 0.0002949237823486328
ell 966, elapsed: 0.0003228187561035156
ell 965, elapsed: 0.00030493736267089844
ell 964, elapsed: 0.0002899169921875
ell 963, elapsed: 0.00028705596923828125
ell 962, elapsed: 0.0002970695495605469
ell 961, elapsed: 0.00028705596923828125
ell 960, elapsed: 0.00029587745666503906
ell 959, elapsed: 0.00029087066650390625
ell 958, elapsed: 0.0002970695495605469
ell 957, elapsed: 0.0002930164337158203
ell 956, elapsed: 0.0002880096435546875
ell 955, elapsed: 0.0002989768981933594
ell 954, elapsed: 0.0002951622009277344
ell 953, elapsed: 0.00035309791564941406
ell 952, elapsed: 0.00029587745666503906
ell 951, elapsed: 0.00028705596923828125
ell 950, elapsed: 0.00045680999755859375
ell 949, elapsed: 0.0002989768981933594
ell 948, elapsed: 0.0002989768981933594
ell 947, elapsed: 0.00029587745666503906
ell 946, elapsed: 0.0002961158752441406
ell 945, elapsed: 0.00029587745666503906
ell 944, elapsed: 0.0002949237823486328
ell 943, elapsed: 0.0003039836883544922
ell 942, elapsed: 0.0002989768981933594
ell 941, elapsed: 0.00033283233642578125
ell 940, elapsed: 0.0003108978271484375
ell 939, elapsed: 0.00029397010803222656
ell 938, elapsed: 0.0003020763397216797
ell 937, elapsed: 0.00030303001403808594
ell 936, elapsed: 0.0003001689910888672
ell 935, elapsed: 0.0003008842468261719
ell 934, elapsed: 0.0002961158752441406
ell 933, elapsed: 0.0002999305725097656
ell 932, elapsed: 0.0002999305725097656
ell 931, elapsed: 0.0002961158752441406
ell 930, elapsed: 0.0003020763397216797
ell 929, elapsed: 0.0003008842468261719
ell 928, elapsed: 0.0015149116516113281
ell 927, elapsed: 0.0003070831298828125
ell 926, elapsed: 0.00030493736267089844
ell 925, elapsed: 0.0002999305725097656
ell 924, elapsed: 0.0003020763397216797
ell 923, elapsed: 0.00030612945556640625
ell 922, elapsed: 0.00029921531677246094
ell 921, elapsed: 0.00030803680419921875
ell 920, elapsed: 0.0002989768981933594
ell 919, elapsed: 0.00030303001403808594
ell 918, elapsed: 0.0003190040588378906
ell 917, elapsed: 0.00031304359436035156
ell 916, elapsed: 0.00030517578125
ell 915, elapsed: 0.0002970695495605469
ell 914, elapsed: 0.0002999305725097656
ell 913, elapsed: 0.0003070831298828125
ell 912, elapsed: 0.0003070831298828125
ell 911, elapsed: 0.0003058910369873047
ell 910, elapsed: 0.0002968311309814453
ell 909, elapsed: 0.0003120899200439453
ell 908, elapsed: 0.0002970695495605469
ell 907, elapsed: 0.0003299713134765625
ell 906, elapsed: 0.0003027915954589844
ell 905, elapsed: 0.0002970695495605469
ell 904, elapsed: 0.00030303001403808594
ell 903, elapsed: 0.00029921531677246094
ell 902, elapsed: 0.0002961158752441406
ell 901, elapsed: 0.0003039836883544922
ell 900, elapsed: 0.00029587745666503906
ell 899, elapsed: 0.0003008842468261719
ell 898, elapsed: 0.0002989768981933594
ell 897, elapsed: 0.0003018379211425781
ell 896, elapsed: 0.00030517578125
ell 895, elapsed: 0.0003437995910644531
ell 894, elapsed: 0.00030612945556640625
ell 893, elapsed: 0.0003008842468261719
ell 892, elapsed: 0.00030112266540527344
ell 891, elapsed: 0.0006520748138427734
ell 890, elapsed: 0.0003237724304199219
ell 889, elapsed: 0.00030612945556640625
ell 888, elapsed: 0.0003039836883544922
ell 887, elapsed: 0.0003058910369873047
ell 886, elapsed: 0.00030493736267089844
ell 885, elapsed: 0.00030112266540527344
ell 884, elapsed: 0.00030684471130371094
ell 883, elapsed: 0.0003349781036376953
ell 882, elapsed: 0.0003101825714111328
ell 881, elapsed: 0.0003039836883544922
ell 880, elapsed: 0.00030684471130371094
ell 879, elapsed: 0.00030493736267089844
ell 878, elapsed: 0.00029397010803222656
ell 877, elapsed: 0.0002989768981933594
ell 876, elapsed: 0.0002880096435546875
ell 875, elapsed: 0.000286102294921875
ell 874, elapsed: 0.0002899169921875
ell 873, elapsed: 0.0003108978271484375
ell 872, elapsed: 0.000308990478515625
ell 871, elapsed: 0.0003631114959716797
ell 870, elapsed: 0.0002830028533935547
ell 869, elapsed: 0.00029397010803222656
ell 868, elapsed: 0.0002930164337158203
ell 867, elapsed: 0.0002970695495605469
ell 866, elapsed: 0.00029087066650390625
ell 865, elapsed: 0.0003139972686767578
ell 864, elapsed: 0.00029206275939941406
ell 863, elapsed: 0.0002949237823486328
ell 862, elapsed: 0.0002970695495605469
ell 861, elapsed: 0.0002930164337158203
ell 860, elapsed: 0.0002989768981933594
ell 859, elapsed: 0.0002951622009277344
ell 858, elapsed: 0.0003268718719482422
ell 857, elapsed: 0.00030303001403808594
ell 856, elapsed: 0.0002899169921875
ell 855, elapsed: 0.0003020763397216797
ell 854, elapsed: 0.0002961158752441406
ell 853, elapsed: 0.0002949237823486328
ell 852, elapsed: 0.00029206275939941406
ell 851, elapsed: 0.0002868175506591797
ell 850, elapsed: 0.0002949237823486328
ell 849, elapsed: 0.0002899169921875
ell 848, elapsed: 0.0002880096435546875
ell 847, elapsed: 0.0002918243408203125
ell 846, elapsed: 0.00028514862060546875
ell 845, elapsed: 0.00033593177795410156
ell 844, elapsed: 0.0002989768981933594
ell 843, elapsed: 0.0002880096435546875
ell 842, elapsed: 0.0002949237823486328
ell 841, elapsed: 0.00029087066650390625
ell 840, elapsed: 0.00029397010803222656
ell 839, elapsed: 0.000286102294921875
ell 838, elapsed: 0.0002989768981933594
ell 837, elapsed: 0.0002980232238769531
ell 836, elapsed: 0.00029206275939941406
ell 835, elapsed: 0.0002949237823486328
ell 834, elapsed: 0.00029015541076660156
ell 833, elapsed: 0.0003409385681152344
ell 832, elapsed: 0.0002930164337158203
ell 831, elapsed: 0.0002911090850830078
ell 830, elapsed: 0.0002951622009277344
ell 829, elapsed: 0.00029397010803222656
ell 828, elapsed: 0.0003161430358886719
ell 827, elapsed: 0.0002961158752441406
ell 826, elapsed: 0.0002989768981933594
ell 825, elapsed: 0.0003058910369873047
ell 824, elapsed: 0.0002989768981933594
ell 823, elapsed: 0.00030303001403808594
ell 822, elapsed: 0.0002999305725097656
ell 821, elapsed: 0.0002961158752441406
ell 820, elapsed: 0.00033402442932128906
ell 819, elapsed: 0.0003020763397216797
ell 818, elapsed: 0.0003008842468261719
ell 817, elapsed: 0.00029587745666503906
ell 816, elapsed: 0.0002951622009277344
ell 815, elapsed: 0.0003039836883544922
ell 814, elapsed: 0.0002970695495605469
ell 813, elapsed: 0.00030303001403808594
ell 812, elapsed: 0.0003058910369873047
ell 811, elapsed: 0.0002989768981933594
ell 810, elapsed: 0.00031113624572753906
ell 809, elapsed: 0.0003001689910888672
ell 808, elapsed: 0.00033092498779296875
ell 807, elapsed: 0.0002989768981933594
ell 806, elapsed: 0.0002961158752441406
ell 805, elapsed: 0.0002951622009277344
ell 804, elapsed: 0.0002970695495605469
ell 803, elapsed: 0.00030803680419921875
ell 802, elapsed: 0.0002980232238769531
ell 801, elapsed: 0.0003039836883544922
ell 800, elapsed: 0.0003001689910888672
ell 799, elapsed: 0.00030112266540527344
ell 798, elapsed: 0.00030112266540527344
ell 797, elapsed: 0.0002989768981933594
ell 796, elapsed: 0.0003020763397216797
ell 795, elapsed: 0.0003490447998046875
ell 794, elapsed: 0.0003039836883544922
ell 793, elapsed: 0.0003020763397216797
ell 792, elapsed: 0.00029778480529785156
ell 791, elapsed: 0.0003039836883544922
ell 790, elapsed: 0.00029397010803222656
ell 789, elapsed: 0.0002980232238769531
ell 788, elapsed: 0.0002968311309814453
ell 787, elapsed: 0.0002951622009277344
ell 786, elapsed: 0.0002999305725097656
ell 785, elapsed: 0.0002911090850830078
ell 784, elapsed: 0.0002989768981933594
ell 783, elapsed: 0.000347137451171875
ell 782, elapsed: 0.00029587745666503906
ell 781, elapsed: 0.0003039836883544922
ell 780, elapsed: 0.0002961158752441406
ell 779, elapsed: 0.0002970695495605469
ell 778, elapsed: 0.00030303001403808594
ell 777, elapsed: 0.0002970695495605469
ell 776, elapsed: 0.0003020763397216797
ell 775, elapsed: 0.0002949237823486328
ell 774, elapsed: 0.0002970695495605469
ell 773, elapsed: 0.00030303001403808594
ell 772, elapsed: 0.0003008842468261719
ell 771, elapsed: 0.0003001689910888672
ell 770, elapsed: 0.0003268718719482422
ell 769, elapsed: 0.0003008842468261719
ell 768, elapsed: 0.00030112266540527344
ell 767, elapsed: 0.0008840560913085938
ell 766, elapsed: 0.00030612945556640625
ell 765, elapsed: 0.0002980232238769531
ell 764, elapsed: 0.00030493736267089844
ell 763, elapsed: 0.00029397010803222656
ell 762, elapsed: 0.000308990478515625
ell 761, elapsed: 0.0003018379211425781
ell 760, elapsed: 0.0002989768981933594
ell 759, elapsed: 0.0003299713134765625
ell 758, elapsed: 0.0002999305725097656
ell 757, elapsed: 0.0002918243408203125
ell 756, elapsed: 0.00030612945556640625
ell 755, elapsed: 0.00030303001403808594
ell 754, elapsed: 0.0003018379211425781
ell 753, elapsed: 0.0003008842468261719
ell 752, elapsed: 0.0002951622009277344
ell 751, elapsed: 0.0002989768981933594
ell 750, elapsed: 0.0002949237823486328
ell 749, elapsed: 0.0002989768981933594
ell 748, elapsed: 0.0002951622009277344
ell 747, elapsed: 0.0003349781036376953
ell 746, elapsed: 0.0002951622009277344
ell 745, elapsed: 0.00029921531677246094
ell 744, elapsed: 0.00030303001403808594
ell 743, elapsed: 0.0002961158752441406
ell 742, elapsed: 0.0003070831298828125
ell 741, elapsed: 0.0002961158752441406
ell 740, elapsed: 0.0002949237823486328
ell 739, elapsed: 0.0002980232238769531
ell 738, elapsed: 0.0002918243408203125
ell 737, elapsed: 0.00030612945556640625
ell 736, elapsed: 0.0002989768981933594
ell 735, elapsed: 0.0002980232238769531
ell 734, elapsed: 0.00035381317138671875
ell 733, elapsed: 0.00025200843811035156
ell 732, elapsed: 0.0002830028533935547
ell 731, elapsed: 0.000308990478515625
ell 730, elapsed: 0.00028896331787109375
ell 729, elapsed: 0.00031304359436035156
ell 728, elapsed: 0.0002942085266113281
ell 727, elapsed: 0.0003018379211425781
ell 726, elapsed: 0.0003001689910888672
ell 725, elapsed: 0.00029587745666503906
ell 724, elapsed: 0.00030303001403808594
ell 723, elapsed: 0.0002961158752441406
ell 722, elapsed: 0.00033283233642578125
ell 721, elapsed: 0.0003039836883544922
ell 720, elapsed: 0.0002942085266113281
ell 719, elapsed: 0.00030422210693359375
ell 718, elapsed: 0.0002999305725097656
ell 717, elapsed: 0.0003058910369873047
ell 716, elapsed: 0.0002980232238769531
ell 715, elapsed: 0.00029921531677246094
ell 714, elapsed: 0.0003020763397216797
ell 713, elapsed: 0.00029587745666503906
ell 712, elapsed: 0.00030994415283203125
ell 711, elapsed: 0.0002968311309814453
ell 710, elapsed: 0.0002989768981933594
ell 709, elapsed: 0.00033593177795410156
ell 708, elapsed: 0.0002980232238769531
ell 707, elapsed: 0.0003209114074707031
ell 706, elapsed: 0.0002949237823486328
ell 705, elapsed: 0.0003020763397216797
ell 704, elapsed: 0.0003039836883544922
ell 703, elapsed: 0.00029206275939941406
ell 702, elapsed: 0.00030803680419921875
ell 701, elapsed: 0.0002880096435546875
ell 700, elapsed: 0.00029206275939941406
ell 699, elapsed: 0.0002970695495605469
ell 698, elapsed: 0.00030493736267089844
ell 697, elapsed: 0.0003540515899658203
ell 696, elapsed: 0.0002989768981933594
ell 695, elapsed: 0.0002930164337158203
ell 694, elapsed: 0.0003039836883544922
ell 693, elapsed: 0.0002892017364501953
ell 692, elapsed: 0.00031685829162597656
ell 691, elapsed: 0.00029397010803222656
ell 690, elapsed: 0.0002930164337158203
ell 689, elapsed: 0.0002989768981933594
ell 688, elapsed: 0.0002899169921875
ell 687, elapsed: 0.0003039836883544922
ell 686, elapsed: 0.0002911090850830078
ell 685, elapsed: 0.0002880096435546875
ell 684, elapsed: 0.0003249645233154297
ell 683, elapsed: 0.00029397010803222656
ell 682, elapsed: 0.0002999305725097656
ell 681, elapsed: 0.0002930164337158203
ell 680, elapsed: 0.0002999305725097656
ell 679, elapsed: 0.00029206275939941406
ell 678, elapsed: 0.00029397010803222656
ell 677, elapsed: 0.0003039836883544922
ell 676, elapsed: 0.0002980232238769531
ell 675, elapsed: 0.0003139972686767578
ell 674, elapsed: 0.0002961158752441406
ell 673, elapsed: 0.0002951622009277344
ell 672, elapsed: 0.0003027915954589844
ell 671, elapsed: 0.0004069805145263672
ell 670, elapsed: 0.0003020763397216797
ell 669, elapsed: 0.0002949237823486328
ell 668, elapsed: 0.0002930164337158203
ell 667, elapsed: 0.00030994415283203125
ell 666, elapsed: 0.00029206275939941406
ell 665, elapsed: 0.00030112266540527344
ell 664, elapsed: 0.0002918243408203125
ell 663, elapsed: 0.0002880096435546875
ell 662, elapsed: 0.00030612945556640625
ell 661, elapsed: 0.0002911090850830078
ell 660, elapsed: 0.0003039836883544922
ell 659, elapsed: 0.00034499168395996094
ell 658, elapsed: 0.0002911090850830078
ell 657, elapsed: 0.0003139972686767578
ell 656, elapsed: 0.0002999305725097656
ell 655, elapsed: 0.0003120899200439453
ell 654, elapsed: 0.00029206275939941406
ell 653, elapsed: 0.0002970695495605469
ell 652, elapsed: 0.0002930164337158203
ell 651, elapsed: 0.00029921531677246094
ell 650, elapsed: 0.0002970695495605469
ell 649, elapsed: 0.0003001689910888672
ell 648, elapsed: 0.0003001689910888672
ell 647, elapsed: 0.0002930164337158203
ell 646, elapsed: 0.0003218650817871094
ell 645, elapsed: 0.0003018379211425781
ell 644, elapsed: 0.0002918243408203125
ell 643, elapsed: 0.0002951622009277344
ell 642, elapsed: 0.0002930164337158203
ell 641, elapsed: 0.00028896331787109375
ell 640, elapsed: 0.0002980232238769531
ell 639, elapsed: 0.0002970695495605469
ell 638, elapsed: 0.0002999305725097656
ell 637, elapsed: 0.0002911090850830078
ell 636, elapsed: 0.0002949237823486328
ell 635, elapsed: 0.0002949237823486328
ell 634, elapsed: 0.0003120899200439453
ell 633, elapsed: 0.00029397010803222656
ell 632, elapsed: 0.0002930164337158203
ell 631, elapsed: 0.00028705596923828125
ell 630, elapsed: 0.0002949237823486328
ell 629, elapsed: 0.0002970695495605469
ell 628, elapsed: 0.0002989768981933594
ell 627, elapsed: 0.0002899169921875
ell 626, elapsed: 0.0002980232238769531
ell 625, elapsed: 0.0002880096435546875
ell 624, elapsed: 0.0002880096435546875
ell 623, elapsed: 0.0003020763397216797
ell 622, elapsed: 0.0002918243408203125
ell 621, elapsed: 0.00034618377685546875
ell 620, elapsed: 0.0002930164337158203
ell 619, elapsed: 0.0002930164337158203
ell 618, elapsed: 0.0002980232238769531
ell 617, elapsed: 0.0002899169921875
ell 616, elapsed: 0.0002989768981933594
ell 615, elapsed: 0.0002951622009277344
ell 614, elapsed: 0.0002930164337158203
ell 613, elapsed: 0.0002949237823486328
ell 612, elapsed: 0.00029206275939941406
ell 611, elapsed: 0.0002980232238769531
ell 610, elapsed: 0.00028896331787109375
ell 609, elapsed: 0.0002930164337158203
ell 608, elapsed: 0.0003368854522705078
ell 607, elapsed: 0.0002968311309814453
ell 606, elapsed: 0.0002980232238769531
ell 605, elapsed: 0.00029206275939941406
ell 604, elapsed: 0.0002899169921875
ell 603, elapsed: 0.0002970695495605469
ell 602, elapsed: 0.0002899169921875
ell 601, elapsed: 0.0002970695495605469
ell 600, elapsed: 0.00028896331787109375
ell 599, elapsed: 0.0002930164337158203
ell 598, elapsed: 0.0003001689910888672
ell 597, elapsed: 0.00029397010803222656
ell 596, elapsed: 0.0002989768981933594
ell 595, elapsed: 0.0003299713134765625
ell 594, elapsed: 0.0003008842468261719
ell 593, elapsed: 0.0002911090850830078
ell 592, elapsed: 0.00028896331787109375
ell 591, elapsed: 0.00029587745666503906
ell 590, elapsed: 0.00029087066650390625
ell 589, elapsed: 0.0002970695495605469
ell 588, elapsed: 0.0002989768981933594
ell 587, elapsed: 0.0002949237823486328
ell 586, elapsed: 0.0002980232238769531
ell 585, elapsed: 0.0002951622009277344
ell 584, elapsed: 0.00030493736267089844
ell 583, elapsed: 0.00033402442932128906
ell 582, elapsed: 0.0002980232238769531
ell 581, elapsed: 0.0002989768981933594
ell 580, elapsed: 0.0002961158752441406
ell 579, elapsed: 0.00029587745666503906
ell 578, elapsed: 0.00030303001403808594
ell 577, elapsed: 0.0002999305725097656
ell 576, elapsed: 0.0003027915954589844
ell 575, elapsed: 0.00029397010803222656
ell 574, elapsed: 0.0002980232238769531
ell 573, elapsed: 0.000286102294921875
ell 572, elapsed: 0.0002930164337158203
ell 571, elapsed: 0.0003001689910888672
ell 570, elapsed: 0.0003490447998046875
ell 569, elapsed: 0.0002970695495605469
ell 568, elapsed: 0.0002899169921875
ell 567, elapsed: 0.0002868175506591797
ell 566, elapsed: 0.00030517578125
ell 565, elapsed: 0.0002899169921875
ell 564, elapsed: 0.0003139972686767578
ell 563, elapsed: 0.0003020763397216797
ell 562, elapsed: 0.00030922889709472656
ell 561, elapsed: 0.00029397010803222656
ell 560, elapsed: 0.0002980232238769531
ell 559, elapsed: 0.00030803680419921875
ell 558, elapsed: 0.00034999847412109375
ell 557, elapsed: 0.00031280517578125
ell 556, elapsed: 0.0002989768981933594
ell 555, elapsed: 0.0002949237823486328
ell 554, elapsed: 0.0003020763397216797
ell 553, elapsed: 0.00029397010803222656
ell 552, elapsed: 0.0002970695495605469
ell 551, elapsed: 0.0002899169921875
ell 550, elapsed: 0.00029397010803222656
ell 549, elapsed: 0.0002942085266113281
ell 548, elapsed: 0.00029397010803222656
ell 547, elapsed: 0.00030493736267089844
ell 546, elapsed: 0.0002930164337158203
ell 545, elapsed: 0.0003330707550048828
ell 544, elapsed: 0.00030493736267089844
ell 543, elapsed: 0.00029397010803222656
ell 542, elapsed: 0.0002961158752441406
ell 541, elapsed: 0.0002911090850830078
ell 540, elapsed: 0.0002899169921875
ell 539, elapsed: 0.00029397010803222656
ell 538, elapsed: 0.0002970695495605469
ell 537, elapsed: 0.0003058910369873047
ell 536, elapsed: 0.0002911090850830078
ell 535, elapsed: 0.0003039836883544922
ell 534, elapsed: 0.0002980232238769531
ell 533, elapsed: 0.00029778480529785156
ell 532, elapsed: 0.00033593177795410156
ell 531, elapsed: 0.0003020763397216797
ell 530, elapsed: 0.0002949237823486328
ell 529, elapsed: 0.00029206275939941406
ell 528, elapsed: 0.0002899169921875
ell 527, elapsed: 0.0002970695495605469
ell 526, elapsed: 0.00029206275939941406
ell 525, elapsed: 0.00029778480529785156
ell 524, elapsed: 0.0002868175506591797
ell 523, elapsed: 0.0002911090850830078
ell 522, elapsed: 0.00028896331787109375
ell 521, elapsed: 0.0002830028533935547
ell 520, elapsed: 0.0003390312194824219
ell 519, elapsed: 0.0002930164337158203
ell 518, elapsed: 0.0002880096435546875
ell 517, elapsed: 0.0002970695495605469
ell 516, elapsed: 0.0002918243408203125
ell 515, elapsed: 0.00029397010803222656
ell 514, elapsed: 0.00029277801513671875
ell 513, elapsed: 0.000286102294921875
ell 512, elapsed: 0.00029397010803222656
ell 511, elapsed: 0.00029087066650390625
ell 510, elapsed: 0.0002951622009277344
ell 509, elapsed: 0.00028586387634277344
ell 508, elapsed: 0.0002899169921875
ell 507, elapsed: 0.0003268718719482422
ell 506, elapsed: 0.0002918243408203125
ell 505, elapsed: 0.00029206275939941406
ell 504, elapsed: 0.0002899169921875
ell 503, elapsed: 0.0002911090850830078
ell 502, elapsed: 0.00029087066650390625
ell 501, elapsed: 0.0002830028533935547
ell 500, elapsed: 0.0002899169921875
ell 499, elapsed: 0.000286102294921875
ell 498, elapsed: 0.0003008842468261719
ell 497, elapsed: 0.0002918243408203125
ell 496, elapsed: 0.00029206275939941406
ell 495, elapsed: 0.0002930164337158203
ell 494, elapsed: 0.0003299713134765625
ell 493, elapsed: 0.0002899169921875
ell 492, elapsed: 0.0002880096435546875
ell 491, elapsed: 0.0002849102020263672
ell 490, elapsed: 0.00028705596923828125
ell 489, elapsed: 0.00028586387634277344
ell 488, elapsed: 0.00029206275939941406
ell 487, elapsed: 0.0002880096435546875
ell 486, elapsed: 0.0002880096435546875
ell 485, elapsed: 0.0002880096435546875
ell 484, elapsed: 0.0002849102020263672
ell 483, elapsed: 0.0002899169921875
ell 482, elapsed: 0.000286102294921875
ell 481, elapsed: 0.0003209114074707031
ell 480, elapsed: 0.00029206275939941406
ell 479, elapsed: 0.00028896331787109375
ell 478, elapsed: 0.0002911090850830078
ell 477, elapsed: 0.0002892017364501953
ell 476, elapsed: 0.0002899169921875
ell 475, elapsed: 0.0002918243408203125
ell 474, elapsed: 0.00029015541076660156
ell 473, elapsed: 0.0003139972686767578
ell 472, elapsed: 0.000453948974609375
ell 471, elapsed: 0.00030803680419921875
ell 470, elapsed: 0.000308990478515625
ell 469, elapsed: 0.0003330707550048828
ell 468, elapsed: 0.0002951622009277344
ell 467, elapsed: 0.00030493736267089844
ell 466, elapsed: 0.0003070831298828125
ell 465, elapsed: 0.00030517578125
ell 464, elapsed: 0.00030684471130371094
ell 463, elapsed: 0.0002868175506591797
ell 462, elapsed: 0.00028514862060546875
ell 461, elapsed: 0.0002999305725097656
ell 460, elapsed: 0.0002868175506591797
ell 459, elapsed: 0.0002911090850830078
ell 458, elapsed: 0.000286102294921875
ell 457, elapsed: 0.00030303001403808594
ell 456, elapsed: 0.0003368854522705078
ell 455, elapsed: 0.00030994415283203125
ell 454, elapsed: 0.0002880096435546875
ell 453, elapsed: 0.0002849102020263672
ell 452, elapsed: 0.0002930164337158203
ell 451, elapsed: 0.0002868175506591797
ell 450, elapsed: 0.0002880096435546875
ell 449, elapsed: 0.0002970695495605469
ell 448, elapsed: 0.0002911090850830078
ell 447, elapsed: 0.00031495094299316406
ell 446, elapsed: 0.0003008842468261719
ell 445, elapsed: 0.0003001689910888672
ell 444, elapsed: 0.0003008842468261719
ell 443, elapsed: 0.00032782554626464844
ell 442, elapsed: 0.0003108978271484375
ell 441, elapsed: 0.0002930164337158203
ell 440, elapsed: 0.0002930164337158203
ell 439, elapsed: 0.0003039836883544922
ell 438, elapsed: 0.00029206275939941406
ell 437, elapsed: 0.0002930164337158203
ell 436, elapsed: 0.00029397010803222656
ell 435, elapsed: 0.0002911090850830078
ell 434, elapsed: 0.00029587745666503906
ell 433, elapsed: 0.0002899169921875
ell 432, elapsed: 0.0002989768981933594
ell 431, elapsed: 0.000347137451171875
ell 430, elapsed: 0.00037217140197753906
ell 429, elapsed: 0.00037598609924316406
ell 428, elapsed: 0.0003209114074707031
ell 427, elapsed: 0.00029778480529785156
ell 426, elapsed: 0.0003829002380371094
ell 425, elapsed: 0.00036907196044921875
ell 424, elapsed: 0.0003628730773925781
ell 423, elapsed: 0.000370025634765625
ell 422, elapsed: 0.00033211708068847656
ell 421, elapsed: 0.0002930164337158203
ell 420, elapsed: 0.0003209114074707031
ell 419, elapsed: 0.0002980232238769531
ell 418, elapsed: 0.00029015541076660156
ell 417, elapsed: 0.0002968311309814453
ell 416, elapsed: 0.0002949237823486328
ell 415, elapsed: 0.0003001689910888672
ell 414, elapsed: 0.00029206275939941406
ell 413, elapsed: 0.00029587745666503906
ell 412, elapsed: 0.00029587745666503906
ell 411, elapsed: 0.0002918243408203125
ell 410, elapsed: 0.0003008842468261719
ell 409, elapsed: 0.00029587745666503906
ell 408, elapsed: 0.0003559589385986328
ell 407, elapsed: 0.0003669261932373047
ell 406, elapsed: 0.0003650188446044922
ell 405, elapsed: 0.0003559589385986328
ell 404, elapsed: 0.0003619194030761719
ell 403, elapsed: 0.00037479400634765625
ell 402, elapsed: 0.0003719329833984375
ell 401, elapsed: 0.0003681182861328125
ell 400, elapsed: 0.0003750324249267578
ell 399, elapsed: 0.0003719329833984375
ell 398, elapsed: 0.0003879070281982422
ell 397, elapsed: 0.00037598609924316406
ell 396, elapsed: 0.00036406517028808594
ell 395, elapsed: 0.0003809928894042969
ell 394, elapsed: 0.0003650188446044922
ell 393, elapsed: 0.00036597251892089844
ell 392, elapsed: 0.00037789344787597656
ell 391, elapsed: 0.0003650188446044922
ell 390, elapsed: 0.0003669261932373047
ell 389, elapsed: 0.0003650188446044922
ell 388, elapsed: 0.0003330707550048828
ell 387, elapsed: 0.0002880096435546875
ell 386, elapsed: 0.0002930164337158203
ell 385, elapsed: 0.0003020763397216797
ell 384, elapsed: 0.00031280517578125
ell 383, elapsed: 0.00029587745666503906
ell 382, elapsed: 0.0002818107604980469
ell 381, elapsed: 0.00029206275939941406
ell 380, elapsed: 0.00029397010803222656
ell 379, elapsed: 0.00028896331787109375
ell 378, elapsed: 0.00029015541076660156
ell 377, elapsed: 0.0003070831298828125
ell 376, elapsed: 0.0003571510314941406
ell 375, elapsed: 0.00029587745666503906
ell 374, elapsed: 0.0002930164337158203
ell 373, elapsed: 0.0002930164337158203
ell 372, elapsed: 0.0002949237823486328
ell 371, elapsed: 0.00029206275939941406
ell 370, elapsed: 0.0002930164337158203
ell 369, elapsed: 0.0002930164337158203
ell 368, elapsed: 0.00030493736267089844
ell 367, elapsed: 0.0002930164337158203
ell 366, elapsed: 0.0002970695495605469
ell 365, elapsed: 0.00030112266540527344
ell 364, elapsed: 0.0002999305725097656
ell 363, elapsed: 0.0003170967102050781
ell 362, elapsed: 0.0003039836883544922
ell 361, elapsed: 0.0002949237823486328
ell 360, elapsed: 0.0002999305725097656
ell 359, elapsed: 0.0002930164337158203
ell 358, elapsed: 0.0003020763397216797
ell 357, elapsed: 0.00029397010803222656
ell 356, elapsed: 0.00030517578125
ell 355, elapsed: 0.0003008842468261719
ell 354, elapsed: 0.00029397010803222656
ell 353, elapsed: 0.0002930164337158203
ell 352, elapsed: 0.00028705596923828125
ell 351, elapsed: 0.00029277801513671875
ell 350, elapsed: 0.00030493736267089844
ell 349, elapsed: 0.0003218650817871094
ell 348, elapsed: 0.0003190040588378906
ell 347, elapsed: 0.00030517578125
ell 346, elapsed: 0.0002930164337158203
ell 345, elapsed: 0.000286102294921875
ell 344, elapsed: 0.00029015541076660156
ell 343, elapsed: 0.0002918243408203125
ell 342, elapsed: 0.0002880096435546875
ell 341, elapsed: 0.0002949237823486328
ell 340, elapsed: 0.0002880096435546875
ell 339, elapsed: 0.0002980232238769531
ell 338, elapsed: 0.00035691261291503906
ell 337, elapsed: 0.00030112266540527344
ell 336, elapsed: 0.0002849102020263672
ell 335, elapsed: 0.0002799034118652344
ell 334, elapsed: 0.0002779960632324219
ell 333, elapsed: 0.0002930164337158203
ell 332, elapsed: 0.0002880096435546875
ell 331, elapsed: 0.0002899169921875
ell 330, elapsed: 0.0002808570861816406
ell 329, elapsed: 0.0002949237823486328
ell 328, elapsed: 0.0002799034118652344
ell 327, elapsed: 0.00028204917907714844
ell 326, elapsed: 0.00028395652770996094
ell 325, elapsed: 0.00029587745666503906
ell 324, elapsed: 0.00030612945556640625
ell 323, elapsed: 0.0003008842468261719
ell 322, elapsed: 0.0002899169921875
ell 321, elapsed: 0.00030303001403808594
ell 320, elapsed: 0.0002970695495605469
ell 319, elapsed: 0.00030303001403808594
ell 318, elapsed: 0.0002989768981933594
ell 317, elapsed: 0.00028896331787109375
ell 316, elapsed: 0.0002999305725097656
ell 315, elapsed: 0.0002980232238769531
ell 314, elapsed: 0.0003170967102050781
ell 313, elapsed: 0.0003039836883544922
ell 312, elapsed: 0.0003459453582763672
ell 311, elapsed: 0.0003108978271484375
ell 310, elapsed: 0.0003008842468261719
ell 309, elapsed: 0.0002980232238769531
ell 308, elapsed: 0.00031685829162597656
ell 307, elapsed: 0.0002999305725097656
ell 306, elapsed: 0.0003161430358886719
ell 305, elapsed: 0.00030303001403808594
ell 304, elapsed: 0.00030803680419921875
ell 303, elapsed: 0.0002949237823486328
ell 302, elapsed: 0.0003018379211425781
ell 301, elapsed: 0.00031113624572753906
ell 300, elapsed: 0.0003249645233154297
ell 299, elapsed: 0.0002942085266113281
ell 298, elapsed: 0.0002841949462890625
ell 297, elapsed: 0.00030303001403808594
ell 296, elapsed: 0.0002970695495605469
ell 295, elapsed: 0.0002970695495605469
ell 294, elapsed: 0.00030612945556640625
ell 293, elapsed: 0.00029397010803222656
ell 292, elapsed: 0.0003190040588378906
ell 291, elapsed: 0.00029587745666503906
ell 290, elapsed: 0.00029015541076660156
ell 289, elapsed: 0.0002930164337158203
ell 288, elapsed: 0.00028896331787109375
ell 287, elapsed: 0.0003418922424316406
ell 286, elapsed: 0.00029206275939941406
ell 285, elapsed: 0.00029015541076660156
ell 284, elapsed: 0.0002999305725097656
ell 283, elapsed: 0.00030803680419921875
ell 282, elapsed: 0.0003108978271484375
ell 281, elapsed: 0.0003058910369873047
ell 280, elapsed: 0.00030803680419921875
ell 279, elapsed: 0.0002970695495605469
ell 278, elapsed: 0.0002951622009277344
ell 277, elapsed: 0.00030493736267089844
ell 276, elapsed: 0.0002951622009277344
ell 275, elapsed: 0.00035309791564941406
ell 274, elapsed: 0.0003039836883544922
ell 273, elapsed: 0.0003039836883544922
ell 272, elapsed: 0.0003020763397216797
ell 271, elapsed: 0.00029087066650390625
ell 270, elapsed: 0.00028204917907714844
ell 269, elapsed: 0.0002918243408203125
ell 268, elapsed: 0.0002951622009277344
ell 267, elapsed: 0.0003039836883544922
ell 266, elapsed: 0.0002930164337158203
ell 265, elapsed: 0.0002989768981933594
ell 264, elapsed: 0.00029397010803222656
ell 263, elapsed: 0.0002911090850830078
ell 262, elapsed: 0.00032401084899902344
ell 261, elapsed: 0.0002930164337158203
ell 260, elapsed: 0.0003027915954589844
ell 259, elapsed: 0.0002968311309814453
ell 258, elapsed: 0.0002968311309814453
ell 257, elapsed: 0.0002999305725097656
ell 256, elapsed: 0.0002989768981933594
ell 255, elapsed: 0.0003027915954589844
ell 254, elapsed: 0.0002980232238769531
ell 253, elapsed: 0.00029587745666503906
ell 252, elapsed: 0.0003058910369873047
ell 251, elapsed: 0.0003077983856201172
ell 250, elapsed: 0.0003418922424316406
ell 249, elapsed: 0.00030303001403808594
ell 248, elapsed: 0.0002989768981933594
ell 247, elapsed: 0.0003008842468261719
ell 246, elapsed: 0.00030517578125
ell 245, elapsed: 0.0003120899200439453
ell 244, elapsed: 0.00030112266540527344
ell 243, elapsed: 0.00030112266540527344
ell 242, elapsed: 0.0003199577331542969
ell 241, elapsed: 0.00030112266540527344
ell 240, elapsed: 0.00030612945556640625
ell 239, elapsed: 0.0003020763397216797
ell 238, elapsed: 0.00032210350036621094
ell 237, elapsed: 0.00033092498779296875
ell 236, elapsed: 0.00030517578125
ell 235, elapsed: 0.0003058910369873047
ell 234, elapsed: 0.0003008842468261719
ell 233, elapsed: 0.0003020763397216797
ell 232, elapsed: 0.0002989768981933594
ell 231, elapsed: 0.0002989768981933594
ell 230, elapsed: 0.00030803680419921875
ell 229, elapsed: 0.0003020763397216797
ell 228, elapsed: 0.0003070831298828125
ell 227, elapsed: 0.0003020763397216797
ell 226, elapsed: 0.00030112266540527344
ell 225, elapsed: 0.0003249645233154297
ell 224, elapsed: 0.00031304359436035156
ell 223, elapsed: 0.0003142356872558594
ell 222, elapsed: 0.00030493736267089844
ell 221, elapsed: 0.00031304359436035156
ell 220, elapsed: 0.00031113624572753906
ell 219, elapsed: 0.0003039836883544922
ell 218, elapsed: 0.0003151893615722656
ell 217, elapsed: 0.0003001689910888672
ell 216, elapsed: 0.0003008842468261719
ell 215, elapsed: 0.00030422210693359375
ell 214, elapsed: 0.0002980232238769531
ell 213, elapsed: 0.0003418922424316406
ell 212, elapsed: 0.00030493736267089844
ell 211, elapsed: 0.0003039836883544922
ell 210, elapsed: 0.00029206275939941406
ell 209, elapsed: 0.00030493736267089844
ell 208, elapsed: 0.00030493736267089844
ell 207, elapsed: 0.0002970695495605469
ell 206, elapsed: 0.0003039836883544922
ell 205, elapsed: 0.0003058910369873047
ell 204, elapsed: 0.00030684471130371094
ell 203, elapsed: 0.0003058910369873047
ell 202, elapsed: 0.00030994415283203125
ell 201, elapsed: 0.0003020763397216797
ell 200, elapsed: 0.0003590583801269531
ell 199, elapsed: 0.00030517578125
ell 198, elapsed: 0.00030303001403808594
ell 197, elapsed: 0.00030303001403808594
ell 196, elapsed: 0.00030112266540527344
ell 195, elapsed: 0.00029397010803222656
ell 194, elapsed: 0.00028896331787109375
ell 193, elapsed: 0.0002989768981933594
ell 192, elapsed: 0.0002911090850830078
ell 191, elapsed: 0.00028896331787109375
ell 190, elapsed: 0.0002968311309814453
ell 189, elapsed: 0.00029921531677246094
ell 188, elapsed: 0.0003418922424316406
ell 187, elapsed: 0.00030994415283203125
ell 186, elapsed: 0.0003008842468261719
ell 185, elapsed: 0.00030303001403808594
ell 184, elapsed: 0.0002989768981933594
ell 183, elapsed: 0.0002999305725097656
ell 182, elapsed: 0.0003001689910888672
ell 181, elapsed: 0.00030303001403808594
ell 180, elapsed: 0.0002989768981933594
ell 179, elapsed: 0.0002980232238769531
ell 178, elapsed: 0.0002970695495605469
ell 177, elapsed: 0.0002961158752441406
ell 176, elapsed: 0.0003020763397216797
ell 175, elapsed: 0.00033211708068847656
ell 174, elapsed: 0.00030303001403808594
ell 173, elapsed: 0.0002930164337158203
ell 172, elapsed: 0.00029397010803222656
ell 171, elapsed: 0.000308990478515625
ell 170, elapsed: 0.00030422210693359375
ell 169, elapsed: 0.0002980232238769531
ell 168, elapsed: 0.0002980232238769531
ell 167, elapsed: 0.00029397010803222656
ell 166, elapsed: 0.0003008842468261719
ell 165, elapsed: 0.0002980232238769531
ell 164, elapsed: 0.0002970695495605469
ell 163, elapsed: 0.0003380775451660156
ell 162, elapsed: 0.0002930164337158203
ell 161, elapsed: 0.00030922889709472656
ell 160, elapsed: 0.0002951622009277344
ell 159, elapsed: 0.0003070831298828125
ell 158, elapsed: 0.0002970695495605469
ell 157, elapsed: 0.0003008842468261719
ell 156, elapsed: 0.00030303001403808594
ell 155, elapsed: 0.00030112266540527344
ell 154, elapsed: 0.0003008842468261719
ell 153, elapsed: 0.0003077983856201172
ell 152, elapsed: 0.0002980232238769531
ell 151, elapsed: 0.0003108978271484375
ell 150, elapsed: 0.00032711029052734375
ell 149, elapsed: 0.0003120899200439453
ell 148, elapsed: 0.00029587745666503906
ell 147, elapsed: 0.00031113624572753906
ell 146, elapsed: 0.00030994415283203125
ell 145, elapsed: 0.0002970695495605469
ell 144, elapsed: 0.0003209114074707031
ell 143, elapsed: 0.0002968311309814453
ell 142, elapsed: 0.0003039836883544922
ell 141, elapsed: 0.0002968311309814453
ell 140, elapsed: 0.0002942085266113281
ell 139, elapsed: 0.0003020763397216797
ell 138, elapsed: 0.00032806396484375
ell 137, elapsed: 0.0003008842468261719
ell 136, elapsed: 0.00029206275939941406
ell 135, elapsed: 0.0002949237823486328
ell 134, elapsed: 0.0002989768981933594
ell 133, elapsed: 0.00029087066650390625
ell 132, elapsed: 0.0002980232238769531
ell 131, elapsed: 0.0002930164337158203
ell 130, elapsed: 0.0002930164337158203
ell 129, elapsed: 0.0002949237823486328
ell 128, elapsed: 0.00029397010803222656
ell 127, elapsed: 0.0002930164337158203
ell 126, elapsed: 0.00029397010803222656
ell 125, elapsed: 0.0003669261932373047
ell 124, elapsed: 0.00029921531677246094
ell 123, elapsed: 0.00028896331787109375
ell 122, elapsed: 0.0002951622009277344
ell 121, elapsed: 0.0002880096435546875
ell 120, elapsed: 0.0002942085266113281
ell 119, elapsed: 0.0002880096435546875
ell 118, elapsed: 0.00029397010803222656
ell 117, elapsed: 0.00029206275939941406
ell 116, elapsed: 0.00028896331787109375
ell 115, elapsed: 0.0002930164337158203
ell 114, elapsed: 0.00028896331787109375
ell 113, elapsed: 0.00029087066650390625
ell 112, elapsed: 0.0003108978271484375
ell 111, elapsed: 0.00029206275939941406
ell 110, elapsed: 0.0002918243408203125
ell 109, elapsed: 0.00029087066650390625
ell 108, elapsed: 0.00029206275939941406
ell 107, elapsed: 0.00029206275939941406
ell 106, elapsed: 0.0002899169921875
ell 105, elapsed: 0.0002989768981933594
ell 104, elapsed: 0.0002918243408203125
ell 103, elapsed: 0.0002930164337158203
ell 102, elapsed: 0.0003070831298828125
ell 101, elapsed: 0.00030493736267089844
ell 100, elapsed: 0.00033211708068847656
ell 99, elapsed: 0.0002968311309814453
ell 98, elapsed: 0.00029206275939941406
ell 97, elapsed: 0.0002980232238769531
ell 96, elapsed: 0.0002930164337158203
ell 95, elapsed: 0.0002980232238769531
ell 94, elapsed: 0.0002949237823486328
ell 93, elapsed: 0.00029587745666503906
ell 92, elapsed: 0.0002930164337158203
ell 91, elapsed: 0.00029206275939941406
ell 90, elapsed: 0.0002951622009277344
ell 89, elapsed: 0.0002918243408203125
ell 88, elapsed: 0.0002989768981933594
ell 87, elapsed: 0.00031304359436035156
ell 86, elapsed: 0.0002949237823486328
ell 85, elapsed: 0.0002951622009277344
ell 84, elapsed: 0.00028896331787109375
ell 83, elapsed: 0.0002930164337158203
ell 82, elapsed: 0.0003001689910888672
ell 81, elapsed: 0.0002980232238769531
ell 80, elapsed: 0.0003039836883544922
ell 79, elapsed: 0.00030994415283203125
ell 78, elapsed: 0.00030303001403808594
ell 77, elapsed: 0.0003020763397216797
ell 76, elapsed: 0.0002970695495605469
ell 75, elapsed: 0.00030803680419921875
ell 74, elapsed: 0.0003361701965332031
ell 73, elapsed: 0.0003058910369873047
ell 72, elapsed: 0.00029587745666503906
ell 71, elapsed: 0.0002951622009277344
ell 70, elapsed: 0.00030112266540527344
ell 69, elapsed: 0.0002930164337158203
ell 68, elapsed: 0.0002989768981933594
ell 67, elapsed: 0.0002961158752441406
ell 66, elapsed: 0.0002999305725097656
ell 65, elapsed: 0.0002989768981933594
ell 64, elapsed: 0.00029397010803222656
ell 63, elapsed: 0.00030493736267089844
ell 62, elapsed: 0.00032401084899902344
ell 61, elapsed: 0.0003001689910888672
ell 60, elapsed: 0.0002999305725097656
ell 59, elapsed: 0.0002961158752441406
ell 58, elapsed: 0.0002968311309814453
ell 57, elapsed: 0.000308990478515625
ell 56, elapsed: 0.0002980232238769531
ell 55, elapsed: 0.0003001689910888672
ell 54, elapsed: 0.00030303001403808594
ell 53, elapsed: 0.0003070831298828125
ell 52, elapsed: 0.0003039836883544922
ell 51, elapsed: 0.0003027915954589844
ell 50, elapsed: 0.00030303001403808594
ell 49, elapsed: 0.00032901763916015625
ell 48, elapsed: 0.0003020763397216797
ell 47, elapsed: 0.0002949237823486328
ell 46, elapsed: 0.0003020763397216797
ell 45, elapsed: 0.0002970695495605469
ell 44, elapsed: 0.0002980232238769531
ell 43, elapsed: 0.0003008842468261719
ell 42, elapsed: 0.0002989768981933594
ell 41, elapsed: 0.0003001689910888672
ell 40, elapsed: 0.00029587745666503906
ell 39, elapsed: 0.0002951622009277344
ell 38, elapsed: 0.0002989768981933594
ell 37, elapsed: 0.00033402442932128906
ell 36, elapsed: 0.00030303001403808594
ell 35, elapsed: 0.00029587745666503906
ell 34, elapsed: 0.0002961158752441406
ell 33, elapsed: 0.0003020763397216797
ell 32, elapsed: 0.0003058910369873047
ell 31, elapsed: 0.0002999305725097656
ell 30, elapsed: 0.0002989768981933594
ell 29, elapsed: 0.0003008842468261719
ell 28, elapsed: 0.00029206275939941406
ell 27, elapsed: 0.0002949237823486328
ell 26, elapsed: 0.00029015541076660156
ell 25, elapsed: 0.00029206275939941406
ell 24, elapsed: 0.00032401084899902344
ell 23, elapsed: 0.0003077983856201172
ell 22, elapsed: 0.0002989768981933594
ell 21, elapsed: 0.0003018379211425781
ell 20, elapsed: 0.0002968311309814453
ell 19, elapsed: 0.0002999305725097656
ell 18, elapsed: 0.00028395652770996094
ell 17, elapsed: 0.00028896331787109375
ell 16, elapsed: 0.00030493736267089844
ell 15, elapsed: 0.00029921531677246094
ell 14, elapsed: 0.0002989768981933594
ell 13, elapsed: 0.00029397010803222656
ell 12, elapsed: 0.0002989768981933594
ell 11, elapsed: 0.0003268718719482422
ell 10, elapsed: 0.00029397010803222656
ell 9, elapsed: 0.00030493736267089844
ell 8, elapsed: 0.0003008842468261719
ell 7, elapsed: 0.000308990478515625
ell 6, elapsed: 0.00030493736267089844
ell 5, elapsed: 0.0003020763397216797
ell 4, elapsed: 0.0002970695495605469
ell 3, elapsed: 0.0002949237823486328
ell 2, elapsed: 0.00030303001403808594
ell 1, elapsed: 0.00029921531677246094
ell 0, elapsed: 0.00030112266540527344
  0.421310 seconds (46.03 k allocations: 3.091 MiB, 6.10% compilation time)
elapsed: 0.00041103363037109375
step:          0.054713 sec (0 allocations: 0 byte, 0.0% gc time)
swapping:      0.000391 sec (0 allocations: 0 byte, 0.0% gc time)
calc_Mellell!: 0.006017 sec (0 allocations: 0 byte, 0.0% gc time)
  t0 :  0.00129 sec (0 allocations: 0 byte, 0.0% gc time)
  tm2 : 0.070439 sec (0 allocations: 0 byte, 0.0% gc time)
  tm2s: 0.001582 sec (0 allocations: 0 byte, 0.0% gc time)
  tm4 : 0.173036 sec (0 allocations: 0 byte, 0.0% gc time)
  tp2 : 0.0 sec (0 allocations: 0 byte, 0.0% gc time)
  tp2s: 0.0 sec (0 allocations: 0 byte, 0.0% gc time)
  tp4 : 0.0 sec (0 allocations: 0 byte, 0.0% gc time)
calc_wtdll!:   0.274408 sec (9.9 k allocations: 1.047 MB, 0.0% gc time)
calc_wljj!:    0.020649 sec (689 allocations: 10.766 KB, 0.0% gc time)
mult_prefac!:  0.0 sec (0 allocations: 0 byte, 0.0% gc time)
convert:       0.0 sec (0 allocations: 0 byte, 0.0% gc time)
write:         0.027918 sec (0 allocations: 0 byte, 0.0% gc time)
test_rand_2f1: 0.0 sec (0 allocations: 0 byte, 0.0% gc time)
Closing outfile out/Ml21-cache.bin...   0.000004 seconds
  0.000398 seconds (36 allocations: 27.953 KiB)
make_phi():   0.001312 seconds (8.18 k allocations: 237.844 KiB)
  0.117465 seconds (141.90 k allocations: 3.483 MiB)
tskip:       0.000622 sec (0 allocations: 0 byte, 0.0% gc time)
tread:       0.018975 sec (17 allocations: 10.641 KB, 0.0% gc time)
tmultphi:    0.010191 sec (0 allocations: 0 byte, 0.0% gc time)
tbrfft:      0.032266 sec (0 allocations: 0 byte, 0.0% gc time)
tmultprefac: 0.01788 sec (0 allocations: 0 byte, 0.0% gc time)
toutfunc:    0.034598 sec (127.507 k allocations: 2.312 MB, 0.0% gc time)
Testing R=1.0 ... passed
Calculating fmax: 
  dlrec    = 4
  dlrecRg1 = -4
  q=1.1, R=0.9:	  0.263252 seconds (105.72 k allocations: 15.273 MiB, 7.04% gc time)

  0.263411 seconds (105.78 k allocations: 15.307 MiB, 7.04% gc time)
ℓ = 1202
Δℓ = 4
ΔℓRg1 = -4
N = 1600
q = 1.1
kmin = 1.0e-5
kmax = 100000.00000000004
χ0 = 0.023029999999999995
RR = RR.tsv
ℓmax = ℓmax.bin
f21 = f21.bin
kmin = 1.0e-5
kmax = 100000.0
dlrec    = 4
dlrecRg1 = -4
Output size: 5741568 bytes = 0.005347251892089844 GiB
Output size: 51264 bytes = 4.774332046508789e-5 GiB
Reading 'out/F21EllCache'...   0.000854 seconds (197 allocations: 84.203 KiB)
ellmax: 1202
lmaxcache: 1202
fell[:,1,1] = ComplexF64[1.3482014726274674e-57 - 3.302141236118086e-73im, 1.357860004724329e-57 - 3.3257978169518355e-73im]
ell 1202, elapsed: 1.5020370483398438e-5
ell 1201, elapsed: 0.00026798248291015625
ell 1200, elapsed: 0.0002560615539550781
ell 1199, elapsed: 0.00026702880859375
ell 1198, elapsed: 0.0002651214599609375
ell 1002, elapsed: 0.008306026458740234
ell 1001, elapsed: 0.0002689361572265625
ell 1000, elapsed: 0.0002601146697998047
ell 999, elapsed: 0.000270843505859375
ell 998, elapsed: 0.0003490447998046875
ell 902, elapsed: 0.004171133041381836
ell 901, elapsed: 0.00026488304138183594
ell 900, elapsed: 0.00026297569274902344
ell 899, elapsed: 0.0002560615539550781
ell 898, elapsed: 0.00026702880859375
ell 802, elapsed: 0.004210948944091797
ell 801, elapsed: 0.0002689361572265625
ell 800, elapsed: 0.0002620220184326172
ell 799, elapsed: 0.0002589225769042969
ell 798, elapsed: 0.0002620220184326172
ell 702, elapsed: 0.0041179656982421875
ell 701, elapsed: 0.00026106834411621094
ell 700, elapsed: 0.0002639293670654297
ell 699, elapsed: 0.00022101402282714844
ell 698, elapsed: 0.0004239082336425781
ell 602, elapsed: 0.003987789154052734
ell 601, elapsed: 0.0002601146697998047
ell 600, elapsed: 0.00025916099548339844
ell 599, elapsed: 0.0002570152282714844
ell 598, elapsed: 0.0002570152282714844
ell 502, elapsed: 0.004108905792236328
ell 501, elapsed: 0.0002658367156982422
ell 500, elapsed: 0.00026297569274902344
ell 499, elapsed: 0.0002579689025878906
ell 498, elapsed: 0.00027298927307128906
ell 402, elapsed: 0.0041730403900146484
ell 401, elapsed: 0.0002639293670654297
ell 400, elapsed: 0.0002608299255371094
ell 399, elapsed: 0.00026297569274902344
ell 398, elapsed: 0.0002579689025878906
ell 302, elapsed: 0.004252910614013672
ell 301, elapsed: 0.00027298927307128906
ell 300, elapsed: 0.0002720355987548828
ell 299, elapsed: 0.0002570152282714844
ell 298, elapsed: 0.0002579689025878906
ell 202, elapsed: 0.004122018814086914
ell 201, elapsed: 0.00027108192443847656
ell 200, elapsed: 0.0002601146697998047
ell 199, elapsed: 0.0002589225769042969
ell 198, elapsed: 0.0002579689025878906
ell 152, elapsed: 0.0021600723266601562
ell 151, elapsed: 0.00026798248291015625
ell 150, elapsed: 0.0002658367156982422
ell 149, elapsed: 0.00026702880859375
ell 148, elapsed: 0.00026416778564453125
ell 127, elapsed: 0.001127004623413086
ell 126, elapsed: 0.00027179718017578125
ell 125, elapsed: 0.00026488304138183594
ell 124, elapsed: 0.00026702880859375
ell 123, elapsed: 0.00031113624572753906
ell 114, elapsed: 0.0006351470947265625
ell 113, elapsed: 0.0002651214599609375
ell 112, elapsed: 0.0002720355987548828
ell 111, elapsed: 0.0002651214599609375
ell 110, elapsed: 0.00026297569274902344
ell 102, elapsed: 0.0006000995635986328
ell 101, elapsed: 0.00026488304138183594
ell 100, elapsed: 0.00026297569274902344
ell 99, elapsed: 0.0002639293670654297
ell 98, elapsed: 0.00026607513427734375
ell 97, elapsed: 0.00032520294189453125
ell 96, elapsed: 0.00030684471130371094
ell 95, elapsed: 0.0003058910369873047
ell 94, elapsed: 0.0003058910369873047
ell 93, elapsed: 0.000308990478515625
ell 92, elapsed: 0.000308990478515625
ell 91, elapsed: 0.000308990478515625
ell 90, elapsed: 0.0003070831298828125
ell 89, elapsed: 0.00030517578125
ell 88, elapsed: 0.00031304359436035156
ell 87, elapsed: 0.0003070831298828125
ell 86, elapsed: 0.0003139972686767578
ell 85, elapsed: 0.0003399848937988281
ell 84, elapsed: 0.0003180503845214844
ell 83, elapsed: 0.000308990478515625
ell 82, elapsed: 0.0003058910369873047
ell 81, elapsed: 0.0003108978271484375
ell 80, elapsed: 0.00030684471130371094
ell 79, elapsed: 0.00030684471130371094
ell 78, elapsed: 0.0003070831298828125
ell 77, elapsed: 0.0002989768981933594
ell 76, elapsed: 0.00030994415283203125
ell 75, elapsed: 0.0003077983856201172
ell 74, elapsed: 0.0003020763397216797
ell 73, elapsed: 0.0003521442413330078
ell 72, elapsed: 0.0003070831298828125
ell 71, elapsed: 0.0003058910369873047
ell 70, elapsed: 0.000308990478515625
ell 69, elapsed: 0.0003027915954589844
ell 68, elapsed: 0.0003039836883544922
ell 67, elapsed: 0.0002999305725097656
ell 66, elapsed: 0.00030684471130371094
ell 65, elapsed: 0.0002970695495605469
ell 64, elapsed: 0.0002970695495605469
ell 63, elapsed: 0.0002989768981933594
ell 62, elapsed: 0.00030303001403808594
ell 61, elapsed: 0.0002999305725097656
ell 60, elapsed: 0.00033092498779296875
ell 59, elapsed: 0.00030112266540527344
ell 58, elapsed: 0.0003039836883544922
ell 57, elapsed: 0.0002989768981933594
ell 56, elapsed: 0.0003039836883544922
ell 55, elapsed: 0.0002999305725097656
ell 54, elapsed: 0.00030303001403808594
ell 53, elapsed: 0.0003120899200439453
ell 52, elapsed: 0.0003058910369873047
ell 51, elapsed: 0.0003070831298828125
ell 50, elapsed: 0.00029587745666503906
ell 49, elapsed: 0.000308990478515625
ell 48, elapsed: 0.00031685829162597656
ell 47, elapsed: 0.0003027915954589844
ell 46, elapsed: 0.0003058910369873047
ell 45, elapsed: 0.00030493736267089844
ell 44, elapsed: 0.0003139972686767578
ell 43, elapsed: 0.0003058910369873047
ell 42, elapsed: 0.0002980232238769531
ell 41, elapsed: 0.00030803680419921875
ell 40, elapsed: 0.0002949237823486328
ell 39, elapsed: 0.0002970695495605469
ell 38, elapsed: 0.00029587745666503906
ell 37, elapsed: 0.0002949237823486328
ell 36, elapsed: 0.0003590583801269531
ell 35, elapsed: 0.0002930164337158203
ell 34, elapsed: 0.0002970695495605469
ell 33, elapsed: 0.00029397010803222656
ell 32, elapsed: 0.00029206275939941406
ell 31, elapsed: 0.0003020763397216797
ell 30, elapsed: 0.0002930164337158203
ell 29, elapsed: 0.0003020763397216797
ell 28, elapsed: 0.0002911090850830078
ell 27, elapsed: 0.0002880096435546875
ell 26, elapsed: 0.0002930164337158203
ell 25, elapsed: 0.0002930164337158203
ell 24, elapsed: 0.00030517578125
ell 23, elapsed: 0.00034880638122558594
ell 22, elapsed: 0.00029397010803222656
ell 21, elapsed: 0.00030303001403808594
ell 20, elapsed: 0.00029397010803222656
ell 19, elapsed: 0.0002989768981933594
ell 18, elapsed: 0.0002911090850830078
ell 17, elapsed: 0.00028896331787109375
ell 16, elapsed: 0.0002989768981933594
ell 15, elapsed: 0.00028705596923828125
ell 14, elapsed: 0.0002980232238769531
ell 13, elapsed: 0.0002970695495605469
ell 12, elapsed: 0.00030112266540527344
ell 11, elapsed: 0.00032591819763183594
ell 10, elapsed: 0.0003001689910888672
ell 9, elapsed: 0.0002989768981933594
ell 8, elapsed: 0.0002989768981933594
ell 7, elapsed: 0.00029397010803222656
ell 6, elapsed: 0.00030803680419921875
ell 5, elapsed: 0.00029587745666503906
ell 4, elapsed: 0.0003058910369873047
ell 3, elapsed: 0.00030303001403808594
ell 2, elapsed: 0.00029397010803222656
ell 1, elapsed: 0.0002930164337158203
ell 0, elapsed: 0.0002911090850830078
  0.094337 seconds (11.51 k allocations: 719.594 KiB)
elapsed: 0.0003459453582763672
step:          0.047297 sec (0 allocations: 0 byte, 0.0% gc time)
swapping:      0.00033 sec (0 allocations: 0 byte, 0.0% gc time)
calc_Mellell!: 0.000792 sec (0 allocations: 0 byte, 0.0% gc time)
  t0 :  0.000201 sec (0 allocations: 0 byte, 0.0% gc time)
  tm2 : 0.009748 sec (0 allocations: 0 byte, 0.0% gc time)
  tm2s: 0.000228 sec (0 allocations: 0 byte, 0.0% gc time)
  tm4 : 0.023784 sec (0 allocations: 0 byte, 0.0% gc time)
  tp2 : 0.0 sec (0 allocations: 0 byte, 0.0% gc time)
  tp2s: 0.0 sec (0 allocations: 0 byte, 0.0% gc time)
  tp4 : 0.0 sec (0 allocations: 0 byte, 0.0% gc time)
calc_wtdll!:   0.034363 sec (1.344 k allocations: 147.0 KB, 0.0% gc time)
calc_wljj!:    0.001912 sec (6 allocations: 96 byte, 0.0% gc time)
mult_prefac!:  0.0 sec (0 allocations: 0 byte, 0.0% gc time)
convert:       0.0 sec (0 allocations: 0 byte, 0.0% gc time)
write:         0.002582 sec (0 allocations: 0 byte, 0.0% gc time)
test_rand_2f1: 0.0 sec (0 allocations: 0 byte, 0.0% gc time)
Closing outfile out/Ml21-cache.bin...   0.000004 seconds
  0.000404 seconds (36 allocations: 27.953 KiB)
make_phi():   0.001434 seconds (8.18 k allocations: 237.844 KiB)
  0.010207 seconds (11.65 k allocations: 308.688 KiB)
tskip:       1.4e-5 sec (0 allocations: 0 byte, 0.0% gc time)
tread:       0.001731 sec (17 allocations: 2.125 KB, 0.0% gc time)
tmultphi:    0.000816 sec (0 allocations: 0 byte, 0.0% gc time)
tbrfft:      0.002932 sec (0 allocations: 0 byte, 0.0% gc time)
tmultprefac: 0.001412 sec (0 allocations: 0 byte, 0.0% gc time)
toutfunc:    0.003056 sec (10.304 k allocations: 196.0 KB, 0.0% gc time)
Testing R=0.9 ... passed
Calculating fmax: 
  dlrec    = 4
  dlrecRg1 = -4
  q=1.1, R=0.8:	  0.192675 seconds (103.21 k allocations: 14.840 MiB)

  0.192793 seconds (103.26 k allocations: 14.874 MiB)
ℓ = 1202
Δℓ = 4
ΔℓRg1 = -4
N = 1600
q = 1.1
kmin = 1.0e-5
kmax = 100000.00000000004
χ0 = 0.023029999999999995
RR = RR.tsv
ℓmax = ℓmax.bin
f21 = f21.bin
kmin = 1.0e-5
kmax = 100000.0
dlrec    = 4
dlrecRg1 = -4
Output size: 5741568 bytes = 0.005347251892089844 GiB
Output size: 51264 bytes = 4.774332046508789e-5 GiB
Reading 'out/F21EllCache'...   0.000748 seconds (197 allocations: 84.203 KiB)
ellmax: 1202
lmaxcache: 1202
fell[:,1,1] = ComplexF64[7.519068145690986e-120 - 1.8416405474382574e-135im, 7.541664537386155e-120 - 1.847175067190611e-135im]
ell 1202, elapsed: 1.5020370483398438e-5
ell 1201, elapsed: 0.000308990478515625
ell 1200, elapsed: 0.0002789497375488281
ell 1199, elapsed: 0.0002779960632324219
ell 1198, elapsed: 0.00027489662170410156
ell 1002, elapsed: 0.008219003677368164
ell 1001, elapsed: 0.00026607513427734375
ell 1000, elapsed: 0.00026297569274902344
ell 999, elapsed: 0.00026297569274902344
ell 998, elapsed: 0.0002560615539550781
ell 902, elapsed: 0.004185914993286133
ell 901, elapsed: 0.00026607513427734375
ell 900, elapsed: 0.0002570152282714844
ell 899, elapsed: 0.0002830028533935547
ell 898, elapsed: 0.00026106834411621094
ell 802, elapsed: 0.004199028015136719
ell 801, elapsed: 0.00026702880859375
ell 800, elapsed: 0.0002639293670654297
ell 799, elapsed: 0.0002589225769042969
ell 798, elapsed: 0.0002651214599609375
ell 702, elapsed: 0.0042951107025146484
ell 701, elapsed: 0.0002582073211669922
ell 700, elapsed: 0.00025916099548339844
ell 699, elapsed: 0.0002589225769042969
ell 698, elapsed: 0.0002570152282714844
ell 602, elapsed: 0.004169940948486328
ell 601, elapsed: 0.00026297569274902344
ell 600, elapsed: 0.0002598762512207031
ell 599, elapsed: 0.0003008842468261719
ell 598, elapsed: 0.00026106834411621094
ell 502, elapsed: 0.004168987274169922
ell 501, elapsed: 0.00026416778564453125
ell 500, elapsed: 0.00025916099548339844
ell 499, elapsed: 0.0002589225769042969
ell 498, elapsed: 0.0002560615539550781
ell 402, elapsed: 0.00411677360534668
ell 401, elapsed: 0.00027108192443847656
ell 400, elapsed: 0.00025916099548339844
ell 399, elapsed: 0.00026297569274902344
ell 398, elapsed: 0.00026798248291015625
ell 302, elapsed: 0.004285097122192383
ell 301, elapsed: 0.00027108192443847656
ell 300, elapsed: 0.0002651214599609375
ell 299, elapsed: 0.00031495094299316406
ell 298, elapsed: 0.00028204917907714844
ell 202, elapsed: 0.004170894622802734
ell 201, elapsed: 0.0002589225769042969
ell 200, elapsed: 0.0002560615539550781
ell 199, elapsed: 0.0002529621124267578
ell 198, elapsed: 0.0002541542053222656
ell 152, elapsed: 0.002096891403198242
ell 151, elapsed: 0.0002799034118652344
ell 150, elapsed: 0.0002579689025878906
ell 149, elapsed: 0.0002570152282714844
ell 148, elapsed: 0.0002598762512207031
ell 127, elapsed: 0.0011289119720458984
ell 126, elapsed: 0.0002579689025878906
ell 125, elapsed: 0.0002541542053222656
ell 124, elapsed: 0.00025200843811035156
ell 123, elapsed: 0.00024700164794921875
ell 114, elapsed: 0.0005609989166259766
ell 113, elapsed: 0.0002810955047607422
ell 112, elapsed: 0.00022411346435546875
ell 111, elapsed: 0.0002429485321044922
ell 110, elapsed: 0.000247955322265625
ell 102, elapsed: 0.0005280971527099609
ell 101, elapsed: 0.00021505355834960938
ell 100, elapsed: 0.00021505355834960938
ell 99, elapsed: 0.00021696090698242188
ell 98, elapsed: 0.00021600723266601562
ell 97, elapsed: 0.0002548694610595703
ell 96, elapsed: 0.0002429485321044922
ell 95, elapsed: 0.000244140625
ell 94, elapsed: 0.0002448558807373047
ell 93, elapsed: 0.00025200843811035156
ell 92, elapsed: 0.00024700164794921875
ell 91, elapsed: 0.00030112266540527344
ell 90, elapsed: 0.0002529621124267578
ell 89, elapsed: 0.00024580955505371094
ell 88, elapsed: 0.00024318695068359375
ell 87, elapsed: 0.00025391578674316406
ell 86, elapsed: 0.00025010108947753906
ell 85, elapsed: 0.00024390220642089844
ell 84, elapsed: 0.0002510547637939453
ell 83, elapsed: 0.00024390220642089844
ell 82, elapsed: 0.0002551078796386719
ell 81, elapsed: 0.0002410411834716797
ell 80, elapsed: 0.00024890899658203125
ell 79, elapsed: 0.0002789497375488281
ell 78, elapsed: 0.00030303001403808594
ell 77, elapsed: 0.0002970695495605469
ell 76, elapsed: 0.0004019737243652344
ell 75, elapsed: 0.00029778480529785156
ell 74, elapsed: 0.0003020763397216797
ell 73, elapsed: 0.00029397010803222656
ell 72, elapsed: 0.0003018379211425781
ell 71, elapsed: 0.0002961158752441406
ell 70, elapsed: 0.0002970695495605469
ell 69, elapsed: 0.00029397010803222656
ell 68, elapsed: 0.00030803680419921875
ell 67, elapsed: 0.0003027915954589844
ell 66, elapsed: 0.000308990478515625
ell 65, elapsed: 0.0003039836883544922
ell 64, elapsed: 0.0003540515899658203
ell 63, elapsed: 0.0003001689910888672
ell 62, elapsed: 0.00030493736267089844
ell 61, elapsed: 0.0003020763397216797
ell 60, elapsed: 0.0003058910369873047
ell 59, elapsed: 0.0002970695495605469
ell 58, elapsed: 0.0002970695495605469
ell 57, elapsed: 0.0003108978271484375
ell 56, elapsed: 0.0002970695495605469
[...]
ell 782, elapsed: 0.0009548664093017578
ell 781, elapsed: 0.0005590915679931641
ell 780, elapsed: 0.0005640983581542969
ell 779, elapsed: 0.0005679130554199219
ell 778, elapsed: 0.000576019287109375
ell 772, elapsed: 0.0009980201721191406
ell 771, elapsed: 0.0005779266357421875
ell 770, elapsed: 0.0005719661712646484
ell 769, elapsed: 0.0005609989166259766
ell 768, elapsed: 0.0005681514739990234
ell 762, elapsed: 0.0010118484497070312
ell 761, elapsed: 0.000576019287109375
ell 760, elapsed: 0.0005590915679931641
ell 759, elapsed: 0.0006430149078369141
ell 758, elapsed: 0.0005691051483154297
ell 752, elapsed: 0.0009620189666748047
ell 751, elapsed: 0.0005648136138916016
ell 750, elapsed: 0.0005908012390136719
ell 749, elapsed: 0.0005640983581542969
ell 748, elapsed: 0.0005619525909423828
ell 742, elapsed: 0.0009570121765136719
ell 741, elapsed: 0.0005631446838378906
ell 740, elapsed: 0.0005648136138916016
ell 739, elapsed: 0.0046689510345458984
ell 738, elapsed: 0.0005819797515869141
ell 732, elapsed: 0.0010471343994140625
ell 731, elapsed: 0.0005700588226318359
ell 730, elapsed: 0.0005779266357421875
ell 729, elapsed: 0.0005669593811035156
ell 728, elapsed: 0.0006260871887207031
ell 722, elapsed: 0.0010268688201904297
ell 721, elapsed: 0.0005738735198974609
ell 720, elapsed: 0.0005807876586914062
ell 719, elapsed: 0.0005729198455810547
ell 718, elapsed: 0.00057220458984375
ell 712, elapsed: 0.0010750293731689453
ell 711, elapsed: 0.0005731582641601562
ell 710, elapsed: 0.000576019287109375
ell 709, elapsed: 0.0005769729614257812
ell 708, elapsed: 0.0005741119384765625
ell 702, elapsed: 0.001299142837524414
ell 701, elapsed: 0.0005700588226318359
ell 700, elapsed: 0.0005669593811035156
ell 699, elapsed: 0.0005629062652587891
ell 698, elapsed: 0.000576019287109375
ell 692, elapsed: 0.00102996826171875
ell 691, elapsed: 0.0005638599395751953
ell 690, elapsed: 0.0005729198455810547
ell 689, elapsed: 0.0005648136138916016
ell 688, elapsed: 0.0005729198455810547
ell 682, elapsed: 0.0010221004486083984
ell 681, elapsed: 0.0006039142608642578
ell 680, elapsed: 0.0005750656127929688
ell 679, elapsed: 0.0005772113800048828
ell 678, elapsed: 0.0005800724029541016
ell 672, elapsed: 0.0010199546813964844
ell 671, elapsed: 0.0005698204040527344
ell 670, elapsed: 0.0006139278411865234
ell 669, elapsed: 0.0005600452423095703
ell 668, elapsed: 0.0005679130554199219
ell 662, elapsed: 0.0009758472442626953
ell 661, elapsed: 0.00055694580078125
ell 660, elapsed: 0.0005650520324707031
ell 659, elapsed: 0.0005550384521484375
ell 658, elapsed: 0.0005671977996826172
ell 652, elapsed: 0.0009760856628417969
ell 651, elapsed: 0.0005550384521484375
ell 650, elapsed: 0.0005600452423095703
ell 649, elapsed: 0.0005650520324707031
ell 648, elapsed: 0.0005738735198974609
ell 642, elapsed: 0.0010790824890136719
ell 641, elapsed: 0.0005691051483154297
ell 640, elapsed: 0.0005679130554199219
ell 639, elapsed: 0.0005691051483154297
ell 638, elapsed: 0.0005660057067871094
ell 632, elapsed: 0.0010628700256347656
ell 631, elapsed: 0.0005640983581542969
ell 630, elapsed: 0.0005719661712646484
ell 629, elapsed: 0.0005660057067871094
ell 628, elapsed: 0.0005919933319091797
ell 622, elapsed: 0.0009930133819580078
ell 621, elapsed: 0.0005838871002197266
ell 620, elapsed: 0.0005750656127929688
ell 619, elapsed: 0.0005719661712646484
ell 618, elapsed: 0.0005691051483154297
ell 612, elapsed: 0.0009660720825195312
ell 611, elapsed: 0.0005741119384765625
ell 610, elapsed: 0.0006089210510253906
ell 609, elapsed: 0.0005660057067871094
ell 608, elapsed: 0.0005719661712646484
ell 602, elapsed: 0.0009899139404296875
ell 601, elapsed: 0.0005509853363037109
ell 600, elapsed: 0.0005791187286376953
ell 599, elapsed: 0.0005960464477539062
ell 598, elapsed: 0.0005631446838378906
ell 592, elapsed: 0.0009601116180419922
ell 591, elapsed: 0.0005650520324707031
ell 590, elapsed: 0.0005640983581542969
ell 589, elapsed: 0.0005669593811035156
ell 588, elapsed: 0.0006041526794433594
ell 582, elapsed: 0.0009450912475585938
ell 581, elapsed: 0.0005648136138916016
ell 580, elapsed: 0.0005688667297363281
ell 579, elapsed: 0.0005660057067871094
ell 578, elapsed: 0.0005679130554199219
ell 572, elapsed: 0.0010139942169189453
ell 571, elapsed: 0.0005431175231933594
ell 570, elapsed: 0.0005490779876708984
ell 569, elapsed: 0.0005350112915039062
ell 568, elapsed: 0.0005300045013427734
ell 562, elapsed: 0.0009770393371582031
ell 561, elapsed: 0.0006039142608642578
ell 560, elapsed: 0.000553131103515625
ell 559, elapsed: 0.0005548000335693359
ell 558, elapsed: 0.0005688667297363281
ell 552, elapsed: 0.0009961128234863281
ell 551, elapsed: 0.0005640983581542969
ell 550, elapsed: 0.0006098747253417969
ell 549, elapsed: 0.0005590915679931641
ell 548, elapsed: 0.0005648136138916016
ell 542, elapsed: 0.0009508132934570312
ell 541, elapsed: 0.0005619525909423828
ell 540, elapsed: 0.0005609989166259766
ell 539, elapsed: 0.0005860328674316406
ell 538, elapsed: 0.0005619525909423828
ell 532, elapsed: 0.0009350776672363281
ell 531, elapsed: 0.0005691051483154297
ell 530, elapsed: 0.0005631446838378906
ell 529, elapsed: 0.0005679130554199219
ell 528, elapsed: 0.000598907470703125
ell 522, elapsed: 0.0009388923645019531
ell 521, elapsed: 0.0005619525909423828
ell 520, elapsed: 0.0005609989166259766
ell 519, elapsed: 0.0005550384521484375
ell 518, elapsed: 0.0005629062652587891
ell 512, elapsed: 0.0009870529174804688
ell 511, elapsed: 0.0005609989166259766
ell 510, elapsed: 0.0005578994750976562
ell 509, elapsed: 0.0005540847778320312
ell 508, elapsed: 0.0005619525909423828
ell 502, elapsed: 0.0009579658508300781
ell 501, elapsed: 0.0005848407745361328
ell 500, elapsed: 0.0005619525909423828
ell 499, elapsed: 0.0005550384521484375
ell 498, elapsed: 0.0005650520324707031
ell 492, elapsed: 0.0009911060333251953
ell 491, elapsed: 0.0005621910095214844
ell 490, elapsed: 0.0006020069122314453
ell 489, elapsed: 0.0005629062652587891
ell 488, elapsed: 0.0005700588226318359
ell 482, elapsed: 0.0009918212890625
ell 481, elapsed: 0.0005609989166259766
ell 480, elapsed: 0.0005650520324707031
ell 479, elapsed: 0.0005841255187988281
ell 478, elapsed: 0.0005648136138916016
ell 472, elapsed: 0.0009500980377197266
ell 471, elapsed: 0.0005581378936767578
ell 470, elapsed: 0.0005619525909423828
ell 469, elapsed: 0.0005590915679931641
ell 468, elapsed: 0.0007140636444091797
ell 462, elapsed: 0.0009539127349853516
ell 461, elapsed: 0.0005638599395751953
ell 460, elapsed: 0.0005660057067871094
ell 459, elapsed: 0.0005609989166259766
ell 458, elapsed: 0.0005669593811035156
ell 452, elapsed: 0.0009829998016357422
ell 451, elapsed: 0.0005640983581542969
ell 450, elapsed: 0.0005629062652587891
ell 449, elapsed: 0.0005660057067871094
ell 448, elapsed: 0.000576019287109375
ell 442, elapsed: 0.0009791851043701172
ell 441, elapsed: 0.0006129741668701172
ell 440, elapsed: 0.0005710124969482422
ell 439, elapsed: 0.0005590915679931641
ell 438, elapsed: 0.0005788803100585938
ell 432, elapsed: 0.0009748935699462891
ell 431, elapsed: 0.0005619525909423828
ell 430, elapsed: 0.0005960464477539062
ell 429, elapsed: 0.0005650520324707031
ell 428, elapsed: 0.0005688667297363281
ell 422, elapsed: 0.0009720325469970703
ell 421, elapsed: 0.0005669593811035156
ell 420, elapsed: 0.0005669593811035156
ell 419, elapsed: 0.0006239414215087891
ell 418, elapsed: 0.0005700588226318359
ell 412, elapsed: 0.0009620189666748047
ell 411, elapsed: 0.0005729198455810547
ell 410, elapsed: 0.0005741119384765625
ell 409, elapsed: 0.0005679130554199219
ell 408, elapsed: 0.0006129741668701172
ell 402, elapsed: 0.0010080337524414062
ell 401, elapsed: 0.0005609989166259766
ell 400, elapsed: 0.0005779266357421875
ell 399, elapsed: 0.0005660057067871094
ell 398, elapsed: 0.0005781650543212891
ell 392, elapsed: 0.001046895980834961
ell 391, elapsed: 0.0005660057067871094
ell 390, elapsed: 0.0005710124969482422
ell 389, elapsed: 0.0005691051483154297
ell 388, elapsed: 0.0005657672882080078
ell 382, elapsed: 0.001046895980834961
ell 381, elapsed: 0.0005657672882080078
ell 380, elapsed: 0.0005781650543212891
ell 379, elapsed: 0.0005769729614257812
ell 378, elapsed: 0.0005681514739990234
ell 372, elapsed: 0.0010380744934082031
ell 371, elapsed: 0.0006110668182373047
ell 370, elapsed: 0.0005791187286376953
ell 369, elapsed: 0.000576019287109375
ell 368, elapsed: 0.0005738735198974609
ell 362, elapsed: 0.0009720325469970703
ell 361, elapsed: 0.0005350112915039062
ell 360, elapsed: 0.0005888938903808594
ell 359, elapsed: 0.0005290508270263672
ell 358, elapsed: 0.0005249977111816406
ell 352, elapsed: 0.0009241104125976562
ell 351, elapsed: 0.0005359649658203125
ell 350, elapsed: 0.0005390644073486328
ell 349, elapsed: 0.0005319118499755859
ell 348, elapsed: 0.0005919933319091797
ell 342, elapsed: 0.0009529590606689453
ell 341, elapsed: 0.0005400180816650391
ell 340, elapsed: 0.0005240440368652344
ell 339, elapsed: 0.0005309581756591797
ell 338, elapsed: 0.0005509853363037109
ell 332, elapsed: 0.0009810924530029297
ell 331, elapsed: 0.0005409717559814453
ell 330, elapsed: 0.0005521774291992188
ell 329, elapsed: 0.0005459785461425781
ell 328, elapsed: 0.00055694580078125
ell 322, elapsed: 0.0009191036224365234
ell 321, elapsed: 0.0005970001220703125
ell 320, elapsed: 0.0005490779876708984
ell 319, elapsed: 0.0005431175231933594
ell 318, elapsed: 0.0005488395690917969
ell 312, elapsed: 0.0009448528289794922
ell 311, elapsed: 0.0005478858947753906
ell 310, elapsed: 0.0006070137023925781
ell 309, elapsed: 0.0005500316619873047
ell 308, elapsed: 0.0005500316619873047
ell 302, elapsed: 0.0009648799896240234
ell 301, elapsed: 0.0005459785461425781
ell 300, elapsed: 0.0005810260772705078
ell 299, elapsed: 0.0005879402160644531
ell 298, elapsed: 0.0005328655242919922
ell 292, elapsed: 0.0009379386901855469
ell 291, elapsed: 0.0005409717559814453
ell 290, elapsed: 0.0005490779876708984
ell 289, elapsed: 0.0005440711975097656
ell 288, elapsed: 0.0005428791046142578
ell 282, elapsed: 0.0009481906890869141
ell 281, elapsed: 0.0005490779876708984
ell 280, elapsed: 0.0005478858947753906
ell 279, elapsed: 0.0005619525909423828
ell 278, elapsed: 0.0005600452423095703
ell 272, elapsed: 0.0009808540344238281
ell 271, elapsed: 0.0005469322204589844
ell 270, elapsed: 0.0005619525909423828
ell 269, elapsed: 0.0005459785461425781
ell 268, elapsed: 0.0005509853363037109
ell 262, elapsed: 0.0009438991546630859
ell 261, elapsed: 0.0005970001220703125
ell 260, elapsed: 0.0005550384521484375
ell 259, elapsed: 0.0005459785461425781
ell 258, elapsed: 0.0005550384521484375
ell 252, elapsed: 0.00096893310546875
ell 251, elapsed: 0.0005450248718261719
ell 250, elapsed: 0.0005578994750976562
ell 249, elapsed: 0.0005638599395751953
ell 248, elapsed: 0.0005519390106201172
ell 242, elapsed: 0.0009658336639404297
ell 241, elapsed: 0.0005559921264648438
ell 240, elapsed: 0.0005669593811035156
ell 239, elapsed: 0.0005640983581542969
ell 238, elapsed: 0.0005910396575927734
ell 232, elapsed: 0.0009610652923583984
ell 231, elapsed: 0.0005540847778320312
ell 230, elapsed: 0.0005748271942138672
ell 229, elapsed: 0.0005679130554199219
ell 228, elapsed: 0.00055694580078125
ell 222, elapsed: 0.0010669231414794922
ell 221, elapsed: 0.0005509853363037109
ell 220, elapsed: 0.0005519390106201172
ell 219, elapsed: 0.0005459785461425781
ell 218, elapsed: 0.0005431175231933594
ell 212, elapsed: 0.0010142326354980469
ell 211, elapsed: 0.0005519390106201172
ell 210, elapsed: 0.0005450248718261719
ell 209, elapsed: 0.000537872314453125
ell 208, elapsed: 0.0005481243133544922
ell 202, elapsed: 0.0009648799896240234
ell 201, elapsed: 0.0005729198455810547
ell 200, elapsed: 0.0005500316619873047
ell 199, elapsed: 0.000537872314453125
ell 198, elapsed: 0.0005471706390380859
ell 192, elapsed: 0.0010449886322021484
ell 191, elapsed: 0.0005409717559814453
ell 190, elapsed: 0.0005559921264648438
ell 189, elapsed: 0.0006008148193359375
ell 188, elapsed: 0.0005500316619873047
ell 182, elapsed: 0.0009579658508300781
ell 181, elapsed: 0.0005471706390380859
ell 180, elapsed: 0.0005538463592529297
ell 179, elapsed: 0.0005409717559814453
ell 178, elapsed: 0.0006020069122314453
ell 172, elapsed: 0.0009360313415527344
ell 171, elapsed: 0.0005528926849365234
ell 170, elapsed: 0.0005598068237304688
ell 169, elapsed: 0.0005300045013427734
ell 168, elapsed: 0.0005638599395751953
ell 162, elapsed: 0.0010290145874023438
ell 161, elapsed: 0.0005590915679931641
ell 160, elapsed: 0.0005621910095214844
ell 159, elapsed: 0.0005548000335693359
ell 158, elapsed: 0.00055694580078125
ell 152, elapsed: 0.0010101795196533203
ell 151, elapsed: 0.0005459785461425781
ell 150, elapsed: 0.0005428791046142578
ell 149, elapsed: 0.0005459785461425781
ell 148, elapsed: 0.0005481243133544922
ell 142, elapsed: 0.0009450912475585938
ell 141, elapsed: 0.0005419254302978516
ell 140, elapsed: 0.0006089210510253906
ell 139, elapsed: 0.0005428791046142578
ell 138, elapsed: 0.0005500316619873047
ell 132, elapsed: 0.0008411407470703125
ell 131, elapsed: 0.0005249977111816406
ell 130, elapsed: 0.000537872314453125
ell 129, elapsed: 0.0005640983581542969
ell 128, elapsed: 0.0005440711975097656
ell 122, elapsed: 0.0009419918060302734
ell 121, elapsed: 0.0005359649658203125
ell 120, elapsed: 0.0005521774291992188
ell 119, elapsed: 0.0005409717559814453
ell 118, elapsed: 0.0005459785461425781
ell 112, elapsed: 0.0009911060333251953
ell 111, elapsed: 0.0005490779876708984
ell 110, elapsed: 0.0005619525909423828
ell 109, elapsed: 0.0005471706390380859
ell 108, elapsed: 0.0005400180816650391
ell 102, elapsed: 0.0009799003601074219
ell 101, elapsed: 0.002235889434814453
ell 100, elapsed: 0.0022690296173095703
ell 99, elapsed: 0.002231121063232422
ell 98, elapsed: 0.0023179054260253906
ell 92, elapsed: 0.004332065582275391
ell 91, elapsed: 0.002271890640258789
ell 90, elapsed: 0.0022590160369873047
ell 89, elapsed: 0.0023529529571533203
ell 88, elapsed: 0.002256155014038086
ell 82, elapsed: 0.0043981075286865234
ell 81, elapsed: 0.0023870468139648438
ell 80, elapsed: 0.0023190975189208984
ell 79, elapsed: 0.0022788047790527344
ell 78, elapsed: 0.002318859100341797
ell 72, elapsed: 0.0044939517974853516
ell 71, elapsed: 0.0023000240325927734
ell 70, elapsed: 0.00232696533203125
ell 69, elapsed: 0.0023300647735595703
ell 68, elapsed: 0.002290010452270508
ell 62, elapsed: 0.0045011043548583984
ell 61, elapsed: 0.002335071563720703
ell 60, elapsed: 0.002351999282836914
ell 59, elapsed: 0.002299070358276367
ell 58, elapsed: 0.0023260116577148438
ell 52, elapsed: 0.004496097564697266
ell 51, elapsed: 0.0023238658905029297
ell 50, elapsed: 0.002351045608520508
ell 49, elapsed: 0.0023789405822753906
ell 48, elapsed: 0.002370119094848633
ell 42, elapsed: 0.00448298454284668
ell 41, elapsed: 0.0023529529571533203
ell 40, elapsed: 0.002338886260986328
ell 39, elapsed: 0.0023088455200195312
ell 38, elapsed: 0.0023851394653320312
ell 32, elapsed: 0.004513978958129883
ell 31, elapsed: 0.0023698806762695312
ell 30, elapsed: 0.0023908615112304688
ell 29, elapsed: 0.002371072769165039
ell 28, elapsed: 0.002310037612915039
ell 22, elapsed: 0.004475831985473633
ell 21, elapsed: 0.0023679733276367188
ell 20, elapsed: 0.0023980140686035156
ell 19, elapsed: 0.0023288726806640625
ell 18, elapsed: 0.0023779869079589844
ell 12, elapsed: 0.0045070648193359375
ell 11, elapsed: 0.0023560523986816406
ell 10, elapsed: 0.002338886260986328
ell 9, elapsed: 0.002415895462036133
ell 8, elapsed: 0.002351999282836914
  0.512720 seconds (68.56 k allocations: 12.176 MiB)
elapsed: 0.0028450489044189453
step:          0.044038 sec (0 allocations: 0 byte, 0.0% gc time)
swapping:      0.000376 sec (0 allocations: 0 byte, 0.0% gc time)
calc_Mellell!: 0.0212 sec (0 allocations: 0 byte, 0.0% gc time)
  t0 :  0.006716 sec (0 allocations: 0 byte, 0.0% gc time)
  tm2 : 0.052646 sec (0 allocations: 0 byte, 0.0% gc time)
  tm2s: 0.006812 sec (0 allocations: 0 byte, 0.0% gc time)
  tm4 : 0.122003 sec (0 allocations: 0 byte, 0.0% gc time)
  tp2 : 0.0 sec (0 allocations: 0 byte, 0.0% gc time)
  tp2s: 0.0 sec (0 allocations: 0 byte, 0.0% gc time)
  tp4 : 0.0 sec (0 allocations: 0 byte, 0.0% gc time)
calc_wtdll!:   0.379275 sec (48.6 k allocations: 11.096 MB, 0.0% gc time)
calc_wljj!:    0.020282 sec (69 allocations: 1.078 KB, 0.0% gc time)
mult_prefac!:  0.0 sec (0 allocations: 0 byte, 0.0% gc time)
convert:       0.0 sec (0 allocations: 0 byte, 0.0% gc time)
write:         0.023527 sec (0 allocations: 0 byte, 0.0% gc time)
test_rand_2f1: 0.0 sec (0 allocations: 0 byte, 0.0% gc time)
Closing outfile out/MlCache/MlCache.bin...   0.000011 seconds
xi, l=0, nu=0:   0.289617 seconds (603.07 k allocations: 32.981 MiB, 99.49% compilation time)
xi, l=0, nu=-2:  0.001467 seconds (114 allocations: 148.969 KiB)
Created 'out/xi.tsv'.
  q=1.1, R=0.6:	  0.394430 seconds (264.58 k allocations: 38.109 MiB)
  q=1.1, R=0.7:	  0.472752 seconds (276.43 k allocations: 40.113 MiB, 2.98% gc time)
  q=1.1, R=0.8:	  0.477021 seconds (271.87 k allocations: 39.334 MiB, 2.25% gc time)
  q=1.1, R=0.9:	  0.539631 seconds (266.68 k allocations: 38.464 MiB, 1.23% gc time)
  q=1.1, R=0.998:	 14.374516 seconds (114.96 k allocations: 7.588 MiB)
  q=1.1, R=1.0:	  0.002125 seconds (8.20 k allocations: 704.344 KiB)

ℓ = 1000
Δℓ = 4
ΔℓRg1 = -4
N = 4096
q = 1.1
kmin = 1.0e-5
kmax = 1000.0
χ0 = 0.001
RR = RR.tsv
ℓmax = ℓmax.bin
f21 = f21.bin
kmin = 1.0e-5
kmax = 1000.0
dlrec    = 4
dlrecRg1 = -4
Output size: 1573632 bytes = 0.0014655590057373047 GiB
Output size: 786816 bytes = 0.0007327795028686523 GiB
Reading 'out/F21EllCache'...   0.000874 seconds (198 allocations: 533.078 KiB)
ellmax: 1002
lmaxcache: 1000
fell[:,1,1] = ComplexF64[1.726292812820208e-224 - 4.2281979352226965e-240im, 1.7282693092099638e-224 - 4.233038955177178e-240im]
ell 1002, elapsed: 1.7881393432617188e-5
ell 1001, elapsed: 0.00047779083251953125
ell 1000, elapsed: 0.0007779598236083984
ell 999, elapsed: 0.004174947738647461
ell 998, elapsed: 0.0038390159606933594
ell 44, elapsed: 0.557797908782959
ell 43, elapsed: 0.003980875015258789
ell 42, elapsed: 0.003922939300537109
ell 41, elapsed: 0.003906965255737305
ell 40, elapsed: 0.003912925720214844
  0.587599 seconds (4.59 k allocations: 322.266 KiB)
elapsed: 0.004580020904541016
step:          0.556615 sec (0 allocations: 0 byte, 0.0% gc time)
swapping:      0.00028 sec (0 allocations: 0 byte, 0.0% gc time)
calc_Mellell!: 0.000707 sec (0 allocations: 0 byte, 0.0% gc time)
  t0 :  0.000398 sec (0 allocations: 0 byte, 0.0% gc time)
  tm2 : 0.007369 sec (0 allocations: 0 byte, 0.0% gc time)
  tm2s: 0.000362 sec (0 allocations: 0 byte, 0.0% gc time)
  tm4 : 0.018268 sec (0 allocations: 0 byte, 0.0% gc time)
  tp2 : 0.0 sec (0 allocations: 0 byte, 0.0% gc time)
  tp2s: 0.0 sec (0 allocations: 0 byte, 0.0% gc time)
  tp4 : 0.0 sec (0 allocations: 0 byte, 0.0% gc time)
calc_wtdll!:   0.026572 sec (480 allocations: 52.5 KB, 0.0% gc time)
calc_wljj!:    0.000612 sec (1 allocations: 16 byte, 0.0% gc time)
mult_prefac!:  0.0 sec (0 allocations: 0 byte, 0.0% gc time)
convert:       0.0 sec (0 allocations: 0 byte, 0.0% gc time)
write:         0.000657 sec (0 allocations: 0 byte, 0.0% gc time)
test_rand_2f1: 0.0 sec (0 allocations: 0 byte, 0.0% gc time)
Closing outfile out/MlCache/MlCache.bin...   0.000011 seconds
  0.405992 seconds (38 allocations: 66.859 KiB)
make_phi():   0.006206 seconds (65 allocations: 275.984 KiB)
  0.033713 seconds (11.42 k allocations: 711.960 KiB, 91.51% compilation time)
tskip:       0.0 sec (0 allocations: 0 byte, 0.0% gc time)
tread:       0.000523 sec (17 allocations: 1.266 KB, 0.0% gc time)
tmultphi:    0.00021 sec (0 allocations: 0 byte, 0.0% gc time)
tbrfft:      0.000856 sec (0 allocations: 0 byte, 0.0% gc time)
tmultprefac: 0.000376 sec (0 allocations: 0 byte, 0.0% gc time)
toutfunc:    6.8e-5 sec (0 allocations: 0 byte, 0.0% gc time)
Created 'out/wl42_jj00.tsv'.
Created 'out/wl42_jj02.tsv'.
    Testing TwoFAST tests passed 
