Julia Version 1.6.0-DEV.1101
Commit 2fe2b43606 (2020-10-01 16:59 UTC)
Platform Info:
  OS: Linux (x86_64-pc-linux-gnu)
  CPU: AMD EPYC 7502 32-Core Processor
  WORD_SIZE: 64
  LIBM: libopenlibm
  LLVM: libLLVM-10.0.1 (ORCJIT, znver2)
Environment:
  JULIA_DEPOT_PATH = ::/usr/local/share/julia
  JULIA_NUM_THREADS = 2

  Resolving package versions...
  Installed CompilerSupportLibraries_jll ─ v0.3.3+0
  Installed OpenSpecFun_jll ────────────── v0.5.3+3
  Installed MKL_jll ────────────────────── v2020.2.254+0
  Installed Reexport ───────────────────── v0.2.0
  Installed IntelOpenMP_jll ────────────── v2018.0.3+0
  Installed AbstractFFTs ───────────────── v0.5.0
  Installed BinaryProvider ─────────────── v0.5.10
  Installed Readables ──────────────────── v0.3.3
  Installed GenericSchur ───────────────── v0.4.0
  Installed FFTW_jll ───────────────────── v3.3.9+5
  Installed GenericSVD ─────────────────── v0.3.0
  Installed SpecialFunctions ───────────── v0.10.3
  Installed FFTW ───────────────────────── v1.2.4
  Installed TwoFAST ────────────────────── v0.1.3
  Installed ArbNumerics ────────────────── v1.2.1
Updating `~/.julia/environments/v1.6/Project.toml`
  [0dd23c3e] + TwoFAST v0.1.3
Updating `~/.julia/environments/v1.6/Manifest.toml`
  [621f4979] + AbstractFFTs v0.5.0
  [7e558dbc] + ArbNumerics v1.2.1
  [b99e7846] + BinaryProvider v0.5.10
  [e66e0078] + CompilerSupportLibraries_jll v0.3.3+0
  [7a1cc6ca] + FFTW v1.2.4
  [f5851436] + FFTW_jll v3.3.9+5
  [01680d73] + GenericSVD v0.3.0
  [c145ed77] + GenericSchur v0.4.0
  [1d5cc7b8] + IntelOpenMP_jll v2018.0.3+0
  [856f044c] + MKL_jll v2020.2.254+0
  [efe28fd5] + OpenSpecFun_jll v0.5.3+3
  [0d4725de] + Readables v0.3.3
  [189a3867] + Reexport v0.2.0
  [276daf66] + SpecialFunctions v0.10.3
  [0dd23c3e] + TwoFAST v0.1.3
  [56f22d72] + Artifacts
  [2a0f44e3] + Base64
  [ade2ca70] + Dates
  [8bb1440f] + DelimitedFiles
  [8ba89e20] + Distributed
  [b77e0a4c] + InteractiveUtils
  [76f85450] + LibGit2
  [8f399da3] + Libdl
  [37e2e46d] + LinearAlgebra
  [56ddb016] + Logging
  [d6f4376e] + Markdown
  [a63ad114] + Mmap
  [44cfe95a] + Pkg
  [de0858da] + Printf
  [3fa0cd96] + REPL
  [9a3f8284] + Random
  [ea8e919c] + SHA
  [9e88b42a] + Serialization
  [6462fe0b] + Sockets
  [fa267f1f] + TOML
  [8dfed614] + Test
  [cf7118a7] + UUIDs
  [4ec0a83e] + Unicode
   Building ArbNumerics → `~/.julia/scratchspaces/44cfe95a-1eb2-52ea-b672-e2afdf69b78f/329a81d67c64e3a51c176a243b6424fbe39213d0/build.log`
   Building FFTW ───────→ `~/.julia/scratchspaces/44cfe95a-1eb2-52ea-b672-e2afdf69b78f/8b7c16b56936047ca41bf25effa137ae0b381ae8/build.log`
    Testing TwoFAST
Status `/tmp/jl_FS89x5/Project.toml`
  [7e558dbc] ArbNumerics v1.2.1
  [39dd38d3] Dierckx v0.5.0
  [7a1cc6ca] FFTW v1.2.4
  [276daf66] SpecialFunctions v0.10.3
  [0dd23c3e] TwoFAST v0.1.3
  [8bb1440f] DelimitedFiles
  [37e2e46d] LinearAlgebra
  [56ddb016] Logging
  [8dfed614] Test
Status `/tmp/jl_FS89x5/Manifest.toml`
  [621f4979] AbstractFFTs v0.5.0
  [7e558dbc] ArbNumerics v1.2.1
  [b99e7846] BinaryProvider v0.5.10
  [e66e0078] CompilerSupportLibraries_jll v0.3.3+0
  [39dd38d3] Dierckx v0.5.0
  [cd4c43a9] Dierckx_jll v0.0.1+0
  [7a1cc6ca] FFTW v1.2.4
  [f5851436] FFTW_jll v3.3.9+5
  [01680d73] GenericSVD v0.3.0
  [c145ed77] GenericSchur v0.4.0
  [1d5cc7b8] IntelOpenMP_jll v2018.0.3+0
  [856f044c] MKL_jll v2020.2.254+0
  [efe28fd5] OpenSpecFun_jll v0.5.3+3
  [0d4725de] Readables v0.3.3
  [189a3867] Reexport v0.2.0
  [276daf66] SpecialFunctions v0.10.3
  [0dd23c3e] TwoFAST v0.1.3
  [56f22d72] Artifacts
  [2a0f44e3] Base64
  [ade2ca70] Dates
  [8bb1440f] DelimitedFiles
  [8ba89e20] Distributed
  [b77e0a4c] InteractiveUtils
  [76f85450] LibGit2
  [8f399da3] Libdl
  [37e2e46d] LinearAlgebra
  [56ddb016] Logging
  [d6f4376e] Markdown
  [a63ad114] Mmap
  [44cfe95a] Pkg
  [de0858da] Printf
  [3fa0cd96] REPL
  [9a3f8284] Random
  [ea8e919c] SHA
  [9e88b42a] Serialization
  [6462fe0b] Sockets
  [fa267f1f] TOML
  [8dfed614] Test
  [cf7118a7] UUIDs
  [4ec0a83e] Unicode
    Testing Running tests...
WARNING: could not import Printf.ini_hex into ArbNumerics
WARNING: could not import Printf.ini_HEX into ArbNumerics
t = 0.0 sec (0 allocations: 0 byte, 0.0% gc time)
typeof(t) = NamedTuple{(:value, :time, :bytes, :gctime, :gcstats), Tuple{DataType, Float64, Int64, Float64, Base.GC_Diff}}
TwoFAST.PerformanceStats.TimedType = Union{NamedTuple{(:value, :time, :bytes, :gctime, :gcstats), Tuple{T, Float64, Int64, Float64, Base.GC_Diff}}, Tuple{Any, Float64, Int64, Float64, Base.GC_Diff}} where T
t = 0.0 sec (0 allocations: 0 byte, 0.0% gc time)
t: 0.0 sec (0 allocations: 0 byte, 0.0% gc time)
Testing ξ(r), ℓ=0, ν=-1 ... passed
Testing ξ(r), ℓ=0, ν=0 ... passed
Testing ξ(r), ℓ=0, ν=1 ... passed
Testing ξ(r), ℓ=0, ν=2 ... passed
Testing ξ(r), ℓ=0, ν=3 ... passed
Testing ξ(r), ℓ=1, ν=0 ... passed
Testing ξ(r), ℓ=1, ν=1 ... passed
Testing ξ(r), ℓ=1, ν=2 ... passed
Testing ξ(r), ℓ=1, ν=3 ... passed
Testing ξ(r), ℓ=2, ν=-1 ... passed
Testing ξ(r), ℓ=2, ν=0 ... passed
Testing ξ(r), ℓ=2, ν=1 ... passed
Testing ξ(r), ℓ=2, ν=2 ... passed
Testing ξ(r), ℓ=2, ν=3 ... passed
Testing ξ(r), ℓ=3, ν=-1 ... passed
Testing ξ(r), ℓ=3, ν=0 ... passed
Testing ξ(r), ℓ=3, ν=1 ... passed
Testing ξ(r), ℓ=3, ν=2 ... passed
Testing ξ(r), ℓ=3, ν=3 ... passed
Testing ξ(r), ℓ=4, ν=-1 ... passed
Testing ξ(r), ℓ=4, ν=0 ... passed
Testing ξ(r), ℓ=4, ν=1 ... passed
Testing ξ(r), ℓ=4, ν=2 ... passed
Testing ξ(r), ℓ=4, ν=3 ... passed
Testing ξ(r) ... passed
Testing ξ′(r) ... passed
Testing ξ″(r) ... passed
Calculating fmax: 
  dlrec    = 4
  dlrecRg1 = -4
  q=1.1, R=1.1:	  2.726560 seconds (847.02 k allocations: 54.113 MiB, 0.82% gc time, 91.32% compilation time)

  2.759109 seconds (859.51 k allocations: 54.901 MiB, 0.81% gc time, 91.32% compilation time)
ℓ = 1202
Δℓ = 4
ΔℓRg1 = -4
N = 1600
q = 1.1
kmin = 1.0e-5
kmax = 100000.00000000004
χ0 = 0.023029999999999995
RR = RR.tsv
ℓmax = ℓmax.bin
f21 = f21.bin
kmin = 1.0e-5
kmax = 100000.0
dlrec    = 4
dlrecRg1 = -4
Output size: 5741568 bytes = 0.005347251892089844 GiB
Output size: 51264 bytes = 4.774332046508789e-5 GiB
Reading 'out/F21EllCache'...   0.408968 seconds (426.51 k allocations: 24.996 MiB, 4.13% gc time, 99.00% compilation time)
ellmax: 1202
lmaxcache: 1202
fell[:,1,1] = ComplexF64[3.9583795592771634e-52 - 9.695233714158177e-68im, 3.990121772925759e-52 - 9.772979714843386e-68im]
ell 1202, elapsed: 7.700920104980469e-5
ell 1201, elapsed: 0.854193925857544
ell 1200, elapsed: 0.0003669261932373047
ell 1199, elapsed: 0.0003390312194824219
ell 1198, elapsed: 0.0003390312194824219
ell 1002, elapsed: 0.007069110870361328
ell 1001, elapsed: 0.0003390312194824219
ell 1000, elapsed: 0.0003361701965332031
ell 999, elapsed: 0.0003371238708496094
ell 998, elapsed: 0.00033593177795410156
ell 902, elapsed: 0.0036249160766601562
ell 901, elapsed: 0.0004899501800537109
ell 900, elapsed: 0.00034308433532714844
ell 899, elapsed: 0.0003428459167480469
ell 898, elapsed: 0.0003521442413330078
ell 802, elapsed: 0.003760099411010742
ell 801, elapsed: 0.0003600120544433594
ell 800, elapsed: 0.0003578662872314453
ell 799, elapsed: 0.0003731250762939453
ell 798, elapsed: 0.0003612041473388672
ell 702, elapsed: 0.0038220882415771484
ell 701, elapsed: 0.0003600120544433594
ell 700, elapsed: 0.00036406517028808594
ell 699, elapsed: 0.0003609657287597656
ell 698, elapsed: 0.0003600120544433594
ell 602, elapsed: 0.004022836685180664
ell 601, elapsed: 0.0003809928894042969
ell 600, elapsed: 0.0003991127014160156
ell 599, elapsed: 0.0003879070281982422
ell 598, elapsed: 0.0004000663757324219
ell 502, elapsed: 0.004225969314575195
ell 501, elapsed: 0.00045800209045410156
ell 500, elapsed: 0.00039505958557128906
ell 499, elapsed: 0.00039386749267578125
ell 498, elapsed: 0.0004329681396484375
ell 402, elapsed: 0.004087924957275391
ell 401, elapsed: 0.0003819465637207031
ell 400, elapsed: 0.0003750324249267578
ell 399, elapsed: 0.0003750324249267578
ell 398, elapsed: 0.00038814544677734375
ell 302, elapsed: 0.004104137420654297
ell 301, elapsed: 0.0003819465637207031
ell 300, elapsed: 0.00037097930908203125
ell 299, elapsed: 0.00037407875061035156
ell 298, elapsed: 0.0003771781921386719
ell 202, elapsed: 0.003982067108154297
ell 201, elapsed: 0.000370025634765625
ell 200, elapsed: 0.00036907196044921875
ell 199, elapsed: 0.00036406517028808594
ell 198, elapsed: 0.0003650188446044922
ell 152, elapsed: 0.002068042755126953
ell 151, elapsed: 0.0003609657287597656
ell 150, elapsed: 0.0003578662872314453
ell 149, elapsed: 0.0003600120544433594
ell 148, elapsed: 0.0003609657287597656
ell 127, elapsed: 0.0011439323425292969
ell 126, elapsed: 0.0003349781036376953
ell 125, elapsed: 0.000331878662109375
ell 124, elapsed: 0.0003268718719482422
ell 123, elapsed: 0.00032901763916015625
ell 114, elapsed: 0.0006339550018310547
ell 113, elapsed: 0.00032806396484375
ell 112, elapsed: 0.0003299713134765625
ell 111, elapsed: 0.0003261566162109375
ell 110, elapsed: 0.0003237724304199219
ell 102, elapsed: 0.0005970001220703125
ell 101, elapsed: 0.00032711029052734375
ell 100, elapsed: 0.00033283233642578125
ell 99, elapsed: 0.00032711029052734375
ell 98, elapsed: 0.00032591819763183594
ell 97, elapsed: 0.0003590583801269531
ell 96, elapsed: 0.0003521442413330078
ell 95, elapsed: 0.00035381317138671875
ell 94, elapsed: 0.00036406517028808594
ell 93, elapsed: 0.0003521442413330078
ell 92, elapsed: 0.0003600120544433594
ell 91, elapsed: 0.0003829002380371094
ell 90, elapsed: 0.00035500526428222656
ell 89, elapsed: 0.0003650188446044922
ell 88, elapsed: 0.0003559589385986328
ell 87, elapsed: 0.0003578662872314453
ell 86, elapsed: 0.0003540515899658203
ell 85, elapsed: 0.0003528594970703125
ell 84, elapsed: 0.0003600120544433594
ell 83, elapsed: 0.00035381317138671875
ell 82, elapsed: 0.0003790855407714844
ell 81, elapsed: 0.0003571510314941406
ell 80, elapsed: 0.0003941059112548828
ell 79, elapsed: 0.0003571510314941406
ell 78, elapsed: 0.00036406517028808594
ell 77, elapsed: 0.00036406517028808594
ell 76, elapsed: 0.00038504600524902344
ell 75, elapsed: 0.0003609657287597656
ell 74, elapsed: 0.0003571510314941406
ell 73, elapsed: 0.00035500526428222656
ell 72, elapsed: 0.0003609657287597656
ell 71, elapsed: 0.0003540515899658203
ell 70, elapsed: 0.00036215782165527344
ell 69, elapsed: 0.0003600120544433594
ell 68, elapsed: 0.0003540515899658203
ell 67, elapsed: 0.0003590583801269531
ell 66, elapsed: 0.00035309791564941406
ell 65, elapsed: 0.00036716461181640625
ell 64, elapsed: 0.0003559589385986328
ell 63, elapsed: 0.0003559589385986328
ell 62, elapsed: 0.00035881996154785156
ell 61, elapsed: 0.0003581047058105469
ell 60, elapsed: 0.0003631114959716797
ell 59, elapsed: 0.0003578662872314453
ell 58, elapsed: 0.0003650188446044922
ell 57, elapsed: 0.0003619194030761719
ell 56, elapsed: 0.00035500526428222656
ell 55, elapsed: 0.0003612041473388672
ell 54, elapsed: 0.00035691261291503906
ell 53, elapsed: 0.00035500526428222656
ell 52, elapsed: 0.00036215782165527344
ell 51, elapsed: 0.0003681182861328125
ell 50, elapsed: 0.0003619194030761719
ell 49, elapsed: 0.0003619194030761719
ell 48, elapsed: 0.0003790855407714844
ell 47, elapsed: 0.00036716461181640625
ell 46, elapsed: 0.0003590583801269531
ell 45, elapsed: 0.0003619194030761719
ell 44, elapsed: 0.0003600120544433594
ell 43, elapsed: 0.00035691261291503906
ell 42, elapsed: 0.0003631114959716797
ell 41, elapsed: 0.0003590583801269531
ell 40, elapsed: 0.00036406517028808594
ell 39, elapsed: 0.0003590583801269531
ell 38, elapsed: 0.0003559589385986328
ell 37, elapsed: 0.0003769397735595703
ell 36, elapsed: 0.00035691261291503906
ell 35, elapsed: 0.00037407875061035156
ell 34, elapsed: 0.0003609657287597656
ell 33, elapsed: 0.0003650188446044922
ell 32, elapsed: 0.00036597251892089844
ell 31, elapsed: 0.0003619194030761719
ell 30, elapsed: 0.00037217140197753906
ell 29, elapsed: 0.0003609657287597656
ell 28, elapsed: 0.0003669261932373047
ell 27, elapsed: 0.0003578662872314453
ell 26, elapsed: 0.0003762245178222656
ell 25, elapsed: 0.000370025634765625
ell 24, elapsed: 0.0003600120544433594
ell 23, elapsed: 0.0003650188446044922
ell 22, elapsed: 0.00036215782165527344
ell 21, elapsed: 0.0003609657287597656
ell 20, elapsed: 0.0003669261932373047
ell 19, elapsed: 0.0003590583801269531
ell 18, elapsed: 0.0003647804260253906
ell 17, elapsed: 0.00036406517028808594
ell 16, elapsed: 0.0003838539123535156
ell 15, elapsed: 0.00036406517028808594
ell 14, elapsed: 0.0003628730773925781
ell 13, elapsed: 0.0003647804260253906
ell 12, elapsed: 0.0003628730773925781
ell 11, elapsed: 0.00037217140197753906
ell 10, elapsed: 0.00037288665771484375
ell 9, elapsed: 0.0003600120544433594
ell 8, elapsed: 0.0003628730773925781
ell 7, elapsed: 0.0003600120544433594
ell 6, elapsed: 0.0003619194030761719
ell 5, elapsed: 0.00037789344787597656
ell 4, elapsed: 0.00036406517028808594
ell 3, elapsed: 0.0003681182861328125
ell 2, elapsed: 0.0003650188446044922
ell 1, elapsed: 0.0003638267517089844
ell 0, elapsed: 0.0003669261932373047
  1.262688 seconds (1.38 M allocations: 74.479 MiB, 2.68% gc time, 91.85% compilation time)
elapsed: 0.00041794776916503906
step:          0.203373 sec (311.14 k allocations: 16.963 MB, 0.0% gc time)
swapping:      0.000262 sec (0 allocations: 0 byte, 0.0% gc time)
calc_Mellell!: 0.09615 sec (135.739 k allocations: 7.431 MB, 0.0% gc time)
  t0 :  0.0 sec (0 allocations: 0 byte, 0.0% gc time)
  tm2 : 0.0 sec (0 allocations: 0 byte, 0.0% gc time)
  tm2s: 0.0 sec (0 allocations: 0 byte, 0.0% gc time)
  tm4 : 0.0 sec (0 allocations: 0 byte, 0.0% gc time)
  tp2 : 0.0 sec (0 allocations: 0 byte, 0.0% gc time)
  tp2s: 0.0 sec (0 allocations: 0 byte, 0.0% gc time)
  tp4 : 0.0 sec (0 allocations: 0 byte, 0.0% gc time)
calc_wtdll!:   0.647465 sec (509.622 k allocations: 28.196 MB, 2.44% gc time)
calc_wljj!:    0.001213 sec (6 allocations: 96 byte, 0.0% gc time)
mult_prefac!:  0.0 sec (0 allocations: 0 byte, 0.0% gc time)
convert:       0.0 sec (0 allocations: 0 byte, 0.0% gc time)
write:         0.002044 sec (0 allocations: 0 byte, 0.0% gc time)
test_rand_2f1: 0.0 sec (0 allocations: 0 byte, 0.0% gc time)
Closing outfile out/Ml21-cache.bin...   0.000007 seconds
  0.758306 seconds (246.25 k allocations: 14.212 MiB, 2.97% gc time, 36.68% compilation time)
make_phi():   0.004927 seconds (8.18 k allocations: 237.844 KiB)
  0.152874 seconds (87.57 k allocations: 4.749 MiB, 93.13% compilation time)
tskip:       1.8e-5 sec (0 allocations: 0 byte, 0.0% gc time)
tread:       0.001734 sec (17 allocations: 2.125 KB, 0.0% gc time)
tmultphi:    0.02309 sec (21.425 k allocations: 1.287 MB, 0.0% gc time)
tbrfft:      0.00256 sec (0 allocations: 0 byte, 0.0% gc time)
tmultprefac: 0.001296 sec (0 allocations: 0 byte, 0.0% gc time)
toutfunc:    0.100078 sec (64.483 k allocations: 3.33 MB, 0.0% gc time)
Testing R=1.1 ... passed
Calculating fmax: 
  dlrec    = 4
  dlrecRg1 = -4
  q=1.1, R=1.0:	  0.000779 seconds (3.20 k allocations: 275.344 KiB)

  0.000843 seconds (3.25 k allocations: 309.984 KiB)
ℓ = 1202
Δℓ = 4
ΔℓRg1 = -4
N = 1600
q = 1.1
kmin = 1.0e-5
kmax = 100000.00000000004
χ0 = 0.023029999999999995
RR = RR.tsv
ℓmax = ℓmax.bin
f21 = f21.bin
kmin = 1.0e-5
kmax = 100000.0
dlrec    = 4
dlrecRg1 = -4
Output size: 61465536 bytes = 0.05724424123764038 GiB
Output size: 51264 bytes = 4.774332046508789e-5 GiB
Reading 'out/F21EllCache'...   0.000560 seconds (197 allocations: 84.203 KiB)
ellmax: 1202
lmaxcache: 1202
fell[:,1,1] = ComplexF64[809.6031528389767 - 1.9829558194077161e-13im, 0.0 + 0.0im]
ell 1202, elapsed: 5.412101745605469e-5
ell 1201, elapsed: 0.008823156356811523
ell 1200, elapsed: 0.008894920349121094
ell 1199, elapsed: 0.00020694732666015625
ell 1198, elapsed: 0.0001971721649169922
ell 1197, elapsed: 0.0002551078796386719
ell 1196, elapsed: 0.0002219676971435547
ell 1195, elapsed: 0.00022101402282714844
ell 1194, elapsed: 0.00021910667419433594
ell 1193, elapsed: 0.0002238750457763672
ell 1192, elapsed: 0.00022101402282714844
ell 1191, elapsed: 0.00021910667419433594
ell 1190, elapsed: 0.0002200603485107422
ell 1189, elapsed: 0.0002181529998779297
ell 1188, elapsed: 0.00021886825561523438
ell 1187, elapsed: 0.0002608299255371094
ell 1186, elapsed: 0.0002701282501220703
ell 1185, elapsed: 0.00024700164794921875
ell 1184, elapsed: 0.0002560615539550781
ell 1183, elapsed: 0.00025200843811035156
ell 1182, elapsed: 0.00024700164794921875
ell 1181, elapsed: 0.00026106834411621094
ell 1180, elapsed: 0.00025200843811035156
ell 1179, elapsed: 0.0002579689025878906
ell 1178, elapsed: 0.0002510547637939453
ell 1177, elapsed: 0.00025391578674316406
ell 1176, elapsed: 0.00027298927307128906
ell 1175, elapsed: 0.0002541542053222656
ell 1174, elapsed: 0.0002620220184326172
ell 1173, elapsed: 0.0002529621124267578
ell 1172, elapsed: 0.0003228187561035156
ell 1171, elapsed: 0.00031304359436035156
ell 1170, elapsed: 0.0004680156707763672
ell 1169, elapsed: 0.00025916099548339844
ell 1168, elapsed: 0.0002529621124267578
ell 1167, elapsed: 0.0003211498260498047
ell 1166, elapsed: 0.00031113624572753906
ell 1165, elapsed: 0.0005080699920654297
ell 1164, elapsed: 0.0003330707550048828
ell 1163, elapsed: 0.00032782554626464844
ell 1162, elapsed: 0.0003070831298828125
ell 1161, elapsed: 0.0003108978271484375
ell 1160, elapsed: 0.0003108978271484375
ell 1159, elapsed: 0.000308990478515625
ell 1158, elapsed: 0.00034880638122558594
ell 1157, elapsed: 0.0002620220184326172
ell 1156, elapsed: 0.0004649162292480469
ell 1155, elapsed: 0.00027108192443847656
ell 1154, elapsed: 0.00028586387634277344
ell 1153, elapsed: 0.00026702880859375
ell 1152, elapsed: 0.0002970695495605469
ell 1151, elapsed: 0.0002620220184326172
ell 1150, elapsed: 0.0002608299255371094
ell 1149, elapsed: 0.00027298927307128906
ell 1148, elapsed: 0.00026798248291015625
ell 1147, elapsed: 0.00027298927307128906
ell 1146, elapsed: 0.0002770423889160156
ell 1145, elapsed: 0.0002720355987548828
ell 1144, elapsed: 0.0002789497375488281
ell 1143, elapsed: 0.0002751350402832031
ell 1142, elapsed: 0.00027680397033691406
ell 1141, elapsed: 0.00027298927307128906
ell 1140, elapsed: 0.0003008842468261719
ell 1139, elapsed: 0.0003440380096435547
ell 1138, elapsed: 0.0002799034118652344
ell 1137, elapsed: 0.0002880096435546875
ell 1136, elapsed: 0.0002701282501220703
ell 1135, elapsed: 0.0002779960632324219
ell 1134, elapsed: 0.0003211498260498047
ell 1133, elapsed: 0.00029206275939941406
ell 1132, elapsed: 0.0002830028533935547
ell 1131, elapsed: 0.0002620220184326172
ell 1130, elapsed: 0.00023317337036132812
ell 1129, elapsed: 0.00023603439331054688
ell 1128, elapsed: 0.00023102760314941406
ell 1127, elapsed: 0.00023603439331054688
ell 1126, elapsed: 0.00023698806762695312
ell 1125, elapsed: 0.00023221969604492188
ell 1124, elapsed: 0.0003190040588378906
ell 1123, elapsed: 0.00023794174194335938
ell 1122, elapsed: 0.00024199485778808594
ell 1121, elapsed: 0.0002918243408203125
ell 1120, elapsed: 0.0002899169921875
ell 1119, elapsed: 0.0003008842468261719
ell 1118, elapsed: 0.0002789497375488281
ell 1117, elapsed: 0.00028586387634277344
ell 1116, elapsed: 0.0002791881561279297
ell 1115, elapsed: 0.0002779960632324219
ell 1114, elapsed: 0.00029397010803222656
ell 1113, elapsed: 0.0002799034118652344
ell 1112, elapsed: 0.0002810955047607422
ell 1111, elapsed: 0.0003769397735595703
ell 1110, elapsed: 0.0002760887145996094
ell 1109, elapsed: 0.0002808570861816406
ell 1108, elapsed: 0.00027108192443847656
ell 1107, elapsed: 0.0002799034118652344
ell 1106, elapsed: 0.00028896331787109375
ell 1105, elapsed: 0.00027298927307128906
ell 1104, elapsed: 0.0002930164337158203
ell 1103, elapsed: 0.0002751350402832031
ell 1102, elapsed: 0.00028204917907714844
ell 1101, elapsed: 0.0002720355987548828
ell 1100, elapsed: 0.00026988983154296875
ell 1099, elapsed: 0.00028204917907714844
ell 1098, elapsed: 0.00034999847412109375
ell 1097, elapsed: 0.00028586387634277344
ell 1096, elapsed: 0.00027298927307128906
ell 1095, elapsed: 0.0002789497375488281
ell 1094, elapsed: 0.00027108192443847656
ell 1093, elapsed: 0.0002741813659667969
ell 1092, elapsed: 0.00028395652770996094
ell 1091, elapsed: 0.0002701282501220703
ell 1090, elapsed: 0.0002739429473876953
ell 1089, elapsed: 0.0002789497375488281
ell 1088, elapsed: 0.00027298927307128906
ell 1087, elapsed: 0.0002868175506591797
ell 1086, elapsed: 0.0003180503845214844
ell 1085, elapsed: 0.0003020763397216797
ell 1084, elapsed: 0.00028014183044433594
ell 1083, elapsed: 0.0002751350402832031
ell 1082, elapsed: 0.0002830028533935547
ell 1081, elapsed: 0.0002741813659667969
ell 1080, elapsed: 0.0002880096435546875
ell 1079, elapsed: 0.0002999305725097656
ell 1078, elapsed: 0.00028014183044433594
ell 1077, elapsed: 0.00028204917907714844
ell 1076, elapsed: 0.0002770423889160156
ell 1075, elapsed: 0.0002818107604980469
ell 1074, elapsed: 0.00027489662170410156
ell 1073, elapsed: 0.0002720355987548828
ell 1072, elapsed: 0.0002770423889160156
ell 1071, elapsed: 0.0002989768981933594
ell 1070, elapsed: 0.0002779960632324219
ell 1069, elapsed: 0.0002751350402832031
ell 1068, elapsed: 0.0002720355987548828
ell 1067, elapsed: 0.0002799034118652344
ell 1066, elapsed: 0.0002751350402832031
ell 1065, elapsed: 0.00027298927307128906
ell 1064, elapsed: 0.00023293495178222656
ell 1063, elapsed: 0.00022602081298828125
ell 1062, elapsed: 0.0002300739288330078
ell 1061, elapsed: 0.00022482872009277344
ell 1060, elapsed: 0.00023698806762695312
ell 1059, elapsed: 0.00022792816162109375
ell 1058, elapsed: 0.00022792816162109375
ell 1057, elapsed: 0.00023317337036132812
ell 1056, elapsed: 0.0002751350402832031
ell 1055, elapsed: 0.0002338886260986328
ell 1054, elapsed: 0.000225067138671875
ell 1053, elapsed: 0.0002288818359375
ell 1052, elapsed: 0.00023102760314941406
ell 1051, elapsed: 0.00022792816162109375
ell 1050, elapsed: 0.0002319812774658203
ell 1049, elapsed: 0.00022602081298828125
ell 1048, elapsed: 0.0002269744873046875
ell 1047, elapsed: 0.00023221969604492188
ell 1046, elapsed: 0.0002257823944091797
ell 1045, elapsed: 0.00023698806762695312
ell 1044, elapsed: 0.00022602081298828125
ell 1043, elapsed: 0.00023102760314941406
ell 1042, elapsed: 0.00022602081298828125
ell 1041, elapsed: 0.0002281665802001953
ell 1040, elapsed: 0.0003287792205810547
ell 1039, elapsed: 0.00022912025451660156
ell 1038, elapsed: 0.00023102760314941406
ell 1037, elapsed: 0.00022602081298828125
ell 1036, elapsed: 0.00022411346435546875
ell 1035, elapsed: 0.00023102760314941406
ell 1034, elapsed: 0.00022292137145996094
ell 1033, elapsed: 0.00023293495178222656
ell 1032, elapsed: 0.000225067138671875
ell 1031, elapsed: 0.00022602081298828125
ell 1030, elapsed: 0.00022983551025390625
ell 1029, elapsed: 0.0002319812774658203
ell 1028, elapsed: 0.0002300739288330078
ell 1027, elapsed: 0.00022602081298828125
ell 1026, elapsed: 0.0002238750457763672
ell 1025, elapsed: 0.0002319812774658203
ell 1024, elapsed: 0.00022602081298828125
ell 1023, elapsed: 0.00025010108947753906
ell 1022, elapsed: 0.00022482872009277344
ell 1021, elapsed: 0.00022411346435546875
ell 1020, elapsed: 0.0002357959747314453
ell 1019, elapsed: 0.00022292137145996094
ell 1018, elapsed: 0.0002269744873046875
ell 1017, elapsed: 0.0002238750457763672
ell 1016, elapsed: 0.00022792816162109375
ell 1015, elapsed: 0.0002288818359375
ell 1014, elapsed: 0.000225067138671875
ell 1013, elapsed: 0.0002300739288330078
ell 1012, elapsed: 0.0002269744873046875
ell 1011, elapsed: 0.0002269744873046875
ell 1010, elapsed: 0.00023102760314941406
ell 1009, elapsed: 0.00022292137145996094
ell 1008, elapsed: 0.00023102760314941406
ell 1007, elapsed: 0.000225067138671875
ell 1006, elapsed: 0.00023794174194335938
ell 1005, elapsed: 0.00022792816162109375
ell 1004, elapsed: 0.00022292137145996094
ell 1003, elapsed: 0.0002300739288330078
ell 1002, elapsed: 0.000225067138671875
ell 1001, elapsed: 0.0002238750457763672
ell 1000, elapsed: 0.0002300739288330078
ell 999, elapsed: 0.00022411346435546875
ell 998, elapsed: 0.0002257823944091797
ell 997, elapsed: 0.0002231597900390625
ell 996, elapsed: 0.00022101402282714844
ell 995, elapsed: 0.0002372264862060547
ell 994, elapsed: 0.00022101402282714844
ell 993, elapsed: 0.00022912025451660156
ell 992, elapsed: 0.00022411346435546875
ell 991, elapsed: 0.00022912025451660156
ell 990, elapsed: 0.0002560615539550781
ell 989, elapsed: 0.000225067138671875
ell 988, elapsed: 0.00023221969604492188
ell 987, elapsed: 0.00023412704467773438
ell 986, elapsed: 0.0002288818359375
ell 985, elapsed: 0.00022411346435546875
ell 984, elapsed: 0.00022292137145996094
ell 983, elapsed: 0.0002300739288330078
ell 982, elapsed: 0.00022220611572265625
ell 981, elapsed: 0.0002269744873046875
ell 980, elapsed: 0.00022101402282714844
ell 979, elapsed: 0.00022292137145996094
ell 978, elapsed: 0.0002300739288330078
ell 977, elapsed: 0.0002269744873046875
ell 976, elapsed: 0.00022792816162109375
ell 975, elapsed: 0.0002219676971435547
ell 974, elapsed: 0.00022983551025390625
ell 973, elapsed: 0.00025200843811035156
ell 972, elapsed: 0.0002231597900390625
ell 971, elapsed: 0.00022983551025390625
ell 970, elapsed: 0.0002319812774658203
ell 969, elapsed: 0.0002269744873046875
ell 968, elapsed: 0.0002319812774658203
ell 967, elapsed: 0.0002288818359375
ell 966, elapsed: 0.00023818016052246094
ell 965, elapsed: 0.0002238750457763672
ell 964, elapsed: 0.0002238750457763672
ell 963, elapsed: 0.0002281665802001953
ell 962, elapsed: 0.00022602081298828125
ell 961, elapsed: 0.0002288818359375
ell 960, elapsed: 0.0002269744873046875
ell 959, elapsed: 0.00022411346435546875
ell 958, elapsed: 0.00022983551025390625
ell 957, elapsed: 0.000225067138671875
ell 956, elapsed: 0.00026607513427734375
ell 955, elapsed: 0.00022292137145996094
ell 954, elapsed: 0.0002300739288330078
ell 953, elapsed: 0.0002269744873046875
ell 952, elapsed: 0.0002238750457763672
ell 951, elapsed: 0.00023102760314941406
ell 950, elapsed: 0.00022292137145996094
ell 949, elapsed: 0.0002219676971435547
ell 948, elapsed: 0.00022912025451660156
ell 947, elapsed: 0.0002238750457763672
ell 946, elapsed: 0.00023317337036132812
ell 945, elapsed: 0.00022983551025390625
ell 944, elapsed: 0.0002300739288330078
ell 943, elapsed: 0.00022602081298828125
ell 942, elapsed: 0.000225067138671875
ell 941, elapsed: 0.00023794174194335938
ell 940, elapsed: 0.00022482872009277344
ell 939, elapsed: 0.0002701282501220703
ell 938, elapsed: 0.0002338886260986328
ell 937, elapsed: 0.00023102760314941406
ell 936, elapsed: 0.00023412704467773438
ell 935, elapsed: 0.00022983551025390625
ell 934, elapsed: 0.00023317337036132812
ell 933, elapsed: 0.0002288818359375
ell 932, elapsed: 0.0002269744873046875
ell 931, elapsed: 0.0002319812774658203
ell 930, elapsed: 0.00023102760314941406
ell 929, elapsed: 0.00023508071899414062
ell 928, elapsed: 0.00022602081298828125
ell 927, elapsed: 0.0002410411834716797
ell 926, elapsed: 0.00023102760314941406
ell 925, elapsed: 0.00023102760314941406
ell 924, elapsed: 0.0002319812774658203
ell 923, elapsed: 0.00028586387634277344
ell 922, elapsed: 0.00022602081298828125
ell 921, elapsed: 0.00023102760314941406
ell 920, elapsed: 0.0002219676971435547
ell 919, elapsed: 0.0002288818359375
ell 918, elapsed: 0.00022411346435546875
ell 917, elapsed: 0.00022292137145996094
ell 916, elapsed: 0.0002391338348388672
ell 915, elapsed: 0.00022602081298828125
ell 914, elapsed: 0.0002319812774658203
ell 913, elapsed: 0.00022912025451660156
ell 912, elapsed: 0.00022482872009277344
ell 911, elapsed: 0.00023102760314941406
ell 910, elapsed: 0.000225067138671875
ell 909, elapsed: 0.00023293495178222656
ell 908, elapsed: 0.000225067138671875
ell 907, elapsed: 0.000247955322265625
ell 906, elapsed: 0.0002319812774658203
ell 905, elapsed: 0.0002269744873046875
ell 904, elapsed: 0.00022912025451660156
ell 903, elapsed: 0.0002269744873046875
ell 902, elapsed: 0.00022792816162109375
ell 901, elapsed: 0.00023293495178222656
ell 900, elapsed: 0.0002269744873046875
ell 899, elapsed: 0.0002281665802001953
ell 898, elapsed: 0.00022292137145996094
ell 897, elapsed: 0.00022292137145996094
ell 896, elapsed: 0.00023102760314941406
ell 895, elapsed: 0.0002319812774658203
ell 894, elapsed: 0.0002300739288330078
ell 893, elapsed: 0.00022602081298828125
ell 892, elapsed: 0.00022602081298828125
ell 891, elapsed: 0.00023508071899414062
ell 890, elapsed: 0.00026798248291015625
ell 889, elapsed: 0.00022792816162109375
ell 888, elapsed: 0.00022411346435546875
ell 887, elapsed: 0.0002231597900390625
ell 886, elapsed: 0.00023102760314941406
ell 885, elapsed: 0.0002238750457763672
ell 884, elapsed: 0.00022912025451660156
ell 883, elapsed: 0.00022292137145996094
ell 882, elapsed: 0.00023603439331054688
ell 881, elapsed: 0.00022411346435546875
ell 880, elapsed: 0.000225067138671875
ell 879, elapsed: 0.0002288818359375
ell 878, elapsed: 0.00022411346435546875
ell 877, elapsed: 0.0002319812774658203
ell 876, elapsed: 0.0002288818359375
ell 875, elapsed: 0.00022602081298828125
ell 874, elapsed: 0.0002281665802001953
ell 873, elapsed: 0.0002410411834716797
ell 872, elapsed: 0.0002269744873046875
ell 871, elapsed: 0.0002219676971435547
ell 870, elapsed: 0.00022292137145996094
ell 869, elapsed: 0.00022792816162109375
ell 868, elapsed: 0.00022101402282714844
ell 867, elapsed: 0.00022912025451660156
ell 866, elapsed: 0.00022101402282714844
ell 865, elapsed: 0.0002238750457763672
ell 864, elapsed: 0.0002269744873046875
ell 863, elapsed: 0.0002231597900390625
ell 862, elapsed: 0.00022602081298828125
ell 861, elapsed: 0.00022292137145996094
ell 860, elapsed: 0.0002219676971435547
ell 859, elapsed: 0.00022912025451660156
ell 858, elapsed: 0.00022101402282714844
ell 857, elapsed: 0.0002300739288330078
ell 856, elapsed: 0.000244140625
ell 855, elapsed: 0.00022292137145996094
ell 854, elapsed: 0.0002269744873046875
ell 853, elapsed: 0.0002219676971435547
ell 852, elapsed: 0.00022792816162109375
ell 851, elapsed: 0.0002219676971435547
ell 850, elapsed: 0.0002219676971435547
ell 849, elapsed: 0.00023102760314941406
ell 848, elapsed: 0.0002219676971435547
ell 847, elapsed: 0.0002269744873046875
ell 846, elapsed: 0.00021982192993164062
ell 845, elapsed: 0.0002200603485107422
ell 844, elapsed: 0.0002269744873046875
ell 843, elapsed: 0.0002200603485107422
ell 842, elapsed: 0.00022602081298828125
ell 841, elapsed: 0.00022292137145996094
ell 840, elapsed: 0.00022411346435546875
ell 839, elapsed: 0.00026488304138183594
ell 838, elapsed: 0.0002200603485107422
ell 837, elapsed: 0.00023102760314941406
ell 836, elapsed: 0.00021886825561523438
ell 835, elapsed: 0.00021886825561523438
ell 834, elapsed: 0.0002269744873046875
ell 833, elapsed: 0.0002200603485107422
ell 832, elapsed: 0.00023603439331054688
ell 831, elapsed: 0.00022292137145996094
ell 830, elapsed: 0.0002269744873046875
ell 829, elapsed: 0.0002219676971435547
ell 828, elapsed: 0.00022292137145996094
ell 827, elapsed: 0.00022792816162109375
ell 826, elapsed: 0.00022101402282714844
ell 825, elapsed: 0.0002269744873046875
ell 824, elapsed: 0.0002231597900390625
ell 823, elapsed: 0.00022101402282714844
ell 822, elapsed: 0.0002491474151611328
ell 821, elapsed: 0.0002410411834716797
ell 820, elapsed: 0.00022602081298828125
ell 819, elapsed: 0.0002269744873046875
ell 818, elapsed: 0.00022220611572265625
ell 817, elapsed: 0.00022602081298828125
ell 816, elapsed: 0.00022411346435546875
ell 815, elapsed: 0.00023603439331054688
ell 814, elapsed: 0.00022482872009277344
ell 813, elapsed: 0.0002231597900390625
ell 812, elapsed: 0.00022792816162109375
ell 811, elapsed: 0.00022292137145996094
ell 810, elapsed: 0.0002281665802001953
ell 809, elapsed: 0.00022411346435546875
ell 808, elapsed: 0.0002238750457763672
ell 807, elapsed: 0.0002281665802001953
ell 806, elapsed: 0.00026607513427734375
ell 805, elapsed: 0.0002808570861816406
ell 804, elapsed: 0.0002620220184326172
ell 803, elapsed: 0.0002560615539550781
ell 802, elapsed: 0.0002589225769042969
ell 801, elapsed: 0.00025582313537597656
ell 800, elapsed: 0.0002620220184326172
ell 799, elapsed: 0.0002560615539550781
ell 798, elapsed: 0.00025200843811035156
ell 797, elapsed: 0.0002601146697998047
ell 796, elapsed: 0.0002601146697998047
ell 795, elapsed: 0.0003018379211425781
ell 794, elapsed: 0.00034999847412109375
ell 793, elapsed: 0.00035309791564941406
ell 792, elapsed: 0.000370025634765625
ell 791, elapsed: 0.0003440380096435547
ell 790, elapsed: 0.0003509521484375
ell 789, elapsed: 0.0003390312194824219
ell 788, elapsed: 0.0003490447998046875
ell 787, elapsed: 0.00035309791564941406
ell 786, elapsed: 0.00034308433532714844
ell 785, elapsed: 0.0003528594970703125
ell 784, elapsed: 0.0003490447998046875
ell 783, elapsed: 0.00035309791564941406
ell 782, elapsed: 0.00036406517028808594
ell 781, elapsed: 0.0003528594970703125
ell 780, elapsed: 0.00034999847412109375
ell 779, elapsed: 0.0003428459167480469
ell 778, elapsed: 0.0003571510314941406
ell 777, elapsed: 0.00035500526428222656
ell 776, elapsed: 0.00033593177795410156
ell 775, elapsed: 0.000331878662109375
ell 774, elapsed: 0.00032210350036621094
ell 773, elapsed: 0.0003368854522705078
ell 772, elapsed: 0.0004050731658935547
ell 771, elapsed: 0.00032782554626464844
ell 770, elapsed: 0.0003330707550048828
ell 769, elapsed: 0.00032806396484375
ell 768, elapsed: 0.0003380775451660156
ell 767, elapsed: 0.0003249645233154297
ell 766, elapsed: 0.0003230571746826172
ell 765, elapsed: 0.0003478527069091797
ell 764, elapsed: 0.00032711029052734375
ell 763, elapsed: 0.0003349781036376953
ell 762, elapsed: 0.0003349781036376953
ell 761, elapsed: 0.0003421306610107422
ell 760, elapsed: 0.0003361701965332031
ell 759, elapsed: 0.0003380775451660156
ell 758, elapsed: 0.0003409385681152344
ell 757, elapsed: 0.0003521442413330078
ell 756, elapsed: 0.0003349781036376953
ell 755, elapsed: 0.0003440380096435547
ell 754, elapsed: 0.0003349781036376953
ell 753, elapsed: 0.00034499168395996094
ell 752, elapsed: 0.0003440380096435547
ell 751, elapsed: 0.00037598609924316406
ell 750, elapsed: 0.0003428459167480469
ell 749, elapsed: 0.0003440380096435547
ell 748, elapsed: 0.0003459453582763672
ell 747, elapsed: 0.0003399848937988281
ell 746, elapsed: 0.0003361701965332031
ell 745, elapsed: 0.0003440380096435547
ell 744, elapsed: 0.0003390312194824219
ell 743, elapsed: 0.000347137451171875
ell 742, elapsed: 0.0003409385681152344
ell 741, elapsed: 0.0003559589385986328
ell 740, elapsed: 0.00034809112548828125
ell 739, elapsed: 0.00034308433532714844
ell 738, elapsed: 0.0003490447998046875
ell 737, elapsed: 0.000347137451171875
ell 736, elapsed: 0.0003590583801269531
ell 735, elapsed: 0.0003459453582763672
ell 734, elapsed: 0.0003428459167480469
ell 733, elapsed: 0.0003521442413330078
ell 732, elapsed: 0.0003418922424316406
ell 731, elapsed: 0.00038909912109375
ell 730, elapsed: 0.0003390312194824219
ell 729, elapsed: 0.0003459453582763672
ell 728, elapsed: 0.00035119056701660156
ell 727, elapsed: 0.0003399848937988281
ell 726, elapsed: 0.00034308433532714844
ell 725, elapsed: 0.00033211708068847656
ell 724, elapsed: 0.00033402442932128906
ell 723, elapsed: 0.0003459453582763672
ell 722, elapsed: 0.0003387928009033203
ell 721, elapsed: 0.0003418922424316406
ell 720, elapsed: 0.0003769397735595703
ell 719, elapsed: 0.00029206275939941406
ell 718, elapsed: 0.00028204917907714844
ell 717, elapsed: 0.0002789497375488281
ell 716, elapsed: 0.0002808570861816406
ell 715, elapsed: 0.0002810955047607422
ell 714, elapsed: 0.0002758502960205078
ell 713, elapsed: 0.0002810955047607422
ell 712, elapsed: 0.0002760887145996094
ell 711, elapsed: 0.0002841949462890625
ell 710, elapsed: 0.0002741813659667969
ell 709, elapsed: 0.0002830028533935547
ell 708, elapsed: 0.0002791881561279297
ell 707, elapsed: 0.0003001689910888672
ell 706, elapsed: 0.00029087066650390625
ell 705, elapsed: 0.0002751350402832031
ell 704, elapsed: 0.0002830028533935547
ell 703, elapsed: 0.0002758502960205078
ell 702, elapsed: 0.00028014183044433594
ell 701, elapsed: 0.00028514862060546875
ell 700, elapsed: 0.0002589225769042969
ell 699, elapsed: 0.00023603439331054688
ell 698, elapsed: 0.0002319812774658203
ell 697, elapsed: 0.0002319812774658203
ell 696, elapsed: 0.00023603439331054688
ell 695, elapsed: 0.00023412704467773438
ell 694, elapsed: 0.0002448558807373047
ell 693, elapsed: 0.0002608299255371094
ell 692, elapsed: 0.0002357959747314453
ell 691, elapsed: 0.00024199485778808594
ell 690, elapsed: 0.00023412704467773438
ell 689, elapsed: 0.00023889541625976562
ell 688, elapsed: 0.00023484230041503906
ell 687, elapsed: 0.0002338886260986328
ell 686, elapsed: 0.00024509429931640625
ell 685, elapsed: 0.0002338886260986328
ell 684, elapsed: 0.00024199485778808594
ell 683, elapsed: 0.00023293495178222656
ell 682, elapsed: 0.0002357959747314453
ell 681, elapsed: 0.00023984909057617188
ell 680, elapsed: 0.00023102760314941406
ell 679, elapsed: 0.00024008750915527344
ell 678, elapsed: 0.00023293495178222656
ell 677, elapsed: 0.00023698806762695312
ell 676, elapsed: 0.00023603439331054688
ell 675, elapsed: 0.00023603439331054688
ell 674, elapsed: 0.00023889541625976562
ell 673, elapsed: 0.00023221969604492188
ell 672, elapsed: 0.0002391338348388672
ell 671, elapsed: 0.00023508071899414062
ell 670, elapsed: 0.00023221969604492188
ell 669, elapsed: 0.00023984909057617188
ell 668, elapsed: 0.0002739429473876953
ell 667, elapsed: 0.00024390220642089844
ell 666, elapsed: 0.00024008750915527344
ell 665, elapsed: 0.00023102760314941406
ell 664, elapsed: 0.00024008750915527344
ell 663, elapsed: 0.00023412704467773438
ell 662, elapsed: 0.00023889541625976562
ell 661, elapsed: 0.0002541542053222656
ell 660, elapsed: 0.0002319812774658203
ell 659, elapsed: 0.00023794174194335938
ell 658, elapsed: 0.00023102760314941406
ell 657, elapsed: 0.00024008750915527344
ell 656, elapsed: 0.00023293495178222656
ell 655, elapsed: 0.0002338886260986328
ell 654, elapsed: 0.0002429485321044922
ell 653, elapsed: 0.00023508071899414062
ell 652, elapsed: 0.00023508071899414062
ell 651, elapsed: 0.00024700164794921875
ell 650, elapsed: 0.00023889541625976562
ell 649, elapsed: 0.00024199485778808594
ell 648, elapsed: 0.00023508071899414062
ell 647, elapsed: 0.00023889541625976562
ell 646, elapsed: 0.00023698806762695312
ell 645, elapsed: 0.00026488304138183594
ell 644, elapsed: 0.00023484230041503906
ell 643, elapsed: 0.00023293495178222656
ell 642, elapsed: 0.00024700164794921875
ell 641, elapsed: 0.00023484230041503906
ell 640, elapsed: 0.00024080276489257812
ell 639, elapsed: 0.00023293495178222656
ell 638, elapsed: 0.00023603439331054688
ell 637, elapsed: 0.00023794174194335938
ell 636, elapsed: 0.00023317337036132812
ell 635, elapsed: 0.00023603439331054688
ell 634, elapsed: 0.00023412704467773438
ell 633, elapsed: 0.00023293495178222656
ell 632, elapsed: 0.00023818016052246094
ell 631, elapsed: 0.00023293495178222656
ell 630, elapsed: 0.0002391338348388672
ell 629, elapsed: 0.00022983551025390625
ell 628, elapsed: 0.00023603439331054688
ell 627, elapsed: 0.00023984909057617188
ell 626, elapsed: 0.00023818016052246094
ell 625, elapsed: 0.00023698806762695312
ell 624, elapsed: 0.0002338886260986328
ell 623, elapsed: 0.0002319812774658203
ell 622, elapsed: 0.00023794174194335938
ell 621, elapsed: 0.0002319812774658203
ell 620, elapsed: 0.0002391338348388672
ell 619, elapsed: 0.00023102760314941406
ell 618, elapsed: 0.00023794174194335938
ell 617, elapsed: 0.0002319812774658203
ell 616, elapsed: 0.00023293495178222656
ell 615, elapsed: 0.00023603439331054688
ell 614, elapsed: 0.00023889541625976562
ell 613, elapsed: 0.00023794174194335938
ell 612, elapsed: 0.000247955322265625
ell 611, elapsed: 0.00023508071899414062
ell 610, elapsed: 0.00024199485778808594
ell 609, elapsed: 0.0002319812774658203
ell 608, elapsed: 0.00023698806762695312
ell 607, elapsed: 0.0002319812774658203
ell 606, elapsed: 0.00023508071899414062
ell 605, elapsed: 0.00023603439331054688
ell 604, elapsed: 0.0002300739288330078
ell 603, elapsed: 0.00023794174194335938
ell 602, elapsed: 0.00023603439331054688
ell 601, elapsed: 0.00023102760314941406
ell 600, elapsed: 0.00023603439331054688
ell 599, elapsed: 0.0002300739288330078
ell 598, elapsed: 0.00023603439331054688
ell 597, elapsed: 0.0002300739288330078
ell 596, elapsed: 0.0002601146697998047
ell 595, elapsed: 0.00023698806762695312
ell 594, elapsed: 0.0002570152282714844
ell 593, elapsed: 0.00023698806762695312
ell 592, elapsed: 0.00022912025451660156
ell 591, elapsed: 0.00022983551025390625
ell 590, elapsed: 0.00024008750915527344
ell 589, elapsed: 0.0002319812774658203
ell 588, elapsed: 0.00023794174194335938
ell 587, elapsed: 0.00023102760314941406
ell 586, elapsed: 0.00023818016052246094
ell 585, elapsed: 0.0002307891845703125
ell 584, elapsed: 0.0002281665802001953
ell 583, elapsed: 0.00023698806762695312
ell 582, elapsed: 0.00022792816162109375
ell 581, elapsed: 0.00023317337036132812
ell 580, elapsed: 0.00023889541625976562
ell 579, elapsed: 0.0002238750457763672
ell 578, elapsed: 0.00023794174194335938
ell 577, elapsed: 0.0002300739288330078
ell 576, elapsed: 0.00022983551025390625
ell 575, elapsed: 0.00022411346435546875
ell 574, elapsed: 0.00022602081298828125
ell 573, elapsed: 0.0002300739288330078
ell 572, elapsed: 0.00022482872009277344
ell 571, elapsed: 0.0002281665802001953
ell 570, elapsed: 0.00022482872009277344
ell 569, elapsed: 0.00023102760314941406
ell 568, elapsed: 0.00023698806762695312
ell 567, elapsed: 0.0002319812774658203
ell 566, elapsed: 0.00023698806762695312
ell 565, elapsed: 0.0002319812774658203
ell 564, elapsed: 0.0002319812774658203
ell 563, elapsed: 0.0002460479736328125
ell 562, elapsed: 0.0002231597900390625
ell 561, elapsed: 0.00022792816162109375
ell 560, elapsed: 0.00022482872009277344
ell 559, elapsed: 0.00022292137145996094
ell 558, elapsed: 0.00022792816162109375
ell 557, elapsed: 0.00022292137145996094
ell 556, elapsed: 0.00023102760314941406
ell 555, elapsed: 0.00022411346435546875
ell 554, elapsed: 0.00022912025451660156
ell 553, elapsed: 0.00022482872009277344
ell 552, elapsed: 0.00022411346435546875
ell 551, elapsed: 0.0002300739288330078
ell 550, elapsed: 0.0002238750457763672
ell 549, elapsed: 0.0002281665802001953
ell 548, elapsed: 0.00022792816162109375
ell 547, elapsed: 0.00028395652770996094
ell 546, elapsed: 0.0002281665802001953
ell 545, elapsed: 0.00022602081298828125
ell 544, elapsed: 0.00023293495178222656
ell 543, elapsed: 0.0002219676971435547
ell 542, elapsed: 0.00022292137145996094
ell 541, elapsed: 0.00022792816162109375
ell 540, elapsed: 0.00022292137145996094
ell 539, elapsed: 0.00022602081298828125
ell 538, elapsed: 0.00022101402282714844
ell 537, elapsed: 0.0002231597900390625
ell 536, elapsed: 0.00022983551025390625
ell 535, elapsed: 0.0002219676971435547
ell 534, elapsed: 0.0002269744873046875
ell 533, elapsed: 0.00022292137145996094
ell 532, elapsed: 0.0002219676971435547
ell 531, elapsed: 0.00022912025451660156
ell 530, elapsed: 0.00023984909057617188
ell 529, elapsed: 0.00022602081298828125
ell 528, elapsed: 0.00021910667419433594
ell 527, elapsed: 0.000225067138671875
ell 526, elapsed: 0.00021886825561523438
ell 525, elapsed: 0.00022101402282714844
ell 524, elapsed: 0.0002238750457763672
ell 523, elapsed: 0.0002200603485107422
ell 522, elapsed: 0.00022482872009277344
ell 521, elapsed: 0.0002181529998779297
ell 520, elapsed: 0.00021982192993164062
ell 519, elapsed: 0.0002231597900390625
ell 518, elapsed: 0.00021982192993164062
ell 517, elapsed: 0.0002281665802001953
ell 516, elapsed: 0.0002200603485107422
ell 515, elapsed: 0.0002200603485107422
ell 514, elapsed: 0.0002269744873046875
ell 513, elapsed: 0.000244140625
ell 512, elapsed: 0.0002269744873046875
ell 511, elapsed: 0.00021886825561523438
ell 510, elapsed: 0.00022220611572265625
ell 509, elapsed: 0.000225067138671875
ell 508, elapsed: 0.00022101402282714844
ell 507, elapsed: 0.000225067138671875
ell 506, elapsed: 0.0002200603485107422
ell 505, elapsed: 0.00022101402282714844
ell 504, elapsed: 0.00022792816162109375
ell 503, elapsed: 0.0002200603485107422
ell 502, elapsed: 0.0002238750457763672
ell 501, elapsed: 0.00021886825561523438
ell 500, elapsed: 0.0002269744873046875
ell 499, elapsed: 0.00021910667419433594
ell 498, elapsed: 0.00021982192993164062
ell 497, elapsed: 0.0002319812774658203
ell 496, elapsed: 0.00023412704467773438
ell 495, elapsed: 0.00022602081298828125
ell 494, elapsed: 0.0002200603485107422
ell 493, elapsed: 0.000225067138671875
ell 492, elapsed: 0.0002288818359375
ell 491, elapsed: 0.000225067138671875
ell 490, elapsed: 0.00023102760314941406
ell 489, elapsed: 0.00022292137145996094
ell 488, elapsed: 0.000225067138671875
ell 487, elapsed: 0.0002269744873046875
ell 486, elapsed: 0.0002200603485107422
ell 485, elapsed: 0.00022411346435546875
ell 484, elapsed: 0.0002300739288330078
ell 483, elapsed: 0.00022101402282714844
ell 482, elapsed: 0.0002269744873046875
ell 481, elapsed: 0.00022292137145996094
ell 480, elapsed: 0.00022792816162109375
ell 479, elapsed: 0.000247955322265625
ell 478, elapsed: 0.00021886825561523438
ell 477, elapsed: 0.000225067138671875
ell 476, elapsed: 0.00021982192993164062
ell 475, elapsed: 0.0002269744873046875
ell 474, elapsed: 0.00021982192993164062
ell 473, elapsed: 0.00021910667419433594
ell 472, elapsed: 0.00022792816162109375
ell 471, elapsed: 0.0002231597900390625
ell 470, elapsed: 0.00022482872009277344
ell 469, elapsed: 0.00022077560424804688
ell 468, elapsed: 0.000225067138671875
ell 467, elapsed: 0.00022220611572265625
ell 466, elapsed: 0.00021982192993164062
ell 465, elapsed: 0.0002269744873046875
ell 464, elapsed: 0.0002200603485107422
ell 463, elapsed: 0.00023293495178222656
ell 462, elapsed: 0.00026798248291015625
ell 461, elapsed: 0.0002238750457763672
ell 460, elapsed: 0.00022602081298828125
ell 459, elapsed: 0.0002219676971435547
ell 458, elapsed: 0.00022411346435546875
ell 457, elapsed: 0.00022101402282714844
ell 456, elapsed: 0.0002219676971435547
ell 455, elapsed: 0.00022602081298828125
ell 454, elapsed: 0.0003979206085205078
ell 453, elapsed: 0.0002238750457763672
ell 452, elapsed: 0.00022101402282714844
ell 451, elapsed: 0.00022101402282714844
ell 450, elapsed: 0.0002257823944091797
ell 449, elapsed: 0.00022101402282714844
ell 448, elapsed: 0.00022912025451660156
ell 447, elapsed: 0.0002338886260986328
ell 446, elapsed: 0.0005729198455810547
ell 445, elapsed: 0.00037288665771484375
ell 444, elapsed: 0.0005090236663818359
ell 443, elapsed: 0.000331878662109375
ell 442, elapsed: 0.00033092498779296875
ell 441, elapsed: 0.0003299713134765625
ell 440, elapsed: 0.00036716461181640625
ell 439, elapsed: 0.0003349781036376953
ell 438, elapsed: 0.00034689903259277344
ell 437, elapsed: 0.0003509521484375
ell 436, elapsed: 0.00034499168395996094
ell 435, elapsed: 0.0003409385681152344
ell 434, elapsed: 0.0003409385681152344
ell 433, elapsed: 0.00035190582275390625
ell 432, elapsed: 0.0003561973571777344
ell 431, elapsed: 0.000347137451171875
ell 430, elapsed: 0.0003829002380371094
ell 429, elapsed: 0.0003459453582763672
ell 428, elapsed: 0.0003578662872314453
ell 427, elapsed: 0.0003521442413330078
ell 426, elapsed: 0.0003609657287597656
ell 425, elapsed: 0.0003330707550048828
ell 424, elapsed: 0.0003330707550048828
ell 423, elapsed: 0.0003349781036376953
ell 422, elapsed: 0.0003399848937988281
ell 421, elapsed: 0.00034618377685546875
ell 420, elapsed: 0.00033593177795410156
ell 419, elapsed: 0.0003409385681152344
ell 418, elapsed: 0.0003371238708496094
ell 417, elapsed: 0.0003418922424316406
ell 416, elapsed: 0.0003819465637207031
ell 415, elapsed: 0.0003409385681152344
ell 414, elapsed: 0.00033402442932128906
ell 413, elapsed: 0.0003459453582763672
ell 412, elapsed: 0.0003421306610107422
ell 411, elapsed: 0.00034880638122558594
ell 410, elapsed: 0.00034308433532714844
ell 409, elapsed: 0.00035309791564941406
ell 408, elapsed: 0.00034689903259277344
ell 407, elapsed: 0.0003528594970703125
ell 406, elapsed: 0.0003330707550048828
ell 405, elapsed: 0.00029397010803222656
ell 404, elapsed: 0.00029397010803222656
ell 403, elapsed: 0.0002930164337158203
ell 402, elapsed: 0.00029206275939941406
ell 401, elapsed: 0.0002980232238769531
ell 400, elapsed: 0.0002980232238769531
ell 399, elapsed: 0.0002989768981933594
ell 398, elapsed: 0.0002880096435546875
ell 397, elapsed: 0.0002899169921875
ell 396, elapsed: 0.00029397010803222656
ell 395, elapsed: 0.00029087066650390625
ell 394, elapsed: 0.0002951622009277344
ell 393, elapsed: 0.00039505958557128906
ell 392, elapsed: 0.0002880096435546875
ell 391, elapsed: 0.0003001689910888672
ell 390, elapsed: 0.00028896331787109375
ell 389, elapsed: 0.00029397010803222656
ell 388, elapsed: 0.0002880096435546875
ell 387, elapsed: 0.000286102294921875
ell 386, elapsed: 0.0002918243408203125
ell 385, elapsed: 0.0002930164337158203
ell 384, elapsed: 0.0002930164337158203
ell 383, elapsed: 0.00028705596923828125
ell 382, elapsed: 0.0002989768981933594
ell 381, elapsed: 0.0002989768981933594
ell 380, elapsed: 0.0003170967102050781
ell 379, elapsed: 0.0002968311309814453
ell 378, elapsed: 0.0002911090850830078
ell 377, elapsed: 0.00029921531677246094
ell 376, elapsed: 0.0002911090850830078
ell 375, elapsed: 0.0002968311309814453
ell 374, elapsed: 0.0003020763397216797
ell 373, elapsed: 0.0002930164337158203
ell 372, elapsed: 0.0003008842468261719
ell 371, elapsed: 0.00029397010803222656
ell 370, elapsed: 0.0002980232238769531
ell 369, elapsed: 0.0003230571746826172
ell 368, elapsed: 0.0002961158752441406
ell 367, elapsed: 0.00030112266540527344
ell 366, elapsed: 0.0002989768981933594
ell 365, elapsed: 0.00029206275939941406
ell 364, elapsed: 0.0003039836883544922
ell 363, elapsed: 0.0002899169921875
ell 362, elapsed: 0.0002980232238769531
ell 361, elapsed: 0.0002899169921875
ell 360, elapsed: 0.0002930164337158203
ell 359, elapsed: 0.0002999305725097656
ell 358, elapsed: 0.00029397010803222656
ell 357, elapsed: 0.0002949237823486328
ell 356, elapsed: 0.0002918243408203125
ell 355, elapsed: 0.0003361701965332031
ell 354, elapsed: 0.0002918243408203125
ell 353, elapsed: 0.0002911090850830078
ell 352, elapsed: 0.0002949237823486328
ell 351, elapsed: 0.0002899169921875
ell 350, elapsed: 0.0002999305725097656
ell 349, elapsed: 0.0002911090850830078
ell 348, elapsed: 0.00028586387634277344
ell 347, elapsed: 0.0002930164337158203
ell 346, elapsed: 0.0002880096435546875
ell 345, elapsed: 0.00029206275939941406
ell 344, elapsed: 0.0002911090850830078
ell 343, elapsed: 0.0002880096435546875
ell 342, elapsed: 0.00032210350036621094
ell 341, elapsed: 0.0002830028533935547
ell 340, elapsed: 0.0002951622009277344
ell 339, elapsed: 0.0002841949462890625
ell 338, elapsed: 0.0002770423889160156
ell 337, elapsed: 0.00028395652770996094
ell 336, elapsed: 0.0002789497375488281
ell 335, elapsed: 0.0002880096435546875
ell 334, elapsed: 0.0002799034118652344
ell 333, elapsed: 0.0002808570861816406
ell 332, elapsed: 0.00028395652770996094
ell 331, elapsed: 0.0002789497375488281
ell 330, elapsed: 0.0002849102020263672
ell 329, elapsed: 0.00031185150146484375
ell 328, elapsed: 0.0002810955047607422
ell 327, elapsed: 0.0002880096435546875
ell 326, elapsed: 0.0002810955047607422
ell 325, elapsed: 0.00028896331787109375
ell 324, elapsed: 0.0002720355987548828
ell 323, elapsed: 0.00024199485778808594
ell 322, elapsed: 0.00023698806762695312
ell 321, elapsed: 0.00023412704467773438
ell 320, elapsed: 0.0002410411834716797
ell 319, elapsed: 0.00023484230041503906
ell 318, elapsed: 0.0002410411834716797
ell 317, elapsed: 0.00023508071899414062
ell 316, elapsed: 0.00023508071899414062
ell 315, elapsed: 0.0002410411834716797
ell 314, elapsed: 0.0003001689910888672
ell 313, elapsed: 0.00024390220642089844
ell 312, elapsed: 0.0002789497375488281
ell 311, elapsed: 0.00023818016052246094
ell 310, elapsed: 0.00024199485778808594
ell 309, elapsed: 0.00023484230041503906
ell 308, elapsed: 0.00023889541625976562
ell 307, elapsed: 0.00023293495178222656
ell 306, elapsed: 0.000244140625
ell 305, elapsed: 0.00024199485778808594
ell 304, elapsed: 0.00023508071899414062
ell 303, elapsed: 0.0002391338348388672
ell 302, elapsed: 0.00029206275939941406
ell 301, elapsed: 0.000270843505859375
ell 300, elapsed: 0.00026607513427734375
ell 299, elapsed: 0.00028514862060546875
ell 298, elapsed: 0.0003139972686767578
ell 297, elapsed: 0.00028395652770996094
ell 296, elapsed: 0.0002789497375488281
ell 295, elapsed: 0.00028014183044433594
ell 294, elapsed: 0.0002429485321044922
ell 293, elapsed: 0.0002510547637939453
ell 292, elapsed: 0.00029397010803222656
ell 291, elapsed: 0.0002899169921875
ell 290, elapsed: 0.00027489662170410156
ell 289, elapsed: 0.00028204917907714844
ell 288, elapsed: 0.0002899169921875
ell 287, elapsed: 0.0002808570861816406
ell 286, elapsed: 0.00028705596923828125
ell 285, elapsed: 0.0002789497375488281
ell 284, elapsed: 0.00024199485778808594
ell 283, elapsed: 0.00024509429931640625
ell 282, elapsed: 0.00023794174194335938
ell 281, elapsed: 0.0002429485321044922
ell 280, elapsed: 0.00023698806762695312
ell 279, elapsed: 0.00024318695068359375
ell 278, elapsed: 0.000247955322265625
ell 277, elapsed: 0.00023889541625976562
ell 276, elapsed: 0.00024199485778808594
ell 275, elapsed: 0.00023698806762695312
ell 274, elapsed: 0.00023698806762695312
ell 273, elapsed: 0.0002410411834716797
ell 272, elapsed: 0.00023484230041503906
ell 271, elapsed: 0.0002429485321044922
ell 270, elapsed: 0.00023603439331054688
ell 269, elapsed: 0.0002391338348388672
ell 268, elapsed: 0.00024199485778808594
ell 267, elapsed: 0.00023698806762695312
ell 266, elapsed: 0.00024509429931640625
ell 265, elapsed: 0.00023889541625976562
ell 264, elapsed: 0.00023698806762695312
ell 263, elapsed: 0.00025391578674316406
ell 262, elapsed: 0.0002391338348388672
ell 261, elapsed: 0.0002429485321044922
ell 260, elapsed: 0.0002391338348388672
ell 259, elapsed: 0.000244140625
ell 258, elapsed: 0.00023889541625976562
ell 257, elapsed: 0.00023818016052246094
ell 256, elapsed: 0.00024580955505371094
ell 255, elapsed: 0.00023818016052246094
ell 254, elapsed: 0.0003218650817871094
ell 253, elapsed: 0.0002510547637939453
ell 252, elapsed: 0.00024199485778808594
ell 251, elapsed: 0.000247955322265625
ell 250, elapsed: 0.00023984909057617188
ell 249, elapsed: 0.000244140625
ell 248, elapsed: 0.0002429485321044922
ell 247, elapsed: 0.00023698806762695312
ell 246, elapsed: 0.0002589225769042969
ell 245, elapsed: 0.0002448558807373047
ell 244, elapsed: 0.0002491474151611328
ell 243, elapsed: 0.00025391578674316406
ell 242, elapsed: 0.00024700164794921875
ell 241, elapsed: 0.00024509429931640625
ell 240, elapsed: 0.0002551078796386719
ell 239, elapsed: 0.0003330707550048828
ell 238, elapsed: 0.000308990478515625
ell 237, elapsed: 0.0002949237823486328
ell 236, elapsed: 0.0003039836883544922
ell 235, elapsed: 0.0002570152282714844
ell 234, elapsed: 0.0002639293670654297
ell 233, elapsed: 0.0002880096435546875
ell 232, elapsed: 0.0002951622009277344
ell 231, elapsed: 0.00024199485778808594
ell 230, elapsed: 0.00024080276489257812
ell 229, elapsed: 0.000247955322265625
ell 228, elapsed: 0.00023818016052246094
ell 227, elapsed: 0.00024819374084472656
ell 226, elapsed: 0.00023889541625976562
ell 225, elapsed: 0.00023508071899414062
ell 224, elapsed: 0.0002620220184326172
ell 223, elapsed: 0.00023603439331054688
ell 222, elapsed: 0.00023889541625976562
ell 221, elapsed: 0.00023508071899414062
ell 220, elapsed: 0.0002338886260986328
ell 219, elapsed: 0.00024080276489257812
ell 218, elapsed: 0.00023484230041503906
ell 217, elapsed: 0.00023794174194335938
ell 216, elapsed: 0.0002338886260986328
ell 215, elapsed: 0.00023412704467773438
ell 214, elapsed: 0.00023794174194335938
ell 213, elapsed: 0.00023412704467773438
ell 212, elapsed: 0.0002689361572265625
ell 211, elapsed: 0.00023484230041503906
ell 210, elapsed: 0.00023317337036132812
ell 209, elapsed: 0.00023889541625976562
ell 208, elapsed: 0.00023603439331054688
ell 207, elapsed: 0.00023794174194335938
ell 206, elapsed: 0.00023293495178222656
ell 205, elapsed: 0.00023317337036132812
ell 204, elapsed: 0.00023317337036132812
ell 203, elapsed: 0.00023698806762695312
ell 202, elapsed: 0.00023889541625976562
ell 201, elapsed: 0.00023102760314941406
ell 200, elapsed: 0.00023698806762695312
ell 199, elapsed: 0.0002288818359375
ell 198, elapsed: 0.0002300739288330078
ell 197, elapsed: 0.0002338886260986328
ell 196, elapsed: 0.00022912025451660156
ell 195, elapsed: 0.00023794174194335938
ell 194, elapsed: 0.00023102760314941406
ell 193, elapsed: 0.00023293495178222656
ell 192, elapsed: 0.0002498626708984375
ell 191, elapsed: 0.0002300739288330078
ell 190, elapsed: 0.0002410411834716797
ell 189, elapsed: 0.00022792816162109375
ell 188, elapsed: 0.00022792816162109375
ell 187, elapsed: 0.00023508071899414062
ell 186, elapsed: 0.00022792816162109375
ell 185, elapsed: 0.00024008750915527344
ell 184, elapsed: 0.00022912025451660156
ell 183, elapsed: 0.0002288818359375
ell 182, elapsed: 0.0002357959747314453
ell 181, elapsed: 0.00022792816162109375
ell 180, elapsed: 0.00023698806762695312
ell 179, elapsed: 0.00022792816162109375
ell 178, elapsed: 0.00022912025451660156
ell 177, elapsed: 0.00023484230041503906
ell 176, elapsed: 0.00024700164794921875
ell 175, elapsed: 0.00023412704467773438
ell 174, elapsed: 0.00023102760314941406
ell 173, elapsed: 0.00022602081298828125
ell 172, elapsed: 0.00023603439331054688
ell 171, elapsed: 0.0002269744873046875
ell 170, elapsed: 0.00023293495178222656
ell 169, elapsed: 0.0002288818359375
ell 168, elapsed: 0.00023317337036132812
ell 167, elapsed: 0.000225067138671875
ell 166, elapsed: 0.0002300739288330078
ell 165, elapsed: 0.00023698806762695312
ell 164, elapsed: 0.00022792816162109375
ell 163, elapsed: 0.00023293495178222656
ell 162, elapsed: 0.00023293495178222656
ell 161, elapsed: 0.00023698806762695312
ell 160, elapsed: 0.00023508071899414062
ell 159, elapsed: 0.0002689361572265625
ell 158, elapsed: 0.0002319812774658203
ell 157, elapsed: 0.00022602081298828125
ell 156, elapsed: 0.00022411346435546875
ell 155, elapsed: 0.0002338886260986328
ell 154, elapsed: 0.00022411346435546875
ell 153, elapsed: 0.0002319812774658203
ell 152, elapsed: 0.00022602081298828125
ell 151, elapsed: 0.0002269744873046875
ell 150, elapsed: 0.00022912025451660156
ell 149, elapsed: 0.0002269744873046875
ell 148, elapsed: 0.0002300739288330078
ell 147, elapsed: 0.0002269744873046875
ell 146, elapsed: 0.0002238750457763672
ell 145, elapsed: 0.00023603439331054688
ell 144, elapsed: 0.00022411346435546875
ell 143, elapsed: 0.0002560615539550781
ell 142, elapsed: 0.000225067138671875
ell 141, elapsed: 0.00022983551025390625
ell 140, elapsed: 0.00022602081298828125
ell 139, elapsed: 0.00022411346435546875
ell 138, elapsed: 0.0002300739288330078
ell 137, elapsed: 0.000225067138671875
ell 136, elapsed: 0.00022792816162109375
ell 135, elapsed: 0.00022792816162109375
ell 134, elapsed: 0.000225067138671875
ell 133, elapsed: 0.0002300739288330078
ell 132, elapsed: 0.0002319812774658203
ell 131, elapsed: 0.00023484230041503906
ell 130, elapsed: 0.00022602081298828125
ell 129, elapsed: 0.00022602081298828125
ell 128, elapsed: 0.0002319812774658203
ell 127, elapsed: 0.00022792816162109375
ell 126, elapsed: 0.00027108192443847656
ell 125, elapsed: 0.00022792816162109375
ell 124, elapsed: 0.0002300739288330078
ell 123, elapsed: 0.00022792816162109375
ell 122, elapsed: 0.00022792816162109375
ell 121, elapsed: 0.0002269744873046875
ell 120, elapsed: 0.00022602081298828125
ell 119, elapsed: 0.0002338886260986328
ell 118, elapsed: 0.00023293495178222656
ell 117, elapsed: 0.000225067138671875
ell 116, elapsed: 0.00023102760314941406
ell 115, elapsed: 0.0002269744873046875
ell 114, elapsed: 0.00023508071899414062
ell 113, elapsed: 0.0002238750457763672
ell 112, elapsed: 0.00023508071899414062
ell 111, elapsed: 0.0002338886260986328
ell 110, elapsed: 0.0002510547637939453
ell 109, elapsed: 0.00023293495178222656
ell 108, elapsed: 0.00022602081298828125
ell 107, elapsed: 0.0002269744873046875
ell 106, elapsed: 0.00023221969604492188
ell 105, elapsed: 0.0002238750457763672
ell 104, elapsed: 0.0002319812774658203
ell 103, elapsed: 0.0002238750457763672
ell 102, elapsed: 0.0002231597900390625
ell 101, elapsed: 0.0002288818359375
ell 100, elapsed: 0.00022077560424804688
ell 99, elapsed: 0.0002319812774658203
ell 98, elapsed: 0.0002269744873046875
ell 97, elapsed: 0.000225067138671875
ell 96, elapsed: 0.00022912025451660156
ell 95, elapsed: 0.0002238750457763672
ell 94, elapsed: 0.00023102760314941406
ell 93, elapsed: 0.0003199577331542969
ell 92, elapsed: 0.0002701282501220703
ell 91, elapsed: 0.0002841949462890625
ell 90, elapsed: 0.00026798248291015625
ell 89, elapsed: 0.0002739429473876953
ell 88, elapsed: 0.00028705596923828125
ell 87, elapsed: 0.00027108192443847656
ell 86, elapsed: 0.00027108192443847656
ell 85, elapsed: 0.0002701282501220703
ell 84, elapsed: 0.00027823448181152344
ell 83, elapsed: 0.0002758502960205078
ell 82, elapsed: 0.0002770423889160156
ell 81, elapsed: 0.000270843505859375
ell 80, elapsed: 0.00027680397033691406
ell 79, elapsed: 0.0002779960632324219
ell 78, elapsed: 0.0002739429473876953
ell 77, elapsed: 0.0002770423889160156
ell 76, elapsed: 0.0002770423889160156
ell 75, elapsed: 0.0002808570861816406
ell 74, elapsed: 0.00029277801513671875
ell 73, elapsed: 0.0002779960632324219
ell 72, elapsed: 0.00028395652770996094
ell 71, elapsed: 0.0002810955047607422
ell 70, elapsed: 0.00028014183044433594
ell 69, elapsed: 0.0002868175506591797
ell 68, elapsed: 0.0002791881561279297
ell 67, elapsed: 0.0002961158752441406
ell 66, elapsed: 0.00030803680419921875
ell 65, elapsed: 0.0002818107604980469
ell 64, elapsed: 0.00028896331787109375
ell 63, elapsed: 0.00028204917907714844
ell 62, elapsed: 0.00029206275939941406
ell 61, elapsed: 0.00028896331787109375
ell 60, elapsed: 0.00028514862060546875
ell 59, elapsed: 0.00029015541076660156
ell 58, elapsed: 0.0002849102020263672
ell 57, elapsed: 0.00029206275939941406
ell 56, elapsed: 0.0002880096435546875
ell 55, elapsed: 0.0002810955047607422
ell 54, elapsed: 0.0002999305725097656
ell 53, elapsed: 0.00032901763916015625
ell 52, elapsed: 0.00029277801513671875
ell 51, elapsed: 0.00029397010803222656
ell 50, elapsed: 0.00029206275939941406
ell 49, elapsed: 0.00028395652770996094
ell 48, elapsed: 0.0002880096435546875
ell 47, elapsed: 0.0002911090850830078
ell 46, elapsed: 0.00028204917907714844
ell 45, elapsed: 0.00029206275939941406
ell 44, elapsed: 0.0002849102020263672
ell 43, elapsed: 0.00028204917907714844
ell 42, elapsed: 0.0002961158752441406
ell 41, elapsed: 0.00028586387634277344
ell 40, elapsed: 0.0003228187561035156
ell 39, elapsed: 0.0002880096435546875
ell 38, elapsed: 0.0002949237823486328
ell 37, elapsed: 0.00029087066650390625
ell 36, elapsed: 0.00028514862060546875
ell 35, elapsed: 0.0002980232238769531
ell 34, elapsed: 0.0002841949462890625
ell 33, elapsed: 0.00029015541076660156
ell 32, elapsed: 0.0002930164337158203
ell 31, elapsed: 0.00029397010803222656
ell 30, elapsed: 0.0002911090850830078
ell 29, elapsed: 0.00029087066650390625
ell 28, elapsed: 0.00028705596923828125
ell 27, elapsed: 0.0003218650817871094
ell 26, elapsed: 0.00029015541076660156
ell 25, elapsed: 0.0002779960632324219
ell 24, elapsed: 0.00026988983154296875
ell 23, elapsed: 0.0002808570861816406
ell 22, elapsed: 0.0002739429473876953
ell 21, elapsed: 0.00027298927307128906
ell 20, elapsed: 0.0002760887145996094
ell 19, elapsed: 0.000270843505859375
ell 18, elapsed: 0.0002758502960205078
ell 17, elapsed: 0.00026607513427734375
ell 16, elapsed: 0.00026798248291015625
ell 15, elapsed: 0.0002739429473876953
ell 14, elapsed: 0.00026798248291015625
ell 13, elapsed: 0.0003380775451660156
ell 12, elapsed: 0.0002830028533935547
ell 11, elapsed: 0.0002791881561279297
ell 10, elapsed: 0.0002880096435546875
ell 9, elapsed: 0.0002808570861816406
ell 8, elapsed: 0.00028896331787109375
ell 7, elapsed: 0.00028204917907714844
ell 6, elapsed: 0.0002779960632324219
ell 5, elapsed: 0.00029087066650390625
ell 4, elapsed: 0.0002779960632324219
ell 3, elapsed: 0.0002880096435546875
ell 2, elapsed: 0.0002830028533935547
ell 1, elapsed: 0.0002789497375488281
ell 0, elapsed: 0.0005269050598144531
  0.349442 seconds (46.03 k allocations: 3.091 MiB, 4.91% compilation time)
elapsed: 0.00034308433532714844
step:          0.043636 sec (0 allocations: 0 byte, 0.0% gc time)
swapping:      0.000291 sec (0 allocations: 0 byte, 0.0% gc time)
calc_Mellell!: 0.00407 sec (0 allocations: 0 byte, 0.0% gc time)
  t0 :  0.000954 sec (0 allocations: 0 byte, 0.0% gc time)
  tm2 : 0.065374 sec (0 allocations: 0 byte, 0.0% gc time)
  tm2s: 0.000981 sec (0 allocations: 0 byte, 0.0% gc time)
  tm4 : 0.141947 sec (0 allocations: 0 byte, 0.0% gc time)
  tp2 : 0.0 sec (0 allocations: 0 byte, 0.0% gc time)
  tp2s: 0.0 sec (0 allocations: 0 byte, 0.0% gc time)
  tp4 : 0.0 sec (0 allocations: 0 byte, 0.0% gc time)
calc_wtdll!:   0.228264 sec (9.9 k allocations: 1.047 MB, 0.0% gc time)
calc_wljj!:    0.016334 sec (689 allocations: 10.766 KB, 0.0% gc time)
mult_prefac!:  0.0 sec (0 allocations: 0 byte, 0.0% gc time)
convert:       0.0 sec (0 allocations: 0 byte, 0.0% gc time)
write:         0.025104 sec (0 allocations: 0 byte, 0.0% gc time)
test_rand_2f1: 0.0 sec (0 allocations: 0 byte, 0.0% gc time)
Closing outfile out/Ml21-cache.bin...   0.000008 seconds
  0.000315 seconds (36 allocations: 27.953 KiB)
make_phi():   0.001404 seconds (8.18 k allocations: 237.844 KiB)
  0.114973 seconds (141.90 k allocations: 3.483 MiB)
tskip:       0.00101 sec (0 allocations: 0 byte, 0.0% gc time)
tread:       0.018503 sec (17 allocations: 10.641 KB, 0.0% gc time)
tmultphi:    0.009778 sec (0 allocations: 0 byte, 0.0% gc time)
tbrfft:      0.03158 sec (0 allocations: 0 byte, 0.0% gc time)
tmultprefac: 0.01784 sec (0 allocations: 0 byte, 0.0% gc time)
toutfunc:    0.033279 sec (127.507 k allocations: 2.312 MB, 0.0% gc time)
Testing R=1.0 ... passed
Calculating fmax: 
  dlrec    = 4
  dlrecRg1 = -4
  q=1.1, R=0.9:	  0.224646 seconds (105.72 k allocations: 15.273 MiB)

  0.224804 seconds (105.77 k allocations: 15.307 MiB)
ℓ = 1202
Δℓ = 4
ΔℓRg1 = -4
N = 1600
q = 1.1
kmin = 1.0e-5
kmax = 100000.00000000004
χ0 = 0.023029999999999995
RR = RR.tsv
ℓmax = ℓmax.bin
f21 = f21.bin
kmin = 1.0e-5
kmax = 100000.0
dlrec    = 4
dlrecRg1 = -4
Output size: 5741568 bytes = 0.005347251892089844 GiB
Output size: 51264 bytes = 4.774332046508789e-5 GiB
Reading 'out/F21EllCache'...   0.000774 seconds (197 allocations: 84.203 KiB)
ellmax: 1202
lmaxcache: 1202
fell[:,1,1] = ComplexF64[1.3482014726274674e-57 - 3.302141236118086e-73im, 1.357860004724329e-57 - 3.3257978169518355e-73im]
ell 1202, elapsed: 1.5974044799804688e-5
ell 1201, elapsed: 0.0002548694610595703
ell 1200, elapsed: 0.0002529621124267578
ell 1199, elapsed: 0.00025010108947753906
ell 1198, elapsed: 0.0002701282501220703
ell 1002, elapsed: 0.007555961608886719
ell 1001, elapsed: 0.0002429485321044922
ell 1000, elapsed: 0.00025010108947753906
ell 999, elapsed: 0.00023508071899414062
ell 998, elapsed: 0.00024580955505371094
ell 902, elapsed: 0.0038580894470214844
ell 901, elapsed: 0.0002429485321044922
ell 900, elapsed: 0.00023412704467773438
ell 899, elapsed: 0.0002338886260986328
ell 898, elapsed: 0.00023818016052246094
ell 802, elapsed: 0.00380706787109375
ell 801, elapsed: 0.00023818016052246094
ell 800, elapsed: 0.00023102760314941406
ell 799, elapsed: 0.0002319812774658203
ell 798, elapsed: 0.00023221969604492188
ell 702, elapsed: 0.0037360191345214844
ell 701, elapsed: 0.00024318695068359375
ell 700, elapsed: 0.0002391338348388672
ell 699, elapsed: 0.00022983551025390625
ell 698, elapsed: 0.0002300739288330078
ell 602, elapsed: 0.0037240982055664062
ell 601, elapsed: 0.00023603439331054688
ell 600, elapsed: 0.0002319812774658203
ell 599, elapsed: 0.0002319812774658203
ell 598, elapsed: 0.0002319812774658203
ell 502, elapsed: 0.0037000179290771484
ell 501, elapsed: 0.00023698806762695312
ell 500, elapsed: 0.00023603439331054688
ell 499, elapsed: 0.00023484230041503906
ell 498, elapsed: 0.000247955322265625
ell 402, elapsed: 0.0038139820098876953
ell 401, elapsed: 0.00023889541625976562
ell 400, elapsed: 0.0002357959747314453
ell 399, elapsed: 0.00023412704467773438
ell 398, elapsed: 0.00023508071899414062
ell 302, elapsed: 0.003751039505004883
ell 301, elapsed: 0.00024318695068359375
ell 300, elapsed: 0.00024509429931640625
ell 299, elapsed: 0.00023889541625976562
ell 298, elapsed: 0.00024008750915527344
ell 202, elapsed: 0.0037970542907714844
ell 201, elapsed: 0.00024700164794921875
ell 200, elapsed: 0.00023794174194335938
ell 199, elapsed: 0.0002391338348388672
ell 198, elapsed: 0.00023698806762695312
ell 152, elapsed: 0.0019829273223876953
ell 151, elapsed: 0.0002410411834716797
ell 150, elapsed: 0.00023698806762695312
ell 149, elapsed: 0.00023603439331054688
ell 148, elapsed: 0.00023603439331054688
ell 127, elapsed: 0.001027822494506836
ell 126, elapsed: 0.0002410411834716797
ell 125, elapsed: 0.00023984909057617188
ell 124, elapsed: 0.000263214111328125
ell 123, elapsed: 0.00023794174194335938
ell 114, elapsed: 0.0005781650543212891
ell 113, elapsed: 0.0002410411834716797
ell 112, elapsed: 0.0002357959747314453
ell 111, elapsed: 0.00023794174194335938
ell 110, elapsed: 0.00023889541625976562
ell 102, elapsed: 0.0005438327789306641
ell 101, elapsed: 0.00024390220642089844
ell 100, elapsed: 0.0002391338348388672
ell 99, elapsed: 0.0002410411834716797
ell 98, elapsed: 0.00023698806762695312
ell 97, elapsed: 0.0002849102020263672
ell 96, elapsed: 0.00029397010803222656
ell 95, elapsed: 0.00028395652770996094
ell 94, elapsed: 0.0002770423889160156
ell 93, elapsed: 0.000286102294921875
ell 92, elapsed: 0.0002799034118652344
ell 91, elapsed: 0.0002789497375488281
ell 90, elapsed: 0.00047016143798828125
ell 89, elapsed: 0.0002739429473876953
ell 88, elapsed: 0.0002789497375488281
ell 87, elapsed: 0.0002739429473876953
ell 86, elapsed: 0.0002720355987548828
ell 85, elapsed: 0.0002770423889160156
ell 84, elapsed: 0.0005538463592529297
ell 83, elapsed: 0.00027680397033691406
ell 82, elapsed: 0.000270843505859375
ell 81, elapsed: 0.0002689361572265625
ell 80, elapsed: 0.00028014183044433594
ell 79, elapsed: 0.0002758502960205078
ell 78, elapsed: 0.00028204917907714844
ell 77, elapsed: 0.0002720355987548828
ell 76, elapsed: 0.0002739429473876953
ell 75, elapsed: 0.0002830028533935547
ell 74, elapsed: 0.00026988983154296875
ell 73, elapsed: 0.0002758502960205078
ell 72, elapsed: 0.0002701282501220703
ell 71, elapsed: 0.0002970695495605469
ell 70, elapsed: 0.000286102294921875
ell 69, elapsed: 0.00027108192443847656
ell 68, elapsed: 0.00029397010803222656
ell 67, elapsed: 0.0002760887145996094
ell 66, elapsed: 0.00027298927307128906
ell 65, elapsed: 0.0002968311309814453
ell 64, elapsed: 0.0002760887145996094
ell 63, elapsed: 0.00029206275939941406
ell 62, elapsed: 0.00029087066650390625
ell 61, elapsed: 0.0002930164337158203
ell 60, elapsed: 0.00028705596923828125
ell 59, elapsed: 0.00029087066650390625
ell 58, elapsed: 0.0002989768981933594
ell 57, elapsed: 0.00028586387634277344
ell 56, elapsed: 0.00029206275939941406
ell 55, elapsed: 0.0002949237823486328
ell 54, elapsed: 0.000286102294921875
ell 53, elapsed: 0.00029397010803222656
ell 52, elapsed: 0.00028586387634277344
ell 51, elapsed: 0.0002949237823486328
ell 50, elapsed: 0.00028896331787109375
ell 49, elapsed: 0.0002968311309814453
ell 48, elapsed: 0.00029397010803222656
ell 47, elapsed: 0.0002899169921875
ell 46, elapsed: 0.00030112266540527344
ell 45, elapsed: 0.0003380775451660156
ell 44, elapsed: 0.0002949237823486328
ell 43, elapsed: 0.00030303001403808594
ell 42, elapsed: 0.0002961158752441406
ell 41, elapsed: 0.0002999305725097656
ell 40, elapsed: 0.0002989768981933594
ell 39, elapsed: 0.0003018379211425781
ell 38, elapsed: 0.00030303001403808594
ell 37, elapsed: 0.0002911090850830078
ell 36, elapsed: 0.00029397010803222656
ell 35, elapsed: 0.00029015541076660156
ell 34, elapsed: 0.0002899169921875
ell 33, elapsed: 0.00030612945556640625
ell 32, elapsed: 0.00032806396484375
ell 31, elapsed: 0.0002968311309814453
ell 30, elapsed: 0.00028896331787109375
ell 29, elapsed: 0.0002930164337158203
ell 28, elapsed: 0.0002951622009277344
ell 27, elapsed: 0.0002880096435546875
ell 26, elapsed: 0.0002951622009277344
ell 25, elapsed: 0.0002880096435546875
ell 24, elapsed: 0.0002961158752441406
ell 23, elapsed: 0.0003020763397216797
ell 22, elapsed: 0.0002930164337158203
ell 21, elapsed: 0.0002999305725097656
ell 20, elapsed: 0.00029206275939941406
ell 19, elapsed: 0.00029397010803222656
ell 18, elapsed: 0.0003151893615722656
ell 17, elapsed: 0.0002930164337158203
ell 16, elapsed: 0.0002999305725097656
ell 15, elapsed: 0.00029087066650390625
ell 14, elapsed: 0.00028395652770996094
ell 13, elapsed: 0.0002942085266113281
ell 12, elapsed: 0.00029015541076660156
ell 11, elapsed: 0.0002980232238769531
ell 10, elapsed: 0.00029087066650390625
ell 9, elapsed: 0.0002930164337158203
ell 8, elapsed: 0.0003008842468261719
ell 7, elapsed: 0.00032210350036621094
ell 6, elapsed: 0.000308990478515625
ell 5, elapsed: 0.0002899169921875
ell 4, elapsed: 0.0003001689910888672
ell 3, elapsed: 0.00029206275939941406
ell 2, elapsed: 0.00029087066650390625
ell 1, elapsed: 0.00029087066650390625
ell 0, elapsed: 0.00028204917907714844
  0.087684 seconds (11.51 k allocations: 719.594 KiB)
elapsed: 0.0003437995910644531
step:          0.042962 sec (0 allocations: 0 byte, 0.0% gc time)
swapping:      0.000302 sec (0 allocations: 0 byte, 0.0% gc time)
calc_Mellell!: 0.00073 sec (0 allocations: 0 byte, 0.0% gc time)
  t0 :  0.000205 sec (0 allocations: 0 byte, 0.0% gc time)
  tm2 : 0.009073 sec (0 allocations: 0 byte, 0.0% gc time)
  tm2s: 0.000218 sec (0 allocations: 0 byte, 0.0% gc time)
  tm4 : 0.022313 sec (0 allocations: 0 byte, 0.0% gc time)
  tp2 : 0.0 sec (0 allocations: 0 byte, 0.0% gc time)
  tp2s: 0.0 sec (0 allocations: 0 byte, 0.0% gc time)
  tp4 : 0.0 sec (0 allocations: 0 byte, 0.0% gc time)
calc_wtdll!:   0.032169 sec (1.344 k allocations: 147.0 KB, 0.0% gc time)
calc_wljj!:    0.002017 sec (6 allocations: 96 byte, 0.0% gc time)
mult_prefac!:  0.0 sec (0 allocations: 0 byte, 0.0% gc time)
convert:       0.0 sec (0 allocations: 0 byte, 0.0% gc time)
write:         0.002875 sec (0 allocations: 0 byte, 0.0% gc time)
test_rand_2f1: 0.0 sec (0 allocations: 0 byte, 0.0% gc time)
Closing outfile out/Ml21-cache.bin...   0.000007 seconds
  0.000236 seconds (36 allocations: 27.953 KiB)
make_phi():   0.001338 seconds (8.18 k allocations: 237.844 KiB)
  0.010321 seconds (11.65 k allocations: 308.688 KiB)
tskip:       1.8e-5 sec (0 allocations: 0 byte, 0.0% gc time)
tread:       0.001822 sec (17 allocations: 2.125 KB, 0.0% gc time)
tmultphi:    0.000796 sec (0 allocations: 0 byte, 0.0% gc time)
tbrfft:      0.002855 sec (0 allocations: 0 byte, 0.0% gc time)
tmultprefac: 0.001635 sec (0 allocations: 0 byte, 0.0% gc time)
toutfunc:    0.002986 sec (10.304 k allocations: 196.0 KB, 0.0% gc time)
Testing R=0.9 ... passed
Calculating fmax: 
  dlrec    = 4
  dlrecRg1 = -4
  q=1.1, R=0.8:	  0.179924 seconds (103.21 k allocations: 14.840 MiB)

  0.180037 seconds (103.26 k allocations: 14.874 MiB)
ℓ = 1202
Δℓ = 4
ΔℓRg1 = -4
N = 1600
q = 1.1
kmin = 1.0e-5
kmax = 100000.00000000004
χ0 = 0.023029999999999995
RR = RR.tsv
ℓmax = ℓmax.bin
f21 = f21.bin
kmin = 1.0e-5
kmax = 100000.0
dlrec    = 4
dlrecRg1 = -4
Output size: 5741568 bytes = 0.005347251892089844 GiB
Output size: 51264 bytes = 4.774332046508789e-5 GiB
Reading 'out/F21EllCache'...   0.014636 seconds (197 allocations: 84.203 KiB, 93.54% gc time)
ellmax: 1202
lmaxcache: 1202
fell[:,1,1] = ComplexF64[7.519068145690986e-120 - 1.8416405474382574e-135im, 7.541664537386155e-120 - 1.847175067190611e-135im]
ell 1202, elapsed: 1.0013580322265625e-5
ell 1201, elapsed: 0.00024509429931640625
ell 1200, elapsed: 0.00021195411682128906
ell 1199, elapsed: 0.00021505355834960938
ell 1198, elapsed: 0.00021195411682128906
ell 1002, elapsed: 0.006891012191772461
ell 1001, elapsed: 0.00019979476928710938
ell 1000, elapsed: 0.00019693374633789062
ell 999, elapsed: 0.00019598007202148438
ell 998, elapsed: 0.00019598007202148438
ell 902, elapsed: 0.0034101009368896484
ell 901, elapsed: 0.00019693374633789062
ell 900, elapsed: 0.0001971721649169922
ell 899, elapsed: 0.00019288063049316406
ell 898, elapsed: 0.00019311904907226562
ell 802, elapsed: 0.0034971237182617188
ell 801, elapsed: 0.00019693374633789062
ell 800, elapsed: 0.00019502639770507812
ell 799, elapsed: 0.00019311904907226562
ell 798, elapsed: 0.00019288063049316406
ell 702, elapsed: 0.0034291744232177734
ell 701, elapsed: 0.00019502639770507812
ell 700, elapsed: 0.0001938343048095703
ell 699, elapsed: 0.00019407272338867188
ell 698, elapsed: 0.0002028942108154297
ell 602, elapsed: 0.0034160614013671875
ell 601, elapsed: 0.0001990795135498047
ell 600, elapsed: 0.00019598007202148438
ell 599, elapsed: 0.00019502639770507812
ell 598, elapsed: 0.00019598007202148438
ell 502, elapsed: 0.0034439563751220703
ell 501, elapsed: 0.00019788742065429688
ell 500, elapsed: 0.0001971721649169922
ell 499, elapsed: 0.00019693374633789062
ell 498, elapsed: 0.00019788742065429688
ell 402, elapsed: 0.0034301280975341797
ell 401, elapsed: 0.00019884109497070312
ell 400, elapsed: 0.00019812583923339844
ell 399, elapsed: 0.00019788742065429688
ell 398, elapsed: 0.0001990795135498047
ell 302, elapsed: 0.0034089088439941406
ell 301, elapsed: 0.00019788742065429688
ell 300, elapsed: 0.00019693374633789062
ell 299, elapsed: 0.0001990795135498047
ell 298, elapsed: 0.0002009868621826172
ell 202, elapsed: 0.0034749507904052734
ell 201, elapsed: 0.00020003318786621094
ell 200, elapsed: 0.00019884109497070312
ell 199, elapsed: 0.00019812583923339844
ell 198, elapsed: 0.00019502639770507812
ell 152, elapsed: 0.001750946044921875
ell 151, elapsed: 0.00019598007202148438
ell 150, elapsed: 0.00019598007202148438
ell 149, elapsed: 0.00019598007202148438
ell 148, elapsed: 0.0001990795135498047
ell 127, elapsed: 0.0010859966278076172
ell 126, elapsed: 0.0001919269561767578
ell 125, elapsed: 0.00019288063049316406
ell 124, elapsed: 0.0001919269561767578
ell 123, elapsed: 0.00019216537475585938
ell 114, elapsed: 0.0005018711090087891
ell 113, elapsed: 0.00018906593322753906
ell 112, elapsed: 0.0001888275146484375
ell 111, elapsed: 0.00018906593322753906
ell 110, elapsed: 0.0001888275146484375
ell 102, elapsed: 0.00044798851013183594
ell 101, elapsed: 0.0001900196075439453
ell 100, elapsed: 0.00019812583923339844
ell 99, elapsed: 0.00019121170043945312
ell 98, elapsed: 0.00019097328186035156
ell 97, elapsed: 0.00021600723266601562
ell 96, elapsed: 0.0002231597900390625
ell 95, elapsed: 0.0003638267517089844
ell 94, elapsed: 0.00021600723266601562
ell 93, elapsed: 0.000225067138671875
ell 92, elapsed: 0.00021600723266601562
ell 91, elapsed: 0.0002319812774658203
ell 90, elapsed: 0.0002238750457763672
ell 89, elapsed: 0.00021600723266601562
ell 88, elapsed: 0.00022792816162109375
ell 87, elapsed: 0.00021791458129882812
ell 86, elapsed: 0.00021910667419433594
ell 85, elapsed: 0.0002219676971435547
ell 84, elapsed: 0.00021886825561523438
ell 83, elapsed: 0.00022101402282714844
ell 82, elapsed: 0.00021696090698242188
ell 81, elapsed: 0.00021600723266601562
ell 80, elapsed: 0.0002219676971435547
ell 79, elapsed: 0.00021696090698242188
ell 78, elapsed: 0.0002231597900390625
ell 77, elapsed: 0.00021791458129882812
ell 76, elapsed: 0.00021791458129882812
ell 75, elapsed: 0.00022792816162109375
ell 74, elapsed: 0.00021886825561523438
ell 73, elapsed: 0.0014920234680175781
ell 72, elapsed: 0.00026297569274902344
ell 71, elapsed: 0.0002529621124267578
ell 70, elapsed: 0.0002589225769042969
ell 69, elapsed: 0.0002551078796386719
ell 68, elapsed: 0.00025916099548339844
ell 67, elapsed: 0.00025200843811035156
ell 66, elapsed: 0.00025200843811035156
ell 65, elapsed: 0.0002639293670654297
ell 64, elapsed: 0.0002579689025878906
ell 63, elapsed: 0.0003490447998046875
[...]
ell 780, elapsed: 0.0003991127014160156
ell 779, elapsed: 0.0003981590270996094
ell 778, elapsed: 0.00046896934509277344
ell 772, elapsed: 0.0006508827209472656
ell 771, elapsed: 0.0003981590270996094
ell 770, elapsed: 0.0003979206085205078
ell 769, elapsed: 0.00039696693420410156
ell 768, elapsed: 0.00039887428283691406
ell 762, elapsed: 0.0006768703460693359
ell 761, elapsed: 0.0004019737243652344
ell 760, elapsed: 0.0004119873046875
ell 759, elapsed: 0.0004010200500488281
ell 758, elapsed: 0.0004107952117919922
ell 752, elapsed: 0.0006549358367919922
ell 751, elapsed: 0.00040602684020996094
ell 750, elapsed: 0.00040411949157714844
ell 749, elapsed: 0.0004138946533203125
ell 748, elapsed: 0.000408172607421875
ell 742, elapsed: 0.0006659030914306641
ell 741, elapsed: 0.0004260540008544922
ell 740, elapsed: 0.00041794776916503906
ell 739, elapsed: 0.0004119873046875
ell 738, elapsed: 0.0004119873046875
ell 732, elapsed: 0.0006649494171142578
ell 731, elapsed: 0.00041103363037109375
ell 730, elapsed: 0.0004107952117919922
ell 729, elapsed: 0.0004119873046875
ell 728, elapsed: 0.0004208087921142578
ell 722, elapsed: 0.0006799697875976562
ell 721, elapsed: 0.0004150867462158203
ell 720, elapsed: 0.0004150867462158203
ell 719, elapsed: 0.0004138946533203125
ell 718, elapsed: 0.0004169940948486328
ell 712, elapsed: 0.0006659030914306641
ell 711, elapsed: 0.0013751983642578125
ell 710, elapsed: 0.00041604042053222656
ell 709, elapsed: 0.00041294097900390625
ell 708, elapsed: 0.0004107952117919922
ell 702, elapsed: 0.0006871223449707031
ell 701, elapsed: 0.0004138946533203125
ell 700, elapsed: 0.00041103363037109375
ell 699, elapsed: 0.0004119873046875
ell 698, elapsed: 0.00042510032653808594
ell 692, elapsed: 0.0006699562072753906
ell 691, elapsed: 0.0004048347473144531
ell 690, elapsed: 0.00040602684020996094
ell 689, elapsed: 0.0004019737243652344
ell 688, elapsed: 0.0004010200500488281
ell 682, elapsed: 0.0006439685821533203
ell 681, elapsed: 0.00039887428283691406
ell 680, elapsed: 0.0003991127014160156
ell 679, elapsed: 0.0005888938903808594
ell 678, elapsed: 0.00042319297790527344
ell 672, elapsed: 0.0007379055023193359
ell 671, elapsed: 0.00041794776916503906
ell 670, elapsed: 0.0004200935363769531
ell 669, elapsed: 0.000431060791015625
ell 668, elapsed: 0.00042319297790527344
ell 662, elapsed: 0.0008180141448974609
ell 661, elapsed: 0.0005040168762207031
ell 660, elapsed: 0.0004911422729492188
ell 659, elapsed: 0.0005009174346923828
ell 658, elapsed: 0.0004940032958984375
ell 652, elapsed: 0.0008847713470458984
ell 651, elapsed: 0.0005002021789550781
ell 650, elapsed: 0.0005199909210205078
ell 649, elapsed: 0.0005078315734863281
ell 648, elapsed: 0.0005078315734863281
ell 642, elapsed: 0.0008740425109863281
ell 641, elapsed: 0.000514984130859375
ell 640, elapsed: 0.0005099773406982422
ell 639, elapsed: 0.0005199909210205078
ell 638, elapsed: 0.0005359649658203125
ell 632, elapsed: 0.0008919239044189453
ell 631, elapsed: 0.0005211830139160156
ell 630, elapsed: 0.0005178451538085938
ell 629, elapsed: 0.0005180835723876953
ell 628, elapsed: 0.0005130767822265625
ell 622, elapsed: 0.0009140968322753906
ell 621, elapsed: 0.000514984130859375
ell 620, elapsed: 0.0005068778991699219
ell 619, elapsed: 0.0005180835723876953
ell 618, elapsed: 0.0005130767822265625
ell 612, elapsed: 0.0008800029754638672
ell 611, elapsed: 0.0005221366882324219
ell 610, elapsed: 0.0004868507385253906
ell 609, elapsed: 0.0004258155822753906
ell 608, elapsed: 0.00042700767517089844
ell 602, elapsed: 0.0006849765777587891
ell 601, elapsed: 0.0004260540008544922
ell 600, elapsed: 0.00043487548828125
ell 599, elapsed: 0.0004291534423828125
ell 598, elapsed: 0.00043010711669921875
ell 592, elapsed: 0.0007147789001464844
ell 591, elapsed: 0.0004298686981201172
ell 590, elapsed: 0.00042891502380371094
ell 589, elapsed: 0.0004279613494873047
ell 588, elapsed: 0.0004291534423828125
ell 582, elapsed: 0.0006887912750244141
ell 581, elapsed: 0.0004279613494873047
ell 580, elapsed: 0.0004379749298095703
ell 579, elapsed: 0.0004420280456542969
ell 578, elapsed: 0.00043392181396484375
ell 572, elapsed: 0.0007741451263427734
ell 571, elapsed: 0.00046706199645996094
ell 570, elapsed: 0.00045609474182128906
ell 569, elapsed: 0.00045800209045410156
ell 568, elapsed: 0.00045990943908691406
ell 562, elapsed: 0.0009050369262695312
ell 561, elapsed: 0.0006160736083984375
ell 560, elapsed: 0.0006098747253417969
ell 559, elapsed: 0.0006220340728759766
ell 558, elapsed: 0.0006198883056640625
ell 552, elapsed: 0.0012409687042236328
ell 551, elapsed: 0.0006198883056640625
ell 550, elapsed: 0.0006241798400878906
ell 549, elapsed: 0.0006189346313476562
ell 548, elapsed: 0.0006139278411865234
ell 542, elapsed: 0.0012500286102294922
ell 541, elapsed: 0.0006201267242431641
ell 540, elapsed: 0.0006189346313476562
ell 539, elapsed: 0.0006098747253417969
ell 538, elapsed: 0.0006151199340820312
ell 532, elapsed: 0.0011539459228515625
ell 531, elapsed: 0.00043392181396484375
ell 530, elapsed: 0.0004210472106933594
ell 529, elapsed: 0.00041484832763671875
ell 528, elapsed: 0.0004169940948486328
ell 522, elapsed: 0.0006670951843261719
ell 521, elapsed: 0.0004169940948486328
ell 520, elapsed: 0.0004100799560546875
ell 519, elapsed: 0.0004401206970214844
ell 518, elapsed: 0.0004169940948486328
ell 512, elapsed: 0.0006489753723144531
ell 511, elapsed: 0.0003991127014160156
ell 510, elapsed: 0.0003998279571533203
ell 509, elapsed: 0.0003981590270996094
ell 508, elapsed: 0.0003981590270996094
ell 502, elapsed: 0.0006477832794189453
ell 501, elapsed: 0.0004000663757324219
ell 500, elapsed: 0.00039505958557128906
ell 499, elapsed: 0.0004088878631591797
ell 498, elapsed: 0.0003960132598876953
ell 492, elapsed: 0.0006330013275146484
ell 491, elapsed: 0.00039505958557128906
ell 490, elapsed: 0.0003910064697265625
ell 489, elapsed: 0.00039196014404296875
ell 488, elapsed: 0.00039386749267578125
ell 482, elapsed: 0.0006339550018310547
ell 481, elapsed: 0.0003991127014160156
ell 480, elapsed: 0.00039196014404296875
ell 479, elapsed: 0.000392913818359375
ell 478, elapsed: 0.00039196014404296875
ell 472, elapsed: 0.0006351470947265625
ell 471, elapsed: 0.00039196014404296875
ell 470, elapsed: 0.0003921985626220703
ell 469, elapsed: 0.00039196014404296875
ell 468, elapsed: 0.00039196014404296875
ell 462, elapsed: 0.0006589889526367188
ell 461, elapsed: 0.0004000663757324219
ell 460, elapsed: 0.0003948211669921875
ell 459, elapsed: 0.00039505958557128906
ell 458, elapsed: 0.0004057884216308594
ell 452, elapsed: 0.0006470680236816406
ell 451, elapsed: 0.00041103363037109375
ell 450, elapsed: 0.0004010200500488281
ell 449, elapsed: 0.00041103363037109375
ell 448, elapsed: 0.0004360675811767578
ell 442, elapsed: 0.0006558895111083984
ell 441, elapsed: 0.00040793418884277344
ell 440, elapsed: 0.00041604042053222656
ell 439, elapsed: 0.00041103363037109375
ell 438, elapsed: 0.0004119873046875
ell 432, elapsed: 0.0006618499755859375
ell 431, elapsed: 0.0004200935363769531
ell 430, elapsed: 0.0004239082336425781
ell 429, elapsed: 0.0004150867462158203
ell 428, elapsed: 0.0004150867462158203
ell 422, elapsed: 0.0006690025329589844
ell 421, elapsed: 0.0004169940948486328
ell 420, elapsed: 0.0004181861877441406
ell 419, elapsed: 0.00041794776916503906
ell 418, elapsed: 0.00041794776916503906
ell 412, elapsed: 0.0006849765777587891
ell 411, elapsed: 0.0004189014434814453
ell 410, elapsed: 0.0004189014434814453
ell 409, elapsed: 0.0004169940948486328
ell 408, elapsed: 0.0004220008850097656
ell 402, elapsed: 0.00067901611328125
ell 401, elapsed: 0.0004181861877441406
ell 400, elapsed: 0.0004169940948486328
ell 399, elapsed: 0.0004189014434814453
ell 398, elapsed: 0.0004248619079589844
ell 392, elapsed: 0.0006601810455322266
ell 391, elapsed: 0.00041484832763671875
ell 390, elapsed: 0.0004220008850097656
ell 389, elapsed: 0.00041794776916503906
ell 388, elapsed: 0.0004169940948486328
ell 382, elapsed: 0.000675201416015625
ell 381, elapsed: 0.00041484832763671875
ell 380, elapsed: 0.0004570484161376953
ell 379, elapsed: 0.00041604042053222656
ell 378, elapsed: 0.00041604042053222656
ell 372, elapsed: 0.0006589889526367188
ell 371, elapsed: 0.0004150867462158203
ell 370, elapsed: 0.0004138946533203125
ell 369, elapsed: 0.00041604042053222656
ell 368, elapsed: 0.00041604042053222656
ell 362, elapsed: 0.0006740093231201172
ell 361, elapsed: 0.0004119873046875
ell 360, elapsed: 0.00041103363037109375
ell 359, elapsed: 0.00040984153747558594
ell 358, elapsed: 0.0004131793975830078
ell 352, elapsed: 0.0006568431854248047
ell 351, elapsed: 0.0004119873046875
ell 350, elapsed: 0.0004069805145263672
ell 349, elapsed: 0.0004088878631591797
ell 348, elapsed: 0.00041413307189941406
ell 342, elapsed: 0.0006608963012695312
ell 341, elapsed: 0.00040411949157714844
ell 340, elapsed: 0.0004069805145263672
ell 339, elapsed: 0.0004010200500488281
ell 338, elapsed: 0.0004010200500488281
ell 332, elapsed: 0.0006351470947265625
ell 331, elapsed: 0.0004019737243652344
ell 330, elapsed: 0.00040078163146972656
ell 329, elapsed: 0.00041604042053222656
ell 328, elapsed: 0.0004019737243652344
ell 322, elapsed: 0.0006411075592041016
ell 321, elapsed: 0.0004019737243652344
ell 320, elapsed: 0.0004010200500488281
ell 319, elapsed: 0.0004019737243652344
ell 318, elapsed: 0.0004019737243652344
ell 312, elapsed: 0.0006461143493652344
ell 311, elapsed: 0.00040602684020996094
ell 310, elapsed: 0.0003981590270996094
ell 309, elapsed: 0.0003979206085205078
ell 308, elapsed: 0.00039696693420410156
ell 302, elapsed: 0.0006289482116699219
ell 301, elapsed: 0.00039315223693847656
ell 300, elapsed: 0.000392913818359375
ell 299, elapsed: 0.0003879070281982422
ell 298, elapsed: 0.0003879070281982422
ell 292, elapsed: 0.0008170604705810547
ell 291, elapsed: 0.0004100799560546875
ell 290, elapsed: 0.0004088878631591797
ell 289, elapsed: 0.00044798851013183594
ell 288, elapsed: 0.00041985511779785156
ell 282, elapsed: 0.0007319450378417969
ell 281, elapsed: 0.00047397613525390625
ell 280, elapsed: 0.0004930496215820312
ell 279, elapsed: 0.0005030632019042969
ell 278, elapsed: 0.0004971027374267578
ell 272, elapsed: 0.0008828639984130859
ell 271, elapsed: 0.0004961490631103516
ell 270, elapsed: 0.0004951953887939453
ell 269, elapsed: 0.0004951953887939453
ell 268, elapsed: 0.0005049705505371094
ell 262, elapsed: 0.0008721351623535156
ell 261, elapsed: 0.0005068778991699219
ell 260, elapsed: 0.0005140304565429688
ell 259, elapsed: 0.0005118846893310547
ell 258, elapsed: 0.0005218982696533203
ell 252, elapsed: 0.0008828639984130859
ell 251, elapsed: 0.0005249977111816406
ell 250, elapsed: 0.00045800209045410156
ell 249, elapsed: 0.000453948974609375
ell 248, elapsed: 0.0004589557647705078
ell 242, elapsed: 0.0007760524749755859
ell 241, elapsed: 0.0004639625549316406
ell 240, elapsed: 0.0004570484161376953
ell 239, elapsed: 0.00046896934509277344
ell 238, elapsed: 0.0005488395690917969
ell 232, elapsed: 0.0009310245513916016
ell 231, elapsed: 0.0005381107330322266
ell 230, elapsed: 0.0005309581756591797
ell 229, elapsed: 0.0005421638488769531
ell 228, elapsed: 0.0005311965942382812
ell 222, elapsed: 0.000885009765625
ell 221, elapsed: 0.0005049705505371094
ell 220, elapsed: 0.0005018711090087891
ell 219, elapsed: 0.0005059242248535156
ell 218, elapsed: 0.0005030632019042969
ell 212, elapsed: 0.0008611679077148438
ell 211, elapsed: 0.0005450248718261719
ell 210, elapsed: 0.0005049705505371094
ell 209, elapsed: 0.0005130767822265625
ell 208, elapsed: 0.0005049705505371094
ell 202, elapsed: 0.0008559226989746094
ell 201, elapsed: 0.0005102157592773438
ell 200, elapsed: 0.0005049705505371094
ell 199, elapsed: 0.0005521774291992188
ell 198, elapsed: 0.0005140304565429688
ell 192, elapsed: 0.0008609294891357422
ell 191, elapsed: 0.0005140304565429688
ell 190, elapsed: 0.0005040168762207031
ell 189, elapsed: 0.0004360675811767578
ell 188, elapsed: 0.00043702125549316406
ell 182, elapsed: 0.0007250308990478516
ell 181, elapsed: 0.00043511390686035156
ell 180, elapsed: 0.00043201446533203125
ell 179, elapsed: 0.0004329681396484375
ell 178, elapsed: 0.0004329681396484375
ell 172, elapsed: 0.0006861686706542969
ell 171, elapsed: 0.00042891502380371094
ell 170, elapsed: 0.0004298686981201172
ell 169, elapsed: 0.00045490264892578125
ell 168, elapsed: 0.00042891502380371094
ell 162, elapsed: 0.0006830692291259766
ell 161, elapsed: 0.000431060791015625
ell 160, elapsed: 0.0004248619079589844
ell 159, elapsed: 0.0004239082336425781
ell 158, elapsed: 0.00042700767517089844
ell 152, elapsed: 0.0006711483001708984
ell 151, elapsed: 0.0004279613494873047
ell 150, elapsed: 0.0004169940948486328
ell 149, elapsed: 0.0004169940948486328
ell 148, elapsed: 0.0004138946533203125
ell 142, elapsed: 0.0006620883941650391
ell 141, elapsed: 0.00041103363037109375
ell 140, elapsed: 0.0004119873046875
ell 139, elapsed: 0.00040793418884277344
ell 138, elapsed: 0.0004100799560546875
ell 132, elapsed: 0.000698089599609375
ell 131, elapsed: 0.00040602684020996094
ell 130, elapsed: 0.0004010200500488281
ell 129, elapsed: 0.0004010200500488281
ell 128, elapsed: 0.0004029273986816406
ell 122, elapsed: 0.0006389617919921875
ell 121, elapsed: 0.0004000663757324219
ell 120, elapsed: 0.0004010200500488281
ell 119, elapsed: 0.0004010200500488281
ell 118, elapsed: 0.0004100799560546875
ell 112, elapsed: 0.0006461143493652344
ell 111, elapsed: 0.00039696693420410156
ell 110, elapsed: 0.0003991127014160156
ell 109, elapsed: 0.00039505958557128906
ell 108, elapsed: 0.00039505958557128906
ell 102, elapsed: 0.0006351470947265625
ell 101, elapsed: 0.0017349720001220703
ell 100, elapsed: 0.001695871353149414
ell 99, elapsed: 0.0016851425170898438
ell 98, elapsed: 0.0016808509826660156
ell 92, elapsed: 0.0033659934997558594
ell 91, elapsed: 0.0017199516296386719
ell 90, elapsed: 0.0017209053039550781
ell 89, elapsed: 0.0017330646514892578
ell 88, elapsed: 0.0017650127410888672
ell 82, elapsed: 0.003384828567504883
ell 81, elapsed: 0.0017600059509277344
ell 80, elapsed: 0.0017490386962890625
ell 79, elapsed: 0.0017769336700439453
ell 78, elapsed: 0.0017621517181396484
ell 72, elapsed: 0.003529071807861328
ell 71, elapsed: 0.001901865005493164
ell 70, elapsed: 0.0017559528350830078
ell 69, elapsed: 0.0017499923706054688
ell 68, elapsed: 0.0017538070678710938
ell 62, elapsed: 0.003389120101928711
ell 61, elapsed: 0.0017468929290771484
ell 60, elapsed: 0.001750946044921875
ell 59, elapsed: 0.0017430782318115234
ell 58, elapsed: 0.0018780231475830078
ell 52, elapsed: 0.003896951675415039
ell 51, elapsed: 0.0021820068359375
ell 50, elapsed: 0.0024101734161376953
ell 49, elapsed: 0.0023839473724365234
ell 48, elapsed: 0.0025010108947753906
ell 42, elapsed: 0.004884958267211914
ell 41, elapsed: 0.0025031566619873047
ell 40, elapsed: 0.0023899078369140625
ell 39, elapsed: 0.0022618770599365234
ell 38, elapsed: 0.002240896224975586
ell 32, elapsed: 0.004248857498168945
ell 31, elapsed: 0.001934051513671875
ell 30, elapsed: 0.001981973648071289
ell 29, elapsed: 0.0019102096557617188
ell 28, elapsed: 0.0019230842590332031
ell 22, elapsed: 0.0037190914154052734
ell 21, elapsed: 0.002213001251220703
ell 20, elapsed: 0.0022819042205810547
ell 19, elapsed: 0.002153158187866211
ell 18, elapsed: 0.0020627975463867188
ell 12, elapsed: 0.003835916519165039
ell 11, elapsed: 0.0020520687103271484
ell 10, elapsed: 0.0020551681518554688
ell 9, elapsed: 0.0020170211791992188
ell 8, elapsed: 0.0020329952239990234
  0.402383 seconds (68.56 k allocations: 12.176 MiB)
elapsed: 0.002405881881713867
step:          0.036729 sec (0 allocations: 0 byte, 0.0% gc time)
swapping:      0.000245 sec (0 allocations: 0 byte, 0.0% gc time)
calc_Mellell!: 0.013897 sec (0 allocations: 0 byte, 0.0% gc time)
  t0 :  0.003672 sec (0 allocations: 0 byte, 0.0% gc time)
  tm2 : 0.042151 sec (0 allocations: 0 byte, 0.0% gc time)
  tm2s: 0.003847 sec (0 allocations: 0 byte, 0.0% gc time)
  tm4 : 0.088329 sec (0 allocations: 0 byte, 0.0% gc time)
  tp2 : 0.0 sec (0 allocations: 0 byte, 0.0% gc time)
  tp2s: 0.0 sec (0 allocations: 0 byte, 0.0% gc time)
  tp4 : 0.0 sec (0 allocations: 0 byte, 0.0% gc time)
calc_wtdll!:   0.304397 sec (48.6 k allocations: 11.096 MB, 0.0% gc time)
calc_wljj!:    0.013615 sec (69 allocations: 1.078 KB, 0.0% gc time)
mult_prefac!:  0.0 sec (0 allocations: 0 byte, 0.0% gc time)
convert:       0.0 sec (0 allocations: 0 byte, 0.0% gc time)
write:         0.018241 sec (0 allocations: 0 byte, 0.0% gc time)
test_rand_2f1: 0.0 sec (0 allocations: 0 byte, 0.0% gc time)
Closing outfile out/MlCache/MlCache.bin...   0.000008 seconds
xi, l=0, nu=0:   0.259260 seconds (603.05 k allocations: 32.982 MiB, 99.35% compilation time)
xi, l=0, nu=-2:  0.001482 seconds (114 allocations: 148.969 KiB)
Created 'out/xi.tsv'.
  q=1.1, R=0.6:	  0.362333 seconds (264.58 k allocations: 38.109 MiB)
  q=1.1, R=0.7:	  0.391174 seconds (276.43 k allocations: 40.113 MiB, 2.40% gc time)
  q=1.1, R=0.8:	  0.398474 seconds (271.87 k allocations: 39.334 MiB, 4.62% gc time)
  q=1.1, R=0.9:	  0.468827 seconds (266.68 k allocations: 38.464 MiB, 1.08% gc time)
  q=1.1, R=0.998:	 11.384673 seconds (114.96 k allocations: 7.588 MiB)
  q=1.1, R=1.0:	  0.002945 seconds (8.20 k allocations: 704.344 KiB)

ℓ = 1000
Δℓ = 4
ΔℓRg1 = -4
N = 4096
q = 1.1
kmin = 1.0e-5
kmax = 1000.0
χ0 = 0.001
RR = RR.tsv
ℓmax = ℓmax.bin
f21 = f21.bin
kmin = 1.0e-5
kmax = 1000.0
dlrec    = 4
dlrecRg1 = -4
Output size: 1573632 bytes = 0.0014655590057373047 GiB
Output size: 786816 bytes = 0.0007327795028686523 GiB
Reading 'out/F21EllCache'...   0.000898 seconds (198 allocations: 533.078 KiB)
ellmax: 1002
lmaxcache: 1000
fell[:,1,1] = ComplexF64[1.726292812820208e-224 - 4.2281979352226965e-240im, 1.7282693092099638e-224 - 4.233038955177178e-240im]
ell 1002, elapsed: 1.0013580322265625e-5
ell 1001, elapsed: 0.0003910064697265625
ell 1000, elapsed: 0.0005278587341308594
ell 999, elapsed: 0.0038628578186035156
ell 998, elapsed: 0.0037560462951660156
ell 44, elapsed: 0.5637960433959961
ell 43, elapsed: 0.003795146942138672
ell 42, elapsed: 0.0038530826568603516
ell 41, elapsed: 0.0039310455322265625
ell 40, elapsed: 0.003857135772705078
  0.592502 seconds (4.59 k allocations: 322.266 KiB)
elapsed: 0.004553079605102539
step:          0.562243 sec (0 allocations: 0 byte, 0.0% gc time)
swapping:      0.000335 sec (0 allocations: 0 byte, 0.0% gc time)
calc_Mellell!: 0.00066 sec (0 allocations: 0 byte, 0.0% gc time)
  t0 :  0.000308 sec (0 allocations: 0 byte, 0.0% gc time)
  tm2 : 0.007221 sec (0 allocations: 0 byte, 0.0% gc time)
  tm2s: 0.000285 sec (0 allocations: 0 byte, 0.0% gc time)
  tm4 : 0.017747 sec (0 allocations: 0 byte, 0.0% gc time)
  tp2 : 0.0 sec (0 allocations: 0 byte, 0.0% gc time)
  tp2s: 0.0 sec (0 allocations: 0 byte, 0.0% gc time)
  tp4 : 0.0 sec (0 allocations: 0 byte, 0.0% gc time)
calc_wtdll!:   0.025699 sec (480 allocations: 52.5 KB, 0.0% gc time)
calc_wljj!:    0.000848 sec (1 allocations: 16 byte, 0.0% gc time)
mult_prefac!:  0.0 sec (0 allocations: 0 byte, 0.0% gc time)
convert:       0.0 sec (0 allocations: 0 byte, 0.0% gc time)
write:         0.000628 sec (0 allocations: 0 byte, 0.0% gc time)
test_rand_2f1: 0.0 sec (0 allocations: 0 byte, 0.0% gc time)
Closing outfile out/MlCache/MlCache.bin...   0.000009 seconds
  0.369412 seconds (38 allocations: 66.859 KiB)
make_phi():   0.006448 seconds (65 allocations: 275.984 KiB)
  0.039041 seconds (11.42 k allocations: 711.960 KiB, 91.62% compilation time)
tskip:       0.0 sec (0 allocations: 0 byte, 0.0% gc time)
tread:       0.000559 sec (17 allocations: 1.266 KB, 0.0% gc time)
tmultphi:    0.000231 sec (0 allocations: 0 byte, 0.0% gc time)
tbrfft:      0.000982 sec (0 allocations: 0 byte, 0.0% gc time)
tmultprefac: 0.000478 sec (0 allocations: 0 byte, 0.0% gc time)
toutfunc:    9.9e-5 sec (0 allocations: 0 byte, 0.0% gc time)
Created 'out/wl42_jj00.tsv'.
Created 'out/wl42_jj02.tsv'.
    Testing TwoFAST tests passed 
