Julia Version 1.6.0-DEV.1148
Commit 7d3dac44dc (2020-10-06 21:26 UTC)
Platform Info:
  OS: Linux (x86_64-pc-linux-gnu)
  CPU: AMD EPYC 7502 32-Core Processor
  WORD_SIZE: 64
  LIBM: libopenlibm
  LLVM: libLLVM-10.0.1 (ORCJIT, znver2)
Environment:
  JULIA_DEPOT_PATH = ::/usr/local/share/julia
  JULIA_NUM_THREADS = 2

  Resolving package versions...
  Installed MKL_jll ────────────────────── v2020.2.254+0
  Installed IntelOpenMP_jll ────────────── v2018.0.3+0
  Installed OpenSpecFun_jll ────────────── v0.5.3+3
  Installed GenericSVD ─────────────────── v0.3.0
  Installed BinaryProvider ─────────────── v0.5.10
  Installed FFTW ───────────────────────── v1.2.4
  Installed GenericSchur ───────────────── v0.4.0
  Installed FFTW_jll ───────────────────── v3.3.9+5
  Installed CompilerSupportLibraries_jll ─ v0.3.3+0
  Installed Reexport ───────────────────── v0.2.0
  Installed Readables ──────────────────── v0.3.3
  Installed AbstractFFTs ───────────────── v0.5.0
  Installed SpecialFunctions ───────────── v0.10.3
  Installed TwoFAST ────────────────────── v0.1.3
  Installed ArbNumerics ────────────────── v1.2.1
Updating `~/.julia/environments/v1.6/Project.toml`
  [0dd23c3e] + TwoFAST v0.1.3
Updating `~/.julia/environments/v1.6/Manifest.toml`
  [621f4979] + AbstractFFTs v0.5.0
  [7e558dbc] + ArbNumerics v1.2.1
  [b99e7846] + BinaryProvider v0.5.10
  [e66e0078] + CompilerSupportLibraries_jll v0.3.3+0
  [7a1cc6ca] + FFTW v1.2.4
  [f5851436] + FFTW_jll v3.3.9+5
  [01680d73] + GenericSVD v0.3.0
  [c145ed77] + GenericSchur v0.4.0
  [1d5cc7b8] + IntelOpenMP_jll v2018.0.3+0
  [856f044c] + MKL_jll v2020.2.254+0
  [efe28fd5] + OpenSpecFun_jll v0.5.3+3
  [0d4725de] + Readables v0.3.3
  [189a3867] + Reexport v0.2.0
  [276daf66] + SpecialFunctions v0.10.3
  [0dd23c3e] + TwoFAST v0.1.3
  [56f22d72] + Artifacts
  [2a0f44e3] + Base64
  [ade2ca70] + Dates
  [8bb1440f] + DelimitedFiles
  [b77e0a4c] + InteractiveUtils
  [76f85450] + LibGit2
  [8f399da3] + Libdl
  [37e2e46d] + LinearAlgebra
  [56ddb016] + Logging
  [d6f4376e] + Markdown
  [a63ad114] + Mmap
  [44cfe95a] + Pkg
  [de0858da] + Printf
  [3fa0cd96] + REPL
  [9a3f8284] + Random
  [ea8e919c] + SHA
  [9e88b42a] + Serialization
  [6462fe0b] + Sockets
  [fa267f1f] + TOML
  [8dfed614] + Test
  [cf7118a7] + UUIDs
  [4ec0a83e] + Unicode
   Building FFTW ───────→ `~/.julia/scratchspaces/44cfe95a-1eb2-52ea-b672-e2afdf69b78f/8b7c16b56936047ca41bf25effa137ae0b381ae8/build.log`
   Building ArbNumerics → `~/.julia/scratchspaces/44cfe95a-1eb2-52ea-b672-e2afdf69b78f/329a81d67c64e3a51c176a243b6424fbe39213d0/build.log`
    Testing TwoFAST
Status `/tmp/jl_sLTTDW/Project.toml`
  [7e558dbc] ArbNumerics v1.2.1
  [39dd38d3] Dierckx v0.5.0
  [7a1cc6ca] FFTW v1.2.4
  [276daf66] SpecialFunctions v0.10.3
  [0dd23c3e] TwoFAST v0.1.3
  [8bb1440f] DelimitedFiles
  [37e2e46d] LinearAlgebra
  [56ddb016] Logging
  [8dfed614] Test
Status `/tmp/jl_sLTTDW/Manifest.toml`
  [621f4979] AbstractFFTs v0.5.0
  [7e558dbc] ArbNumerics v1.2.1
  [b99e7846] BinaryProvider v0.5.10
  [e66e0078] CompilerSupportLibraries_jll v0.3.3+0
  [39dd38d3] Dierckx v0.5.0
  [cd4c43a9] Dierckx_jll v0.0.1+0
  [7a1cc6ca] FFTW v1.2.4
  [f5851436] FFTW_jll v3.3.9+5
  [01680d73] GenericSVD v0.3.0
  [c145ed77] GenericSchur v0.4.0
  [1d5cc7b8] IntelOpenMP_jll v2018.0.3+0
  [856f044c] MKL_jll v2020.2.254+0
  [efe28fd5] OpenSpecFun_jll v0.5.3+3
  [0d4725de] Readables v0.3.3
  [189a3867] Reexport v0.2.0
  [276daf66] SpecialFunctions v0.10.3
  [0dd23c3e] TwoFAST v0.1.3
  [56f22d72] Artifacts
  [2a0f44e3] Base64
  [ade2ca70] Dates
  [8bb1440f] DelimitedFiles
  [b77e0a4c] InteractiveUtils
  [76f85450] LibGit2
  [8f399da3] Libdl
  [37e2e46d] LinearAlgebra
  [56ddb016] Logging
  [d6f4376e] Markdown
  [a63ad114] Mmap
  [44cfe95a] Pkg
  [de0858da] Printf
  [3fa0cd96] REPL
  [9a3f8284] Random
  [ea8e919c] SHA
  [9e88b42a] Serialization
  [6462fe0b] Sockets
  [fa267f1f] TOML
  [8dfed614] Test
  [cf7118a7] UUIDs
  [4ec0a83e] Unicode
    Testing Running tests...
WARNING: could not import Printf.ini_hex into ArbNumerics
WARNING: could not import Printf.ini_HEX into ArbNumerics
t = 0.0 sec (0 allocations: 0 byte, 0.0% gc time)
typeof(t) = NamedTuple{(:value, :time, :bytes, :gctime, :gcstats), Tuple{DataType, Float64, Int64, Float64, Base.GC_Diff}}
TwoFAST.PerformanceStats.TimedType = Union{NamedTuple{(:value, :time, :bytes, :gctime, :gcstats), Tuple{T, Float64, Int64, Float64, Base.GC_Diff}}, Tuple{Any, Float64, Int64, Float64, Base.GC_Diff}} where T
t = 0.0 sec (0 allocations: 0 byte, 0.0% gc time)
t: 0.0 sec (0 allocations: 0 byte, 0.0% gc time)
Testing ξ(r), ℓ=0, ν=-1 ... passed
Testing ξ(r), ℓ=0, ν=0 ... passed
Testing ξ(r), ℓ=0, ν=1 ... passed
Testing ξ(r), ℓ=0, ν=2 ... passed
Testing ξ(r), ℓ=0, ν=3 ... passed
Testing ξ(r), ℓ=1, ν=0 ... passed
Testing ξ(r), ℓ=1, ν=1 ... passed
Testing ξ(r), ℓ=1, ν=2 ... passed
Testing ξ(r), ℓ=1, ν=3 ... passed
Testing ξ(r), ℓ=2, ν=-1 ... passed
Testing ξ(r), ℓ=2, ν=0 ... passed
Testing ξ(r), ℓ=2, ν=1 ... passed
Testing ξ(r), ℓ=2, ν=2 ... passed
Testing ξ(r), ℓ=2, ν=3 ... passed
Testing ξ(r), ℓ=3, ν=-1 ... passed
Testing ξ(r), ℓ=3, ν=0 ... passed
Testing ξ(r), ℓ=3, ν=1 ... passed
Testing ξ(r), ℓ=3, ν=2 ... passed
Testing ξ(r), ℓ=3, ν=3 ... passed
Testing ξ(r), ℓ=4, ν=-1 ... passed
Testing ξ(r), ℓ=4, ν=0 ... passed
Testing ξ(r), ℓ=4, ν=1 ... passed
Testing ξ(r), ℓ=4, ν=2 ... passed
Testing ξ(r), ℓ=4, ν=3 ... passed
Testing ξ(r) ... passed
Testing ξ′(r) ... passed
Testing ξ″(r) ... passed
Calculating fmax: 
  dlrec    = 4
  dlrecRg1 = -4
  q=1.1, R=1.1:	  3.519885 seconds (843.10 k allocations: 53.909 MiB, 1.23% gc time, 91.43% compilation time)

  3.533424 seconds (855.60 k allocations: 54.697 MiB, 1.22% gc time, 91.43% compilation time)
ℓ = 1202
Δℓ = 4
ΔℓRg1 = -4
N = 1600
q = 1.1
kmin = 1.0e-5
kmax = 100000.00000000004
χ0 = 0.023029999999999995
RR = RR.tsv
ℓmax = ℓmax.bin
f21 = f21.bin
kmin = 1.0e-5
kmax = 100000.0
dlrec    = 4
dlrecRg1 = -4
Output size: 5741568 bytes = 0.005347251892089844 GiB
Output size: 51264 bytes = 4.774332046508789e-5 GiB
Reading 'out/F21EllCache'...   0.617728 seconds (426.51 k allocations: 24.994 MiB, 3.52% gc time, 99.61% compilation time)
ellmax: 1202
lmaxcache: 1202
fell[:,1,1] = ComplexF64[3.9583795592771634e-52 - 9.695233714158177e-68im, 3.990121772925759e-52 - 9.772979714843386e-68im]
ell 1202, elapsed: 3.695487976074219e-5
ell 1201, elapsed: 1.3348791599273682
ell 1200, elapsed: 0.0005691051483154297
ell 1199, elapsed: 0.0005059242248535156
ell 1198, elapsed: 0.0005140304565429688
ell 1002, elapsed: 0.009150028228759766
ell 1001, elapsed: 0.0004899501800537109
ell 1000, elapsed: 0.00047898292541503906
ell 999, elapsed: 0.0004050731658935547
ell 998, elapsed: 0.0004010200500488281
ell 902, elapsed: 0.0043489933013916016
ell 901, elapsed: 0.0004088878631591797
ell 900, elapsed: 0.00042700767517089844
ell 899, elapsed: 0.0003750324249267578
ell 898, elapsed: 0.0003809928894042969
ell 802, elapsed: 0.004410982131958008
ell 801, elapsed: 0.00047397613525390625
ell 800, elapsed: 0.0004630088806152344
ell 799, elapsed: 0.0004620552062988281
ell 798, elapsed: 0.0004401206970214844
ell 702, elapsed: 0.004976987838745117
ell 701, elapsed: 0.00043582916259765625
ell 700, elapsed: 0.0003669261932373047
ell 699, elapsed: 0.0003840923309326172
ell 698, elapsed: 0.00045990943908691406
ell 602, elapsed: 0.005118131637573242
ell 601, elapsed: 0.0004811286926269531
ell 600, elapsed: 0.0004241466522216797
ell 599, elapsed: 0.00038695335388183594
ell 598, elapsed: 0.0003859996795654297
ell 502, elapsed: 0.0047299861907958984
ell 501, elapsed: 0.0004799365997314453
ell 500, elapsed: 0.0004749298095703125
ell 499, elapsed: 0.0004658699035644531
ell 498, elapsed: 0.0005328655242919922
ell 402, elapsed: 0.005090951919555664
ell 401, elapsed: 0.00048804283142089844
ell 400, elapsed: 0.00047707557678222656
ell 399, elapsed: 0.0004680156707763672
ell 398, elapsed: 0.00046706199645996094
ell 302, elapsed: 0.005023956298828125
ell 301, elapsed: 0.00048804283142089844
ell 300, elapsed: 0.0004761219024658203
ell 299, elapsed: 0.00047898292541503906
ell 298, elapsed: 0.0004699230194091797
ell 202, elapsed: 0.0046939849853515625
ell 201, elapsed: 0.0003840923309326172
ell 200, elapsed: 0.0004928112030029297
ell 199, elapsed: 0.00046896934509277344
ell 198, elapsed: 0.00046706199645996094
ell 152, elapsed: 0.0050389766693115234
ell 151, elapsed: 0.0004839897155761719
ell 150, elapsed: 0.0004649162292480469
ell 149, elapsed: 0.0004999637603759766
ell 148, elapsed: 0.0004630088806152344
ell 127, elapsed: 0.0015649795532226562
ell 126, elapsed: 0.0004889965057373047
ell 125, elapsed: 0.0004830360412597656
ell 124, elapsed: 0.00047397613525390625
ell 123, elapsed: 0.00041794776916503906
ell 114, elapsed: 0.0007731914520263672
ell 113, elapsed: 0.00037789344787597656
ell 112, elapsed: 0.00037407875061035156
ell 111, elapsed: 0.00037288665771484375
ell 110, elapsed: 0.0003719329833984375
ell 102, elapsed: 0.0007100105285644531
ell 101, elapsed: 0.0003800392150878906
ell 100, elapsed: 0.0005669593811035156
ell 99, elapsed: 0.0004639625549316406
ell 98, elapsed: 0.0004630088806152344
ell 97, elapsed: 0.0005788803100585938
ell 96, elapsed: 0.0005500316619873047
ell 95, elapsed: 0.0005440711975097656
ell 94, elapsed: 0.0005941390991210938
ell 93, elapsed: 0.0005581378936767578
ell 92, elapsed: 0.0005598068237304688
ell 91, elapsed: 0.0005500316619873047
ell 90, elapsed: 0.0005600452423095703
ell 89, elapsed: 0.0005609989166259766
ell 88, elapsed: 0.0005500316619873047
ell 87, elapsed: 0.0005850791931152344
ell 86, elapsed: 0.0005540847778320312
ell 85, elapsed: 0.00055694580078125
ell 84, elapsed: 0.0005469322204589844
ell 83, elapsed: 0.0005409717559814453
ell 82, elapsed: 0.0005660057067871094
ell 81, elapsed: 0.0006041526794433594
ell 80, elapsed: 0.0005691051483154297
ell 79, elapsed: 0.0005419254302978516
ell 78, elapsed: 0.0004999637603759766
ell 77, elapsed: 0.0004401206970214844
ell 76, elapsed: 0.00043702125549316406
ell 75, elapsed: 0.0004429817199707031
ell 74, elapsed: 0.00043487548828125
ell 73, elapsed: 0.0004830360412597656
ell 72, elapsed: 0.000431060791015625
ell 71, elapsed: 0.0004241466522216797
ell 70, elapsed: 0.00043320655822753906
ell 69, elapsed: 0.00043892860412597656
ell 68, elapsed: 0.000431060791015625
ell 67, elapsed: 0.0004360675811767578
ell 66, elapsed: 0.00043201446533203125
ell 65, elapsed: 0.0004470348358154297
ell 64, elapsed: 0.0005879402160644531
ell 63, elapsed: 0.0004420280456542969
ell 62, elapsed: 0.00043487548828125
ell 61, elapsed: 0.00043487548828125
ell 60, elapsed: 0.0004360675811767578
ell 59, elapsed: 0.0004360675811767578
ell 58, elapsed: 0.000431060791015625
ell 57, elapsed: 0.00043892860412597656
ell 56, elapsed: 0.0004241466522216797
ell 55, elapsed: 0.00048804283142089844
ell 54, elapsed: 0.0004200935363769531
ell 53, elapsed: 0.0004489421844482422
ell 52, elapsed: 0.0004258155822753906
ell 51, elapsed: 0.00044918060302734375
ell 50, elapsed: 0.00043201446533203125
ell 49, elapsed: 0.0004439353942871094
ell 48, elapsed: 0.00044417381286621094
ell 47, elapsed: 0.00048089027404785156
ell 46, elapsed: 0.00044798851013183594
ell 45, elapsed: 0.00045108795166015625
ell 44, elapsed: 0.0004119873046875
ell 43, elapsed: 0.00040912628173828125
ell 42, elapsed: 0.0004050731658935547
ell 41, elapsed: 0.00040411949157714844
ell 40, elapsed: 0.00040721893310546875
ell 39, elapsed: 0.0004119873046875
ell 38, elapsed: 0.00045990943908691406
ell 37, elapsed: 0.0004100799560546875
ell 36, elapsed: 0.0004100799560546875
ell 35, elapsed: 0.00040793418884277344
ell 34, elapsed: 0.00040602684020996094
ell 33, elapsed: 0.0004088878631591797
ell 32, elapsed: 0.0004038810729980469
ell 31, elapsed: 0.00040602684020996094
ell 30, elapsed: 0.0004200935363769531
ell 29, elapsed: 0.0004971027374267578
ell 28, elapsed: 0.0004220008850097656
ell 27, elapsed: 0.0004069805145263672
ell 26, elapsed: 0.00040602684020996094
ell 25, elapsed: 0.0004100799560546875
ell 24, elapsed: 0.0004088878631591797
ell 23, elapsed: 0.00041294097900390625
ell 22, elapsed: 0.0004050731658935547
ell 21, elapsed: 0.00040411949157714844
ell 20, elapsed: 0.0004100799560546875
ell 19, elapsed: 0.00047898292541503906
ell 18, elapsed: 0.0004200935363769531
ell 17, elapsed: 0.0003998279571533203
ell 16, elapsed: 0.0004000663757324219
ell 15, elapsed: 0.0004069805145263672
ell 14, elapsed: 0.00040602684020996094
ell 13, elapsed: 0.0004119873046875
ell 12, elapsed: 0.0004169940948486328
ell 11, elapsed: 0.0005440711975097656
ell 10, elapsed: 0.0006189346313476562
ell 9, elapsed: 0.0005309581756591797
ell 8, elapsed: 0.0005519390106201172
ell 7, elapsed: 0.0005350112915039062
ell 6, elapsed: 0.0005409717559814453
ell 5, elapsed: 0.0005331039428710938
ell 4, elapsed: 0.0005660057067871094
ell 3, elapsed: 0.0005509853363037109
ell 2, elapsed: 0.0005409717559814453
ell 1, elapsed: 0.0005490779876708984
ell 0, elapsed: 0.0005431175231933594
  1.941956 seconds (1.38 M allocations: 74.482 MiB, 2.77% gc time, 93.10% compilation time)
elapsed: 0.0006840229034423828
step:          0.389154 sec (311.15 k allocations: 16.965 MB, 6.09% gc time)
swapping:      0.000474 sec (0 allocations: 0 byte, 0.0% gc time)
calc_Mellell!: 0.150543 sec (135.744 k allocations: 7.432 MB, 0.0% gc time)
  t0 :  0.0 sec (0 allocations: 0 byte, 0.0% gc time)
  tm2 : 0.0 sec (0 allocations: 0 byte, 0.0% gc time)
  tm2s: 0.0 sec (0 allocations: 0 byte, 0.0% gc time)
  tm4 : 0.0 sec (0 allocations: 0 byte, 0.0% gc time)
  tp2 : 0.0 sec (0 allocations: 0 byte, 0.0% gc time)
  tp2s: 0.0 sec (0 allocations: 0 byte, 0.0% gc time)
  tp4 : 0.0 sec (0 allocations: 0 byte, 0.0% gc time)
calc_wtdll!:   0.909149 sec (509.622 k allocations: 28.196 MB, 0.0% gc time)
calc_wljj!:    0.002533 sec (6 allocations: 96 byte, 0.0% gc time)
mult_prefac!:  0.0 sec (0 allocations: 0 byte, 0.0% gc time)
convert:       0.0 sec (0 allocations: 0 byte, 0.0% gc time)
write:         0.004233 sec (0 allocations: 0 byte, 0.0% gc time)
test_rand_2f1: 0.0 sec (0 allocations: 0 byte, 0.0% gc time)
Closing outfile out/Ml21-cache.bin...   0.000017 seconds
  0.914780 seconds (246.35 k allocations: 14.218 MiB, 41.52% compilation time)
make_phi():   0.008779 seconds (8.18 k allocations: 237.844 KiB)
  0.226589 seconds (87.57 k allocations: 4.749 MiB, 94.48% compilation time)
tskip:       1.8e-5 sec (0 allocations: 0 byte, 0.0% gc time)
tread:       0.002007 sec (17 allocations: 2.125 KB, 0.0% gc time)
tmultphi:    0.04431 sec (21.425 k allocations: 1.287 MB, 0.0% gc time)
tbrfft:      0.003426 sec (0 allocations: 0 byte, 0.0% gc time)
tmultprefac: 0.001759 sec (0 allocations: 0 byte, 0.0% gc time)
toutfunc:    0.139694 sec (64.483 k allocations: 3.33 MB, 0.0% gc time)
Testing R=1.1 ... passed
Calculating fmax: 
  dlrec    = 4
  dlrecRg1 = -4
  q=1.1, R=1.0:	  0.001240 seconds (3.20 k allocations: 275.344 KiB)

  0.001682 seconds (3.25 k allocations: 309.984 KiB)
ℓ = 1202
Δℓ = 4
ΔℓRg1 = -4
N = 1600
q = 1.1
kmin = 1.0e-5
kmax = 100000.00000000004
χ0 = 0.023029999999999995
RR = RR.tsv
ℓmax = ℓmax.bin
f21 = f21.bin
kmin = 1.0e-5
kmax = 100000.0
dlrec    = 4
dlrecRg1 = -4
Output size: 61465536 bytes = 0.05724424123764038 GiB
Output size: 51264 bytes = 4.774332046508789e-5 GiB
Reading 'out/F21EllCache'...   0.000853 seconds (197 allocations: 84.203 KiB)
ellmax: 1202
lmaxcache: 1202
fell[:,1,1] = ComplexF64[809.6031528389767 - 1.9829558194077161e-13im, 0.0 + 0.0im]
ell 1202, elapsed: 3.0040740966796875e-5
ell 1201, elapsed: 0.013170003890991211
ell 1200, elapsed: 0.013273000717163086
ell 1199, elapsed: 0.0003070831298828125
ell 1198, elapsed: 0.00031113624572753906
ell 1197, elapsed: 0.00036406517028808594
ell 1196, elapsed: 0.00034308433532714844
ell 1195, elapsed: 0.00034880638122558594
ell 1194, elapsed: 0.0003540515899658203
ell 1193, elapsed: 0.0003330707550048828
ell 1192, elapsed: 0.00034499168395996094
ell 1191, elapsed: 0.00034809112548828125
ell 1190, elapsed: 0.0003490447998046875
ell 1189, elapsed: 0.0003600120544433594
ell 1188, elapsed: 0.00035691261291503906
ell 1187, elapsed: 0.00035500526428222656
ell 1186, elapsed: 0.0003559589385986328
ell 1185, elapsed: 0.00036907196044921875
ell 1184, elapsed: 0.0003390312194824219
ell 1183, elapsed: 0.0003619194030761719
ell 1182, elapsed: 0.0003459453582763672
ell 1181, elapsed: 0.00034809112548828125
ell 1180, elapsed: 0.00035190582275390625
ell 1179, elapsed: 0.0003521442413330078
ell 1178, elapsed: 0.0003399848937988281
ell 1177, elapsed: 0.0003459453582763672
ell 1176, elapsed: 0.00032782554626464844
ell 1175, elapsed: 0.0003409385681152344
ell 1174, elapsed: 0.00033402442932128906
ell 1173, elapsed: 0.00036215782165527344
ell 1172, elapsed: 0.0003459453582763672
ell 1171, elapsed: 0.00034689903259277344
ell 1170, elapsed: 0.00037407875061035156
ell 1169, elapsed: 0.00034999847412109375
ell 1168, elapsed: 0.00035190582275390625
ell 1167, elapsed: 0.0003528594970703125
ell 1166, elapsed: 0.00034689903259277344
ell 1165, elapsed: 0.0003590583801269531
ell 1164, elapsed: 0.0003600120544433594
ell 1163, elapsed: 0.0003600120544433594
ell 1162, elapsed: 0.0003590583801269531
ell 1161, elapsed: 0.0003528594970703125
ell 1160, elapsed: 0.0003600120544433594
ell 1159, elapsed: 0.0003609657287597656
ell 1158, elapsed: 0.00037288665771484375
ell 1157, elapsed: 0.0003609657287597656
ell 1156, elapsed: 0.0003600120544433594
ell 1155, elapsed: 0.0003638267517089844
ell 1154, elapsed: 0.0003528594970703125
ell 1153, elapsed: 0.0003619194030761719
ell 1152, elapsed: 0.00036597251892089844
ell 1151, elapsed: 0.00035500526428222656
ell 1150, elapsed: 0.0003628730773925781
ell 1149, elapsed: 0.0003581047058105469
ell 1148, elapsed: 0.0003571510314941406
ell 1147, elapsed: 0.00035190582275390625
ell 1146, elapsed: 0.00036787986755371094
ell 1145, elapsed: 0.0003581047058105469
ell 1144, elapsed: 0.0003590583801269531
ell 1143, elapsed: 0.0003650188446044922
ell 1142, elapsed: 0.0003521442413330078
ell 1141, elapsed: 0.0003631114959716797
ell 1140, elapsed: 0.0003650188446044922
ell 1139, elapsed: 0.00035691261291503906
ell 1138, elapsed: 0.0003838539123535156
ell 1137, elapsed: 0.00034999847412109375
ell 1136, elapsed: 0.00036215782165527344
ell 1135, elapsed: 0.0003440380096435547
ell 1134, elapsed: 0.00034689903259277344
ell 1133, elapsed: 0.0003540515899658203
ell 1132, elapsed: 0.00034499168395996094
ell 1131, elapsed: 0.0003540515899658203
ell 1130, elapsed: 0.000392913818359375
ell 1129, elapsed: 0.0003631114959716797
ell 1128, elapsed: 0.0003590583801269531
ell 1127, elapsed: 0.00034618377685546875
ell 1126, elapsed: 0.0003540515899658203
ell 1125, elapsed: 0.0003731250762939453
ell 1124, elapsed: 0.0003440380096435547
ell 1123, elapsed: 0.0003650188446044922
ell 1122, elapsed: 0.00036406517028808594
ell 1121, elapsed: 0.00037789344787597656
ell 1120, elapsed: 0.0003600120544433594
ell 1119, elapsed: 0.0003490447998046875
ell 1118, elapsed: 0.00037097930908203125
ell 1117, elapsed: 0.00034999847412109375
ell 1116, elapsed: 0.0003790855407714844
ell 1115, elapsed: 0.0003790855407714844
ell 1114, elapsed: 0.000347137451171875
ell 1113, elapsed: 0.0003650188446044922
ell 1112, elapsed: 0.0003418922424316406
ell 1111, elapsed: 0.0003600120544433594
ell 1110, elapsed: 0.0003478527069091797
ell 1109, elapsed: 0.0003521442413330078
ell 1108, elapsed: 0.0003719329833984375
ell 1107, elapsed: 0.00036907196044921875
ell 1106, elapsed: 0.00037288665771484375
ell 1105, elapsed: 0.0003600120544433594
ell 1104, elapsed: 0.0003581047058105469
ell 1103, elapsed: 0.00037217140197753906
ell 1102, elapsed: 0.0003581047058105469
ell 1101, elapsed: 0.00036716461181640625
ell 1100, elapsed: 0.0003800392150878906
ell 1099, elapsed: 0.0003609657287597656
ell 1098, elapsed: 0.0003490447998046875
ell 1097, elapsed: 0.0003540515899658203
ell 1096, elapsed: 0.0003609657287597656
ell 1095, elapsed: 0.00037288665771484375
ell 1094, elapsed: 0.0003409385681152344
ell 1093, elapsed: 0.0003609657287597656
ell 1092, elapsed: 0.00037598609924316406
ell 1091, elapsed: 0.0003437995910644531
ell 1090, elapsed: 0.0003571510314941406
ell 1089, elapsed: 0.0003600120544433594
ell 1088, elapsed: 0.00034308433532714844
ell 1087, elapsed: 0.00037097930908203125
ell 1086, elapsed: 0.0003540515899658203
ell 1085, elapsed: 0.00034618377685546875
ell 1084, elapsed: 0.00039505958557128906
ell 1083, elapsed: 0.0003619194030761719
ell 1082, elapsed: 0.0003581047058105469
ell 1081, elapsed: 0.00036406517028808594
ell 1080, elapsed: 0.0003809928894042969
ell 1079, elapsed: 0.0003800392150878906
ell 1078, elapsed: 0.0003750324249267578
ell 1077, elapsed: 0.00037789344787597656
ell 1076, elapsed: 0.00037097930908203125
ell 1075, elapsed: 0.000347137451171875
ell 1074, elapsed: 0.00037384033203125
ell 1073, elapsed: 0.0003581047058105469
ell 1072, elapsed: 0.00035190582275390625
ell 1071, elapsed: 0.0003631114959716797
ell 1070, elapsed: 0.0003559589385986328
ell 1069, elapsed: 0.00035190582275390625
ell 1068, elapsed: 0.00034308433532714844
ell 1067, elapsed: 0.0003590583801269531
ell 1066, elapsed: 0.00032901763916015625
ell 1065, elapsed: 0.00030303001403808594
ell 1064, elapsed: 0.0003070831298828125
ell 1063, elapsed: 0.0003459453582763672
ell 1062, elapsed: 0.00030803680419921875
ell 1061, elapsed: 0.00030517578125
ell 1060, elapsed: 0.00030517578125
ell 1059, elapsed: 0.00033593177795410156
ell 1058, elapsed: 0.00030112266540527344
ell 1057, elapsed: 0.0003039836883544922
ell 1056, elapsed: 0.00030684471130371094
ell 1055, elapsed: 0.00030612945556640625
ell 1054, elapsed: 0.0003058910369873047
ell 1053, elapsed: 0.0003008842468261719
ell 1052, elapsed: 0.0003001689910888672
ell 1051, elapsed: 0.00030684471130371094
ell 1050, elapsed: 0.0002970695495605469
ell 1049, elapsed: 0.0003139972686767578
ell 1048, elapsed: 0.00030612945556640625
ell 1047, elapsed: 0.0003418922424316406
ell 1046, elapsed: 0.00030684471130371094
ell 1045, elapsed: 0.0003039836883544922
ell 1044, elapsed: 0.0003108978271484375
ell 1043, elapsed: 0.0002980232238769531
ell 1042, elapsed: 0.0002980232238769531
ell 1041, elapsed: 0.0003020763397216797
ell 1040, elapsed: 0.00029587745666503906
ell 1039, elapsed: 0.0003039836883544922
ell 1038, elapsed: 0.0002961158752441406
ell 1037, elapsed: 0.0003039836883544922
ell 1036, elapsed: 0.0002968311309814453
ell 1035, elapsed: 0.0003020763397216797
ell 1034, elapsed: 0.0003230571746826172
ell 1033, elapsed: 0.00029206275939941406
ell 1032, elapsed: 0.0003020763397216797
ell 1031, elapsed: 0.0002951622009277344
ell 1030, elapsed: 0.0002970695495605469
ell 1029, elapsed: 0.0003008842468261719
ell 1028, elapsed: 0.0002949237823486328
ell 1027, elapsed: 0.0003008842468261719
ell 1026, elapsed: 0.0002999305725097656
ell 1025, elapsed: 0.0002999305725097656
ell 1024, elapsed: 0.0003008842468261719
ell 1023, elapsed: 0.0003001689910888672
ell 1022, elapsed: 0.0003199577331542969
ell 1021, elapsed: 0.0002961158752441406
ell 1020, elapsed: 0.0002980232238769531
ell 1019, elapsed: 0.0003008842468261719
ell 1018, elapsed: 0.0002980232238769531
ell 1017, elapsed: 0.00030112266540527344
ell 1016, elapsed: 0.0002989768981933594
ell 1015, elapsed: 0.0002949237823486328
ell 1014, elapsed: 0.0002980232238769531
ell 1013, elapsed: 0.00030112266540527344
ell 1012, elapsed: 0.0003027915954589844
ell 1011, elapsed: 0.00029587745666503906
ell 1010, elapsed: 0.0002970695495605469
ell 1009, elapsed: 0.00032711029052734375
ell 1008, elapsed: 0.00029587745666503906
ell 1007, elapsed: 0.0002961158752441406
ell 1006, elapsed: 0.0002989768981933594
ell 1005, elapsed: 0.00029397010803222656
ell 1004, elapsed: 0.0003039836883544922
ell 1003, elapsed: 0.0003230571746826172
ell 1002, elapsed: 0.0002949237823486328
ell 1001, elapsed: 0.0002961158752441406
ell 1000, elapsed: 0.00029397010803222656
ell 999, elapsed: 0.00030112266540527344
ell 998, elapsed: 0.0002949237823486328
ell 997, elapsed: 0.0002949237823486328
ell 996, elapsed: 0.0003199577331542969
ell 995, elapsed: 0.0002930164337158203
ell 994, elapsed: 0.0002951622009277344
ell 993, elapsed: 0.00029587745666503906
ell 992, elapsed: 0.0002961158752441406
ell 991, elapsed: 0.0002989768981933594
ell 990, elapsed: 0.00029206275939941406
ell 989, elapsed: 0.0002968311309814453
ell 988, elapsed: 0.0002949237823486328
ell 987, elapsed: 0.0002999305725097656
ell 986, elapsed: 0.0002911090850830078
ell 985, elapsed: 0.00029921531677246094
ell 984, elapsed: 0.00031113624572753906
ell 983, elapsed: 0.0002949237823486328
ell 982, elapsed: 0.0003008842468261719
ell 981, elapsed: 0.0003008842468261719
ell 980, elapsed: 0.0002989768981933594
ell 979, elapsed: 0.0002961158752441406
ell 978, elapsed: 0.0002949237823486328
ell 977, elapsed: 0.0002980232238769531
ell 976, elapsed: 0.00029397010803222656
ell 975, elapsed: 0.00030303001403808594
ell 974, elapsed: 0.0002930164337158203
ell 973, elapsed: 0.00029397010803222656
ell 972, elapsed: 0.0003039836883544922
ell 971, elapsed: 0.00032711029052734375
ell 970, elapsed: 0.00030112266540527344
ell 969, elapsed: 0.0002980232238769531
ell 968, elapsed: 0.0003008842468261719
ell 967, elapsed: 0.0003120899200439453
ell 966, elapsed: 0.00029397010803222656
ell 965, elapsed: 0.0002989768981933594
ell 964, elapsed: 0.0002968311309814453
ell 963, elapsed: 0.0002970695495605469
ell 962, elapsed: 0.0003039836883544922
ell 961, elapsed: 0.0002968311309814453
ell 960, elapsed: 0.0003020763397216797
ell 959, elapsed: 0.0002951622009277344
ell 958, elapsed: 0.00033020973205566406
ell 957, elapsed: 0.00030303001403808594
ell 956, elapsed: 0.0003020763397216797
ell 955, elapsed: 0.000308990478515625
ell 954, elapsed: 0.0003008842468261719
ell 953, elapsed: 0.00029587745666503906
ell 952, elapsed: 0.000308990478515625
ell 951, elapsed: 0.0002961158752441406
ell 950, elapsed: 0.0003139972686767578
ell 949, elapsed: 0.0002911090850830078
ell 948, elapsed: 0.0002880096435546875
ell 947, elapsed: 0.00029015541076660156
ell 946, elapsed: 0.0003299713134765625
ell 945, elapsed: 0.0003020763397216797
ell 944, elapsed: 0.00029397010803222656
ell 943, elapsed: 0.0002980232238769531
ell 942, elapsed: 0.00030303001403808594
ell 941, elapsed: 0.0002970695495605469
ell 940, elapsed: 0.00030112266540527344
ell 939, elapsed: 0.00029397010803222656
ell 938, elapsed: 0.0003058910369873047
ell 937, elapsed: 0.0003209114074707031
ell 936, elapsed: 0.00030803680419921875
ell 935, elapsed: 0.0003139972686767578
ell 934, elapsed: 0.00030612945556640625
ell 933, elapsed: 0.00030803680419921875
ell 932, elapsed: 0.0002989768981933594
ell 931, elapsed: 0.0003077983856201172
ell 930, elapsed: 0.00030684471130371094
ell 929, elapsed: 0.00030684471130371094
ell 928, elapsed: 0.00030303001403808594
ell 927, elapsed: 0.00032520294189453125
ell 926, elapsed: 0.0003058910369873047
ell 925, elapsed: 0.00031495094299316406
ell 924, elapsed: 0.0003039836883544922
ell 923, elapsed: 0.00031495094299316406
ell 922, elapsed: 0.0003139972686767578
ell 921, elapsed: 0.0003409385681152344
ell 920, elapsed: 0.00031685829162597656
ell 919, elapsed: 0.00030684471130371094
ell 918, elapsed: 0.0003159046173095703
ell 917, elapsed: 0.0003058910369873047
ell 916, elapsed: 0.0003070831298828125
ell 915, elapsed: 0.0002999305725097656
ell 914, elapsed: 0.00028896331787109375
ell 913, elapsed: 0.00029587745666503906
ell 912, elapsed: 0.0002880096435546875
ell 911, elapsed: 0.0002970695495605469
ell 910, elapsed: 0.0002930164337158203
ell 909, elapsed: 0.00033092498779296875
ell 908, elapsed: 0.00029206275939941406
ell 907, elapsed: 0.0002868175506591797
ell 906, elapsed: 0.0002980232238769531
ell 905, elapsed: 0.0002899169921875
ell 904, elapsed: 0.0002830028533935547
ell 903, elapsed: 0.0003070831298828125
ell 902, elapsed: 0.00029921531677246094
ell 901, elapsed: 0.00030684471130371094
ell 900, elapsed: 0.0003020763397216797
ell 899, elapsed: 0.00029206275939941406
ell 898, elapsed: 0.00029587745666503906
ell 897, elapsed: 0.00028705596923828125
ell 896, elapsed: 0.0003249645233154297
ell 895, elapsed: 0.0002951622009277344
ell 894, elapsed: 0.0002942085266113281
ell 893, elapsed: 0.00029921531677246094
ell 892, elapsed: 0.00029587745666503906
ell 891, elapsed: 0.0003008842468261719
ell 890, elapsed: 0.0002989768981933594
ell 889, elapsed: 0.0002930164337158203
ell 888, elapsed: 0.00030112266540527344
ell 887, elapsed: 0.00029397010803222656
ell 886, elapsed: 0.0003008842468261719
ell 885, elapsed: 0.00029397010803222656
ell 884, elapsed: 0.00031304359436035156
ell 883, elapsed: 0.0003428459167480469
ell 882, elapsed: 0.0002989768981933594
ell 881, elapsed: 0.0003008842468261719
ell 880, elapsed: 0.0002930164337158203
ell 879, elapsed: 0.0002989768981933594
ell 878, elapsed: 0.0002949237823486328
ell 877, elapsed: 0.0002899169921875
ell 876, elapsed: 0.0003020763397216797
ell 875, elapsed: 0.0002961158752441406
ell 874, elapsed: 0.00029921531677246094
ell 873, elapsed: 0.0002970695495605469
ell 872, elapsed: 0.00030112266540527344
ell 871, elapsed: 0.0003268718719482422
ell 870, elapsed: 0.00030612945556640625
ell 869, elapsed: 0.000308990478515625
ell 868, elapsed: 0.0002989768981933594
ell 867, elapsed: 0.00030517578125
ell 866, elapsed: 0.0003039836883544922
ell 865, elapsed: 0.0002951622009277344
ell 864, elapsed: 0.0002999305725097656
ell 863, elapsed: 0.00029206275939941406
ell 862, elapsed: 0.0002911090850830078
ell 861, elapsed: 0.0002918243408203125
ell 860, elapsed: 0.0002880096435546875
ell 859, elapsed: 0.0003008842468261719
ell 858, elapsed: 0.00036716461181640625
ell 857, elapsed: 0.0002899169921875
ell 856, elapsed: 0.0002970695495605469
ell 855, elapsed: 0.00029397010803222656
ell 854, elapsed: 0.0002968311309814453
ell 853, elapsed: 0.0002880096435546875
ell 852, elapsed: 0.00028896331787109375
ell 851, elapsed: 0.00028896331787109375
ell 850, elapsed: 0.0002899169921875
ell 849, elapsed: 0.0002930164337158203
ell 848, elapsed: 0.0002849102020263672
ell 847, elapsed: 0.00029087066650390625
ell 846, elapsed: 0.00028705596923828125
ell 845, elapsed: 0.0003249645233154297
ell 844, elapsed: 0.0002949237823486328
ell 843, elapsed: 0.0002880096435546875
ell 842, elapsed: 0.0002918243408203125
ell 841, elapsed: 0.0002880096435546875
ell 840, elapsed: 0.00028705596923828125
ell 839, elapsed: 0.00029206275939941406
ell 838, elapsed: 0.00028586387634277344
ell 837, elapsed: 0.00029206275939941406
ell 836, elapsed: 0.000286102294921875
ell 835, elapsed: 0.0002849102020263672
ell 834, elapsed: 0.0002880096435546875
ell 833, elapsed: 0.0002830028533935547
ell 832, elapsed: 0.000308990478515625
ell 831, elapsed: 0.00028395652770996094
ell 830, elapsed: 0.0002970695495605469
ell 829, elapsed: 0.0002880096435546875
ell 828, elapsed: 0.00028705596923828125
ell 827, elapsed: 0.0002899169921875
ell 826, elapsed: 0.0002899169921875
ell 825, elapsed: 0.00028705596923828125
ell 824, elapsed: 0.00029587745666503906
ell 823, elapsed: 0.0002868175506591797
ell 822, elapsed: 0.00029206275939941406
ell 821, elapsed: 0.0002880096435546875
ell 820, elapsed: 0.00029087066650390625
ell 819, elapsed: 0.0003299713134765625
ell 818, elapsed: 0.0002849102020263672
ell 817, elapsed: 0.0002841949462890625
ell 816, elapsed: 0.00028705596923828125
ell 815, elapsed: 0.00029015541076660156
ell 814, elapsed: 0.0002980232238769531
ell 813, elapsed: 0.0002911090850830078
ell 812, elapsed: 0.0002930164337158203
ell 811, elapsed: 0.00029206275939941406
ell 810, elapsed: 0.0002989768981933594
ell 809, elapsed: 0.0002930164337158203
ell 808, elapsed: 0.0002918243408203125
ell 807, elapsed: 0.0002970695495605469
ell 806, elapsed: 0.0003209114074707031
ell 805, elapsed: 0.00029397010803222656
ell 804, elapsed: 0.00029206275939941406
ell 803, elapsed: 0.0002918243408203125
ell 802, elapsed: 0.0002930164337158203
ell 801, elapsed: 0.00029206275939941406
ell 800, elapsed: 0.00029397010803222656
ell 799, elapsed: 0.0002899169921875
ell 798, elapsed: 0.0002880096435546875
ell 797, elapsed: 0.0002911090850830078
ell 796, elapsed: 0.00028204917907714844
ell 795, elapsed: 0.000286102294921875
ell 794, elapsed: 0.00028705596923828125
ell 793, elapsed: 0.00032591819763183594
ell 792, elapsed: 0.00028014183044433594
ell 791, elapsed: 0.0002789497375488281
ell 790, elapsed: 0.00028204917907714844
ell 789, elapsed: 0.0002880096435546875
ell 788, elapsed: 0.0002899169921875
ell 787, elapsed: 0.000286102294921875
ell 786, elapsed: 0.00028896331787109375
ell 785, elapsed: 0.0002911090850830078
ell 784, elapsed: 0.0002849102020263672
ell 783, elapsed: 0.0002930164337158203
ell 782, elapsed: 0.0002911090850830078
ell 781, elapsed: 0.0002930164337158203
ell 780, elapsed: 0.00034999847412109375
ell 779, elapsed: 0.0002868175506591797
ell 778, elapsed: 0.0002949237823486328
ell 777, elapsed: 0.0002849102020263672
ell 776, elapsed: 0.00028705596923828125
ell 775, elapsed: 0.00029397010803222656
ell 774, elapsed: 0.0002849102020263672
ell 773, elapsed: 0.0002911090850830078
ell 772, elapsed: 0.00029087066650390625
ell 771, elapsed: 0.0002849102020263672
ell 770, elapsed: 0.00028896331787109375
ell 769, elapsed: 0.00028204917907714844
ell 768, elapsed: 0.0002951622009277344
ell 767, elapsed: 0.0003058910369873047
ell 766, elapsed: 0.0002808570861816406
ell 765, elapsed: 0.0002810955047607422
ell 764, elapsed: 0.0002849102020263672
ell 763, elapsed: 0.00028896331787109375
ell 762, elapsed: 0.0002849102020263672
ell 761, elapsed: 0.0002880096435546875
ell 760, elapsed: 0.000286102294921875
ell 759, elapsed: 0.000286102294921875
ell 758, elapsed: 0.0002980232238769531
ell 757, elapsed: 0.0002849102020263672
ell 756, elapsed: 0.0002930164337158203
ell 755, elapsed: 0.00029206275939941406
ell 754, elapsed: 0.00033211708068847656
ell 753, elapsed: 0.00029397010803222656
ell 752, elapsed: 0.0002880096435546875
ell 751, elapsed: 0.00028896331787109375
ell 750, elapsed: 0.0002880096435546875
ell 749, elapsed: 0.0002942085266113281
ell 748, elapsed: 0.00029015541076660156
ell 747, elapsed: 0.0002911090850830078
ell 746, elapsed: 0.00029397010803222656
ell 745, elapsed: 0.0002868175506591797
ell 744, elapsed: 0.00028395652770996094
ell 743, elapsed: 0.00028705596923828125
ell 742, elapsed: 0.0002849102020263672
ell 741, elapsed: 0.0002999305725097656
ell 740, elapsed: 0.0002810955047607422
ell 739, elapsed: 0.0002849102020263672
ell 738, elapsed: 0.00028395652770996094
ell 737, elapsed: 0.00028204917907714844
ell 736, elapsed: 0.0002818107604980469
ell 735, elapsed: 0.0002830028533935547
ell 734, elapsed: 0.0002849102020263672
ell 733, elapsed: 0.0002830028533935547
ell 732, elapsed: 0.0002818107604980469
ell 731, elapsed: 0.0002841949462890625
ell 730, elapsed: 0.00028204917907714844
ell 729, elapsed: 0.0003008842468261719
ell 728, elapsed: 0.0003070831298828125
ell 727, elapsed: 0.0002930164337158203
ell 726, elapsed: 0.0002970695495605469
ell 725, elapsed: 0.00029397010803222656
ell 724, elapsed: 0.00029587745666503906
ell 723, elapsed: 0.00029397010803222656
ell 722, elapsed: 0.0002949237823486328
ell 721, elapsed: 0.00030517578125
ell 720, elapsed: 0.0002989768981933594
ell 719, elapsed: 0.00029397010803222656
ell 718, elapsed: 0.00030612945556640625
ell 717, elapsed: 0.00031495094299316406
ell 716, elapsed: 0.00032901763916015625
ell 715, elapsed: 0.0003199577331542969
ell 714, elapsed: 0.0003249645233154297
ell 713, elapsed: 0.0002849102020263672
ell 712, elapsed: 0.000286102294921875
ell 711, elapsed: 0.00029587745666503906
ell 710, elapsed: 0.0002989768981933594
ell 709, elapsed: 0.0002968311309814453
ell 708, elapsed: 0.00029587745666503906
ell 707, elapsed: 0.0002930164337158203
ell 706, elapsed: 0.0003180503845214844
ell 705, elapsed: 0.0003311634063720703
ell 704, elapsed: 0.0003349781036376953
ell 703, elapsed: 0.0003390312194824219
ell 702, elapsed: 0.0003039836883544922
ell 701, elapsed: 0.00030493736267089844
ell 700, elapsed: 0.00029397010803222656
ell 699, elapsed: 0.0002989768981933594
ell 698, elapsed: 0.0002911090850830078
ell 697, elapsed: 0.0002989768981933594
ell 696, elapsed: 0.00029206275939941406
ell 695, elapsed: 0.0002899169921875
ell 694, elapsed: 0.0002980232238769531
ell 693, elapsed: 0.00030994415283203125
ell 692, elapsed: 0.00032591819763183594
ell 691, elapsed: 0.00035190582275390625
ell 690, elapsed: 0.0002830028533935547
ell 689, elapsed: 0.00031495094299316406
ell 688, elapsed: 0.0003070831298828125
ell 687, elapsed: 0.0002970695495605469
ell 686, elapsed: 0.0002849102020263672
ell 685, elapsed: 0.0002911090850830078
ell 684, elapsed: 0.0003039836883544922
ell 683, elapsed: 0.00029206275939941406
ell 682, elapsed: 0.0002980232238769531
ell 681, elapsed: 0.00030994415283203125
ell 680, elapsed: 0.00032520294189453125
ell 679, elapsed: 0.0003268718719482422
ell 678, elapsed: 0.0003380775451660156
ell 677, elapsed: 0.00032210350036621094
ell 676, elapsed: 0.0003058910369873047
ell 675, elapsed: 0.0002930164337158203
ell 674, elapsed: 0.00028896331787109375
ell 673, elapsed: 0.00028896331787109375
ell 672, elapsed: 0.0002880096435546875
ell 671, elapsed: 0.00028395652770996094
ell 670, elapsed: 0.000286102294921875
ell 669, elapsed: 0.00028896331787109375
ell 668, elapsed: 0.00028204917907714844
ell 667, elapsed: 0.00029206275939941406
ell 666, elapsed: 0.0003249645233154297
ell 665, elapsed: 0.0002968311309814453
ell 664, elapsed: 0.00028705596923828125
ell 663, elapsed: 0.0003108978271484375
ell 662, elapsed: 0.0003161430358886719
ell 661, elapsed: 0.00028514862060546875
ell 660, elapsed: 0.0002899169921875
ell 659, elapsed: 0.0002849102020263672
ell 658, elapsed: 0.0002899169921875
ell 657, elapsed: 0.00029397010803222656
ell 656, elapsed: 0.00029397010803222656
ell 655, elapsed: 0.0002989768981933594
ell 654, elapsed: 0.0002970695495605469
ell 653, elapsed: 0.00037407875061035156
ell 652, elapsed: 0.00029397010803222656
ell 651, elapsed: 0.00031185150146484375
ell 650, elapsed: 0.00029206275939941406
ell 649, elapsed: 0.00028395652770996094
ell 648, elapsed: 0.0002911090850830078
ell 647, elapsed: 0.0002989768981933594
ell 646, elapsed: 0.0002808570861816406
ell 645, elapsed: 0.0003070831298828125
ell 644, elapsed: 0.00029087066650390625
ell 643, elapsed: 0.00030303001403808594
ell 642, elapsed: 0.0002841949462890625
ell 641, elapsed: 0.0002810955047607422
ell 640, elapsed: 0.0003209114074707031
ell 639, elapsed: 0.00028395652770996094
ell 638, elapsed: 0.0002880096435546875
ell 637, elapsed: 0.00028705596923828125
ell 636, elapsed: 0.0002989768981933594
ell 635, elapsed: 0.00029587745666503906
ell 634, elapsed: 0.00030493736267089844
ell 633, elapsed: 0.00031685829162597656
ell 632, elapsed: 0.00030303001403808594
ell 631, elapsed: 0.0003008842468261719
ell 630, elapsed: 0.00030994415283203125
ell 629, elapsed: 0.0003008842468261719
ell 628, elapsed: 0.00030994415283203125
ell 627, elapsed: 0.000331878662109375
ell 626, elapsed: 0.00030803680419921875
ell 625, elapsed: 0.00031304359436035156
ell 624, elapsed: 0.0002999305725097656
ell 623, elapsed: 0.0003190040588378906
ell 622, elapsed: 0.0003077983856201172
ell 621, elapsed: 0.0003018379211425781
ell 620, elapsed: 0.0003139972686767578
ell 619, elapsed: 0.0003120899200439453
ell 618, elapsed: 0.0003120899200439453
ell 617, elapsed: 0.00030422210693359375
ell 616, elapsed: 0.0002989768981933594
ell 615, elapsed: 0.00035190582275390625
ell 614, elapsed: 0.0003001689910888672
ell 613, elapsed: 0.00030803680419921875
ell 612, elapsed: 0.00030493736267089844
ell 611, elapsed: 0.00030994415283203125
ell 610, elapsed: 0.0003018379211425781
ell 609, elapsed: 0.0003039836883544922
ell 608, elapsed: 0.0003039836883544922
ell 607, elapsed: 0.0002999305725097656
ell 606, elapsed: 0.0003070831298828125
ell 605, elapsed: 0.0002970695495605469
ell 604, elapsed: 0.0002970695495605469
ell 603, elapsed: 0.00034308433532714844
ell 602, elapsed: 0.0003020763397216797
ell 601, elapsed: 0.00030303001403808594
ell 600, elapsed: 0.0002961158752441406
ell 599, elapsed: 0.0002989768981933594
ell 598, elapsed: 0.0003058910369873047
ell 597, elapsed: 0.0002951622009277344
ell 596, elapsed: 0.0003018379211425781
ell 595, elapsed: 0.00030517578125
ell 594, elapsed: 0.0003058910369873047
ell 593, elapsed: 0.00031113624572753906
ell 592, elapsed: 0.00030112266540527344
ell 591, elapsed: 0.0003209114074707031
ell 590, elapsed: 0.0002999305725097656
ell 589, elapsed: 0.0002970695495605469
ell 588, elapsed: 0.0003020763397216797
ell 587, elapsed: 0.0002961158752441406
ell 586, elapsed: 0.00030303001403808594
ell 585, elapsed: 0.0002980232238769531
ell 584, elapsed: 0.0002968311309814453
ell 583, elapsed: 0.0003027915954589844
ell 582, elapsed: 0.0002951622009277344
ell 581, elapsed: 0.0003018379211425781
ell 580, elapsed: 0.0002980232238769531
ell 579, elapsed: 0.0003039836883544922
ell 578, elapsed: 0.0003399848937988281
ell 577, elapsed: 0.0002830028533935547
ell 576, elapsed: 0.0002899169921875
ell 575, elapsed: 0.0002951622009277344
ell 574, elapsed: 0.0003039836883544922
ell 573, elapsed: 0.0002989768981933594
ell 572, elapsed: 0.0002989768981933594
ell 571, elapsed: 0.00030422210693359375
ell 570, elapsed: 0.0003027915954589844
ell 569, elapsed: 0.0003108978271484375
ell 568, elapsed: 0.00030112266540527344
ell 567, elapsed: 0.0003008842468261719
ell 566, elapsed: 0.00030493736267089844
ell 565, elapsed: 0.0003170967102050781
ell 564, elapsed: 0.0003020763397216797
ell 563, elapsed: 0.00029587745666503906
ell 562, elapsed: 0.0002949237823486328
ell 561, elapsed: 0.0003020763397216797
ell 560, elapsed: 0.0002961158752441406
ell 559, elapsed: 0.00030112266540527344
ell 558, elapsed: 0.0002968311309814453
ell 557, elapsed: 0.0002930164337158203
ell 556, elapsed: 0.00030517578125
ell 555, elapsed: 0.00029587745666503906
ell 554, elapsed: 0.0003039836883544922
ell 553, elapsed: 0.00031495094299316406
ell 552, elapsed: 0.000308990478515625
ell 551, elapsed: 0.0002980232238769531
ell 550, elapsed: 0.00030303001403808594
ell 549, elapsed: 0.00030303001403808594
ell 548, elapsed: 0.0002970695495605469
ell 547, elapsed: 0.00030493736267089844
ell 546, elapsed: 0.0002949237823486328
ell 545, elapsed: 0.0003008842468261719
ell 544, elapsed: 0.0003039836883544922
ell 543, elapsed: 0.0003039836883544922
ell 542, elapsed: 0.00030612945556640625
ell 541, elapsed: 0.0003020763397216797
ell 540, elapsed: 0.0003349781036376953
ell 539, elapsed: 0.0002880096435546875
ell 538, elapsed: 0.00028204917907714844
ell 537, elapsed: 0.0002849102020263672
ell 536, elapsed: 0.00027489662170410156
ell 535, elapsed: 0.0002770423889160156
ell 534, elapsed: 0.00030803680419921875
ell 533, elapsed: 0.0003020763397216797
ell 532, elapsed: 0.0003058910369873047
ell 531, elapsed: 0.0002949237823486328
ell 530, elapsed: 0.0002989768981933594
ell 529, elapsed: 0.0003001689910888672
ell 528, elapsed: 0.00029397010803222656
ell 527, elapsed: 0.00032591819763183594
ell 526, elapsed: 0.0002961158752441406
ell 525, elapsed: 0.00029587745666503906
ell 524, elapsed: 0.0002930164337158203
ell 523, elapsed: 0.00029397010803222656
ell 522, elapsed: 0.00030112266540527344
ell 521, elapsed: 0.00029397010803222656
ell 520, elapsed: 0.0002989768981933594
ell 519, elapsed: 0.0003039836883544922
ell 518, elapsed: 0.0002951622009277344
ell 517, elapsed: 0.00030493736267089844
ell 516, elapsed: 0.0002961158752441406
ell 515, elapsed: 0.00032711029052734375
ell 514, elapsed: 0.00029206275939941406
ell 513, elapsed: 0.00029397010803222656
ell 512, elapsed: 0.0002989768981933594
ell 511, elapsed: 0.00029087066650390625
ell 510, elapsed: 0.0002951622009277344
ell 509, elapsed: 0.00029397010803222656
ell 508, elapsed: 0.0002911090850830078
ell 507, elapsed: 0.0002999305725097656
ell 506, elapsed: 0.0003001689910888672
ell 505, elapsed: 0.0002989768981933594
ell 504, elapsed: 0.0002961158752441406
ell 503, elapsed: 0.0003039836883544922
ell 502, elapsed: 0.00035309791564941406
ell 501, elapsed: 0.0002970695495605469
ell 500, elapsed: 0.00030112266540527344
ell 499, elapsed: 0.0002899169921875
ell 498, elapsed: 0.00029015541076660156
ell 497, elapsed: 0.0003070831298828125
ell 496, elapsed: 0.0002899169921875
ell 495, elapsed: 0.0002970695495605469
ell 494, elapsed: 0.00029587745666503906
ell 493, elapsed: 0.0003020763397216797
ell 492, elapsed: 0.00029397010803222656
ell 491, elapsed: 0.00029206275939941406
ell 490, elapsed: 0.0003001689910888672
ell 489, elapsed: 0.00029397010803222656
ell 488, elapsed: 0.0003020763397216797
ell 487, elapsed: 0.0002949237823486328
ell 486, elapsed: 0.0002930164337158203
ell 485, elapsed: 0.0003120899200439453
ell 484, elapsed: 0.0003018379211425781
ell 483, elapsed: 0.0003001689910888672
ell 482, elapsed: 0.0002841949462890625
ell 481, elapsed: 0.00028014183044433594
ell 480, elapsed: 0.00029587745666503906
ell 479, elapsed: 0.0002968311309814453
ell 478, elapsed: 0.00031495094299316406
ell 477, elapsed: 0.0003399848937988281
ell 476, elapsed: 0.0002980232238769531
ell 475, elapsed: 0.000308990478515625
ell 474, elapsed: 0.0002999305725097656
ell 473, elapsed: 0.0003120899200439453
ell 472, elapsed: 0.00031304359436035156
ell 471, elapsed: 0.000308990478515625
ell 470, elapsed: 0.0003161430358886719
ell 469, elapsed: 0.0003180503845214844
ell 468, elapsed: 0.0003159046173095703
ell 467, elapsed: 0.00030994415283203125
ell 466, elapsed: 0.00031280517578125
ell 465, elapsed: 0.0004551410675048828
ell 464, elapsed: 0.000308990478515625
ell 463, elapsed: 0.00030994415283203125
ell 462, elapsed: 0.0003070831298828125
ell 461, elapsed: 0.00032401084899902344
ell 460, elapsed: 0.00030994415283203125
ell 459, elapsed: 0.00031185150146484375
ell 458, elapsed: 0.00031113624572753906
ell 457, elapsed: 0.0003070831298828125
ell 456, elapsed: 0.0003170967102050781
ell 455, elapsed: 0.0003070831298828125
ell 454, elapsed: 0.00030517578125
ell 453, elapsed: 0.0003108978271484375
ell 452, elapsed: 0.000308990478515625
ell 451, elapsed: 0.0003170967102050781
ell 450, elapsed: 0.0003027915954589844
ell 449, elapsed: 0.000308990478515625
ell 448, elapsed: 0.0003039836883544922
ell 447, elapsed: 0.0003039836883544922
ell 446, elapsed: 0.00030303001403808594
ell 445, elapsed: 0.0003077983856201172
ell 444, elapsed: 0.0003070831298828125
ell 443, elapsed: 0.0003058910369873047
ell 442, elapsed: 0.00030994415283203125
ell 441, elapsed: 0.000415802001953125
ell 440, elapsed: 0.00030493736267089844
ell 439, elapsed: 0.00030803680419921875
ell 438, elapsed: 0.0003139972686767578
ell 437, elapsed: 0.0003039836883544922
ell 436, elapsed: 0.0003120899200439453
ell 435, elapsed: 0.0003018379211425781
ell 434, elapsed: 0.000308990478515625
ell 433, elapsed: 0.0003108978271484375
ell 432, elapsed: 0.00030493736267089844
ell 431, elapsed: 0.00031495094299316406
ell 430, elapsed: 0.00031495094299316406
ell 429, elapsed: 0.0003299713134765625
ell 428, elapsed: 0.0003039836883544922
ell 427, elapsed: 0.0003058910369873047
ell 426, elapsed: 0.00030612945556640625
ell 425, elapsed: 0.00029587745666503906
ell 424, elapsed: 0.0002989768981933594
ell 423, elapsed: 0.00028896331787109375
ell 422, elapsed: 0.0002880096435546875
ell 421, elapsed: 0.0002930164337158203
ell 420, elapsed: 0.0002930164337158203
ell 419, elapsed: 0.00029397010803222656
ell 418, elapsed: 0.0002949237823486328
ell 417, elapsed: 0.00031685829162597656
ell 416, elapsed: 0.0002999305725097656
ell 415, elapsed: 0.0002930164337158203
ell 414, elapsed: 0.00029206275939941406
ell 413, elapsed: 0.00028896331787109375
ell 412, elapsed: 0.00028586387634277344
ell 411, elapsed: 0.0002949237823486328
ell 410, elapsed: 0.0002911090850830078
ell 409, elapsed: 0.00029397010803222656
ell 408, elapsed: 0.00028705596923828125
ell 407, elapsed: 0.0002880096435546875
ell 406, elapsed: 0.00029206275939941406
ell 405, elapsed: 0.0002980232238769531
ell 404, elapsed: 0.00033092498779296875
ell 403, elapsed: 0.00029206275939941406
ell 402, elapsed: 0.0002930164337158203
ell 401, elapsed: 0.0002918243408203125
ell 400, elapsed: 0.00029087066650390625
ell 399, elapsed: 0.0002970695495605469
ell 398, elapsed: 0.0002930164337158203
ell 397, elapsed: 0.0002980232238769531
ell 396, elapsed: 0.00029397010803222656
ell 395, elapsed: 0.00029587745666503906
ell 394, elapsed: 0.00029206275939941406
ell 393, elapsed: 0.00029206275939941406
ell 392, elapsed: 0.0002930164337158203
ell 391, elapsed: 0.00033211708068847656
ell 390, elapsed: 0.0002930164337158203
ell 389, elapsed: 0.00029397010803222656
ell 388, elapsed: 0.0002849102020263672
ell 387, elapsed: 0.0002980232238769531
ell 386, elapsed: 0.0003039836883544922
ell 385, elapsed: 0.0002899169921875
ell 384, elapsed: 0.0002930164337158203
ell 383, elapsed: 0.00029087066650390625
ell 382, elapsed: 0.00029015541076660156
ell 381, elapsed: 0.0002892017364501953
ell 380, elapsed: 0.0002951622009277344
ell 379, elapsed: 0.0003249645233154297
ell 378, elapsed: 0.00028896331787109375
ell 377, elapsed: 0.00029015541076660156
ell 376, elapsed: 0.00028705596923828125
ell 375, elapsed: 0.00028705596923828125
ell 374, elapsed: 0.0002918243408203125
ell 373, elapsed: 0.0002810955047607422
ell 372, elapsed: 0.0003020763397216797
ell 371, elapsed: 0.0002999305725097656
ell 370, elapsed: 0.0002980232238769531
ell 369, elapsed: 0.00031495094299316406
ell 368, elapsed: 0.0003018379211425781
ell 367, elapsed: 0.00031185150146484375
ell 366, elapsed: 0.00037097930908203125
ell 365, elapsed: 0.00026607513427734375
ell 364, elapsed: 0.0002541542053222656
ell 363, elapsed: 0.00028896331787109375
ell 362, elapsed: 0.00029087066650390625
ell 361, elapsed: 0.00024890899658203125
ell 360, elapsed: 0.0002570152282714844
ell 359, elapsed: 0.00024819374084472656
ell 358, elapsed: 0.00024700164794921875
ell 357, elapsed: 0.00025177001953125
ell 356, elapsed: 0.00024890899658203125
ell 355, elapsed: 0.00025200843811035156
ell 354, elapsed: 0.000244140625
ell 353, elapsed: 0.00025010108947753906
ell 352, elapsed: 0.0003058910369873047
ell 351, elapsed: 0.000247955322265625
ell 350, elapsed: 0.00025200843811035156
ell 349, elapsed: 0.0002491474151611328
ell 348, elapsed: 0.000244140625
ell 347, elapsed: 0.0002448558807373047
ell 346, elapsed: 0.0002410411834716797
ell 345, elapsed: 0.0002560615539550781
ell 344, elapsed: 0.00024509429931640625
ell 343, elapsed: 0.00024890899658203125
ell 342, elapsed: 0.0002448558807373047
ell 341, elapsed: 0.00024580955505371094
ell 340, elapsed: 0.00025200843811035156
ell 339, elapsed: 0.00024819374084472656
ell 338, elapsed: 0.00024700164794921875
ell 337, elapsed: 0.00028395652770996094
ell 336, elapsed: 0.00031113624572753906
ell 335, elapsed: 0.00030517578125
ell 334, elapsed: 0.0002970695495605469
ell 333, elapsed: 0.0003139972686767578
ell 332, elapsed: 0.0003139972686767578
ell 331, elapsed: 0.0003120899200439453
ell 330, elapsed: 0.0003142356872558594
ell 329, elapsed: 0.0003120899200439453
ell 328, elapsed: 0.00032901763916015625
ell 327, elapsed: 0.0003170967102050781
ell 326, elapsed: 0.00031495094299316406
ell 325, elapsed: 0.00033783912658691406
ell 324, elapsed: 0.0003139972686767578
ell 323, elapsed: 0.0003190040588378906
ell 322, elapsed: 0.00030303001403808594
ell 321, elapsed: 0.0002989768981933594
ell 320, elapsed: 0.00030493736267089844
ell 319, elapsed: 0.0002980232238769531
ell 318, elapsed: 0.0003020763397216797
ell 317, elapsed: 0.0002999305725097656
ell 316, elapsed: 0.00030803680419921875
ell 315, elapsed: 0.0002989768981933594
ell 314, elapsed: 0.0002968311309814453
ell 313, elapsed: 0.0003058910369873047
ell 312, elapsed: 0.00035691261291503906
ell 311, elapsed: 0.0003199577331542969
ell 310, elapsed: 0.00030112266540527344
ell 309, elapsed: 0.00031685829162597656
ell 308, elapsed: 0.0003039836883544922
ell 307, elapsed: 0.00030994415283203125
ell 306, elapsed: 0.0002999305725097656
ell 305, elapsed: 0.0002999305725097656
ell 304, elapsed: 0.0003139972686767578
ell 303, elapsed: 0.0003170967102050781
ell 302, elapsed: 0.00030994415283203125
ell 301, elapsed: 0.0003039836883544922
ell 300, elapsed: 0.00032901763916015625
ell 299, elapsed: 0.00030994415283203125
ell 298, elapsed: 0.0003211498260498047
ell 297, elapsed: 0.00030994415283203125
ell 296, elapsed: 0.00031304359436035156
ell 295, elapsed: 0.0003070831298828125
ell 294, elapsed: 0.0003077983856201172
ell 293, elapsed: 0.0003101825714111328
ell 292, elapsed: 0.0003070831298828125
ell 291, elapsed: 0.00032711029052734375
ell 290, elapsed: 0.00030994415283203125
ell 289, elapsed: 0.0003058910369873047
ell 288, elapsed: 0.0003268718719482422
ell 287, elapsed: 0.0003070831298828125
ell 286, elapsed: 0.0003058910369873047
ell 285, elapsed: 0.0003058910369873047
ell 284, elapsed: 0.00031280517578125
ell 283, elapsed: 0.00030684471130371094
ell 282, elapsed: 0.0003039836883544922
ell 281, elapsed: 0.000308990478515625
ell 280, elapsed: 0.0003058910369873047
ell 279, elapsed: 0.0003101825714111328
ell 278, elapsed: 0.0003070831298828125
ell 277, elapsed: 0.00030803680419921875
ell 276, elapsed: 0.000347137451171875
ell 275, elapsed: 0.0002892017364501953
ell 274, elapsed: 0.0002989768981933594
ell 273, elapsed: 0.0002949237823486328
ell 272, elapsed: 0.0002949237823486328
ell 271, elapsed: 0.0002970695495605469
ell 270, elapsed: 0.0002949237823486328
ell 269, elapsed: 0.0003058910369873047
ell 268, elapsed: 0.00030303001403808594
ell 267, elapsed: 0.00029277801513671875
ell 266, elapsed: 0.00029087066650390625
ell 265, elapsed: 0.00028896331787109375
ell 264, elapsed: 0.00034308433532714844
ell 263, elapsed: 0.00030803680419921875
ell 262, elapsed: 0.0003120899200439453
ell 261, elapsed: 0.00031495094299316406
ell 260, elapsed: 0.00030803680419921875
ell 259, elapsed: 0.000308990478515625
ell 258, elapsed: 0.00031113624572753906
ell 257, elapsed: 0.00030803680419921875
ell 256, elapsed: 0.0003161430358886719
ell 255, elapsed: 0.0003058910369873047
ell 254, elapsed: 0.00031304359436035156
ell 253, elapsed: 0.0003070831298828125
ell 252, elapsed: 0.0003268718719482422
ell 251, elapsed: 0.00029397010803222656
ell 250, elapsed: 0.00029206275939941406
ell 249, elapsed: 0.0002961158752441406
ell 248, elapsed: 0.0002918243408203125
ell 247, elapsed: 0.0002961158752441406
ell 246, elapsed: 0.00029206275939941406
ell 245, elapsed: 0.0002880096435546875
ell 244, elapsed: 0.00029206275939941406
ell 243, elapsed: 0.0002930164337158203
ell 242, elapsed: 0.0002930164337158203
ell 241, elapsed: 0.0002930164337158203
ell 240, elapsed: 0.0002989768981933594
ell 239, elapsed: 0.00034618377685546875
ell 238, elapsed: 0.0003070831298828125
ell 237, elapsed: 0.00031185150146484375
ell 236, elapsed: 0.00030684471130371094
ell 235, elapsed: 0.0003039836883544922
ell 234, elapsed: 0.00030303001403808594
ell 233, elapsed: 0.0003001689910888672
ell 232, elapsed: 0.000308990478515625
ell 231, elapsed: 0.00030493736267089844
ell 230, elapsed: 0.00030612945556640625
ell 229, elapsed: 0.0003070831298828125
ell 228, elapsed: 0.00030303001403808594
ell 227, elapsed: 0.00033593177795410156
ell 226, elapsed: 0.0003108978271484375
ell 225, elapsed: 0.00031495094299316406
ell 224, elapsed: 0.0002868175506591797
ell 223, elapsed: 0.0002911090850830078
ell 222, elapsed: 0.00029015541076660156
ell 221, elapsed: 0.0002899169921875
ell 220, elapsed: 0.00028896331787109375
ell 219, elapsed: 0.00028705596923828125
ell 218, elapsed: 0.0002849102020263672
ell 217, elapsed: 0.00029587745666503906
ell 216, elapsed: 0.0002911090850830078
ell 215, elapsed: 0.0003020763397216797
ell 214, elapsed: 0.00034499168395996094
ell 213, elapsed: 0.000308990478515625
ell 212, elapsed: 0.000308990478515625
ell 211, elapsed: 0.0003058910369873047
ell 210, elapsed: 0.00031685829162597656
ell 209, elapsed: 0.00030303001403808594
ell 208, elapsed: 0.0003018379211425781
ell 207, elapsed: 0.00031495094299316406
ell 206, elapsed: 0.00030803680419921875
ell 205, elapsed: 0.00031113624572753906
ell 204, elapsed: 0.0003018379211425781
ell 203, elapsed: 0.0003039836883544922
ell 202, elapsed: 0.0003368854522705078
ell 201, elapsed: 0.00030493736267089844
ell 200, elapsed: 0.00031304359436035156
ell 199, elapsed: 0.00030803680419921875
ell 198, elapsed: 0.00030994415283203125
ell 197, elapsed: 0.0003159046173095703
ell 196, elapsed: 0.00030803680419921875
ell 195, elapsed: 0.0003058910369873047
ell 194, elapsed: 0.0002999305725097656
ell 193, elapsed: 0.00030112266540527344
ell 192, elapsed: 0.0002970695495605469
ell 191, elapsed: 0.00030493736267089844
ell 190, elapsed: 0.0003368854522705078
ell 189, elapsed: 0.0003170967102050781
ell 188, elapsed: 0.0003261566162109375
ell 187, elapsed: 0.00031304359436035156
ell 186, elapsed: 0.0003170967102050781
ell 185, elapsed: 0.00032806396484375
ell 184, elapsed: 0.0003170967102050781
ell 183, elapsed: 0.00032901763916015625
ell 182, elapsed: 0.0003199577331542969
ell 181, elapsed: 0.00031495094299316406
ell 180, elapsed: 0.0003249645233154297
ell 179, elapsed: 0.0003180503845214844
ell 178, elapsed: 0.00036406517028808594
ell 177, elapsed: 0.0003199577331542969
ell 176, elapsed: 0.0003190040588378906
ell 175, elapsed: 0.00031304359436035156
ell 174, elapsed: 0.0003039836883544922
ell 173, elapsed: 0.0003228187561035156
ell 172, elapsed: 0.0003070831298828125
ell 171, elapsed: 0.00030684471130371094
ell 170, elapsed: 0.000308990478515625
ell 169, elapsed: 0.00030612945556640625
ell 168, elapsed: 0.0003108978271484375
ell 167, elapsed: 0.00030684471130371094
ell 166, elapsed: 0.0003490447998046875
ell 165, elapsed: 0.0003218650817871094
ell 164, elapsed: 0.0003139972686767578
ell 163, elapsed: 0.0003268718719482422
ell 162, elapsed: 0.0003249645233154297
ell 161, elapsed: 0.0003371238708496094
ell 160, elapsed: 0.0003268718719482422
ell 159, elapsed: 0.00032806396484375
ell 158, elapsed: 0.0003330707550048828
ell 157, elapsed: 0.00032711029052734375
ell 156, elapsed: 0.0003218650817871094
ell 155, elapsed: 0.00035881996154785156
ell 154, elapsed: 0.0003209114074707031
ell 153, elapsed: 0.0003249645233154297
ell 152, elapsed: 0.0003190040588378906
ell 151, elapsed: 0.00032401084899902344
ell 150, elapsed: 0.0003230571746826172
ell 149, elapsed: 0.0003180503845214844
ell 148, elapsed: 0.0003249645233154297
ell 147, elapsed: 0.0002849102020263672
ell 146, elapsed: 0.0002849102020263672
ell 145, elapsed: 0.0002830028533935547
ell 144, elapsed: 0.0002789497375488281
ell 143, elapsed: 0.000286102294921875
ell 142, elapsed: 0.0002980232238769531
ell 141, elapsed: 0.00028705596923828125
ell 140, elapsed: 0.00028395652770996094
ell 139, elapsed: 0.0002810955047607422
ell 138, elapsed: 0.00028204917907714844
ell 137, elapsed: 0.0002818107604980469
ell 136, elapsed: 0.0002810955047607422
ell 135, elapsed: 0.0002770423889160156
ell 134, elapsed: 0.0002739429473876953
ell 133, elapsed: 0.0002830028533935547
ell 132, elapsed: 0.0002758502960205078
ell 131, elapsed: 0.0002789497375488281
ell 130, elapsed: 0.0002789497375488281
ell 129, elapsed: 0.00033092498779296875
ell 128, elapsed: 0.000308990478515625
ell 127, elapsed: 0.0002899169921875
ell 126, elapsed: 0.0002970695495605469
ell 125, elapsed: 0.0002880096435546875
ell 124, elapsed: 0.0002961158752441406
ell 123, elapsed: 0.00028586387634277344
ell 122, elapsed: 0.0002880096435546875
ell 121, elapsed: 0.0002961158752441406
ell 120, elapsed: 0.000286102294921875
ell 119, elapsed: 0.00029087066650390625
ell 118, elapsed: 0.00028586387634277344
ell 117, elapsed: 0.00028705596923828125
ell 116, elapsed: 0.0003418922424316406
ell 115, elapsed: 0.0003039836883544922
ell 114, elapsed: 0.000308990478515625
ell 113, elapsed: 0.00029206275939941406
ell 112, elapsed: 0.00030112266540527344
ell 111, elapsed: 0.00031495094299316406
ell 110, elapsed: 0.0003039836883544922
ell 109, elapsed: 0.000308990478515625
ell 108, elapsed: 0.0003120899200439453
ell 107, elapsed: 0.00030493736267089844
ell 106, elapsed: 0.0003101825714111328
ell 105, elapsed: 0.0003139972686767578
ell 104, elapsed: 0.0003490447998046875
ell 103, elapsed: 0.0003159046173095703
ell 102, elapsed: 0.0003159046173095703
ell 101, elapsed: 0.00030994415283203125
ell 100, elapsed: 0.0003108978271484375
ell 99, elapsed: 0.0003218650817871094
ell 98, elapsed: 0.00031304359436035156
ell 97, elapsed: 0.0003190040588378906
ell 96, elapsed: 0.00031185150146484375
ell 95, elapsed: 0.0003139972686767578
ell 94, elapsed: 0.00032019615173339844
ell 93, elapsed: 0.00031113624572753906
ell 92, elapsed: 0.0003390312194824219
ell 91, elapsed: 0.00031185150146484375
ell 90, elapsed: 0.0003139972686767578
ell 89, elapsed: 0.0003209114074707031
ell 88, elapsed: 0.00032901763916015625
ell 87, elapsed: 0.0003159046173095703
ell 86, elapsed: 0.00031304359436035156
ell 85, elapsed: 0.00031304359436035156
ell 84, elapsed: 0.0003161430358886719
ell 83, elapsed: 0.00030994415283203125
ell 82, elapsed: 0.0003161430358886719
ell 81, elapsed: 0.0003101825714111328
ell 80, elapsed: 0.0003561973571777344
ell 79, elapsed: 0.00032210350036621094
ell 78, elapsed: 0.0003211498260498047
ell 77, elapsed: 0.00032210350036621094
ell 76, elapsed: 0.00031280517578125
ell 75, elapsed: 0.0003159046173095703
ell 74, elapsed: 0.0003139972686767578
ell 73, elapsed: 0.0003108978271484375
ell 72, elapsed: 0.0003209114074707031
ell 71, elapsed: 0.0003139972686767578
ell 70, elapsed: 0.00031495094299316406
ell 69, elapsed: 0.0003437995910644531
ell 68, elapsed: 0.0003190040588378906
ell 67, elapsed: 0.00032520294189453125
ell 66, elapsed: 0.0003180503845214844
ell 65, elapsed: 0.0003190040588378906
ell 64, elapsed: 0.00031185150146484375
ell 63, elapsed: 0.0002961158752441406
ell 62, elapsed: 0.00028705596923828125
ell 61, elapsed: 0.0002751350402832031
ell 60, elapsed: 0.00027298927307128906
ell 59, elapsed: 0.0002560615539550781
ell 58, elapsed: 0.0002589225769042969
ell 57, elapsed: 0.0002720355987548828
ell 56, elapsed: 0.0002968311309814453
ell 55, elapsed: 0.00030803680419921875
ell 54, elapsed: 0.0003287792205810547
ell 53, elapsed: 0.0003199577331542969
ell 52, elapsed: 0.00032210350036621094
ell 51, elapsed: 0.00032210350036621094
ell 50, elapsed: 0.0003209114074707031
ell 49, elapsed: 0.0003139972686767578
ell 48, elapsed: 0.0003139972686767578
ell 47, elapsed: 0.0003120899200439453
ell 46, elapsed: 0.00031495094299316406
ell 45, elapsed: 0.0003159046173095703
ell 44, elapsed: 0.00036597251892089844
ell 43, elapsed: 0.0003039836883544922
ell 42, elapsed: 0.0002989768981933594
ell 41, elapsed: 0.0002999305725097656
ell 40, elapsed: 0.0003077983856201172
ell 39, elapsed: 0.0002999305725097656
ell 38, elapsed: 0.00030517578125
ell 37, elapsed: 0.0002989768981933594
ell 36, elapsed: 0.0003070831298828125
ell 35, elapsed: 0.00031304359436035156
ell 34, elapsed: 0.0003008842468261719
ell 33, elapsed: 0.00030612945556640625
ell 32, elapsed: 0.0003299713134765625
ell 31, elapsed: 0.0003120899200439453
ell 30, elapsed: 0.00031304359436035156
ell 29, elapsed: 0.0003139972686767578
ell 28, elapsed: 0.0003139972686767578
ell 27, elapsed: 0.00031495094299316406
ell 26, elapsed: 0.00031185150146484375
ell 25, elapsed: 0.0003159046173095703
ell 24, elapsed: 0.0003120899200439453
ell 23, elapsed: 0.00031495094299316406
ell 22, elapsed: 0.00031495094299316406
ell 21, elapsed: 0.0003159046173095703
ell 20, elapsed: 0.0003402233123779297
ell 19, elapsed: 0.00030303001403808594
ell 18, elapsed: 0.00030493736267089844
ell 17, elapsed: 0.00029778480529785156
ell 16, elapsed: 0.0002980232238769531
ell 15, elapsed: 0.0002999305725097656
ell 14, elapsed: 0.0002989768981933594
ell 13, elapsed: 0.0003020763397216797
ell 12, elapsed: 0.00030303001403808594
ell 11, elapsed: 0.0003101825714111328
ell 10, elapsed: 0.0002880096435546875
ell 9, elapsed: 0.0002841949462890625
ell 8, elapsed: 0.0003020763397216797
ell 7, elapsed: 0.000331878662109375
ell 6, elapsed: 0.00029397010803222656
ell 5, elapsed: 0.00030303001403808594
ell 4, elapsed: 0.00029206275939941406
ell 3, elapsed: 0.0003020763397216797
ell 2, elapsed: 0.0003058910369873047
ell 1, elapsed: 0.00031304359436035156
ell 0, elapsed: 0.00030684471130371094
  0.436839 seconds (46.03 k allocations: 3.091 MiB, 5.86% compilation time)
elapsed: 0.0003790855407714844
step:          0.047275 sec (0 allocations: 0 byte, 0.0% gc time)
swapping:      0.000459 sec (0 allocations: 0 byte, 0.0% gc time)
calc_Mellell!: 0.006212 sec (0 allocations: 0 byte, 0.0% gc time)
  t0 :  0.001424 sec (0 allocations: 0 byte, 0.0% gc time)
  tm2 : 0.070638 sec (0 allocations: 0 byte, 0.0% gc time)
  tm2s: 0.000938 sec (0 allocations: 0 byte, 0.0% gc time)
  tm4 : 0.167315 sec (0 allocations: 0 byte, 0.0% gc time)
  tp2 : 0.0 sec (0 allocations: 0 byte, 0.0% gc time)
  tp2s: 0.0 sec (0 allocations: 0 byte, 0.0% gc time)
  tp4 : 0.0 sec (0 allocations: 0 byte, 0.0% gc time)
calc_wtdll!:   0.268441 sec (9.9 k allocations: 1.047 MB, 0.0% gc time)
calc_wljj!:    0.022085 sec (689 allocations: 10.766 KB, 0.0% gc time)
mult_prefac!:  0.0 sec (0 allocations: 0 byte, 0.0% gc time)
convert:       0.0 sec (0 allocations: 0 byte, 0.0% gc time)
write:         0.028052 sec (0 allocations: 0 byte, 0.0% gc time)
test_rand_2f1: 0.0 sec (0 allocations: 0 byte, 0.0% gc time)
Closing outfile out/Ml21-cache.bin...   0.000004 seconds
  0.000402 seconds (36 allocations: 27.953 KiB)
make_phi():   0.001534 seconds (8.18 k allocations: 237.844 KiB)
  0.116198 seconds (141.90 k allocations: 3.483 MiB)
tskip:       0.001067 sec (0 allocations: 0 byte, 0.0% gc time)
tread:       0.019639 sec (17 allocations: 10.641 KB, 0.0% gc time)
tmultphi:    0.008906 sec (0 allocations: 0 byte, 0.0% gc time)
tbrfft:      0.03141 sec (0 allocations: 0 byte, 0.0% gc time)
tmultprefac: 0.017584 sec (0 allocations: 0 byte, 0.0% gc time)
toutfunc:    0.034252 sec (127.507 k allocations: 2.312 MB, 0.0% gc time)
Testing R=1.0 ... passed
Calculating fmax: 
  dlrec    = 4
  dlrecRg1 = -4
  q=1.1, R=0.9:	  0.260247 seconds (105.72 k allocations: 15.273 MiB, 6.36% gc time)

  0.260413 seconds (105.78 k allocations: 15.307 MiB, 6.35% gc time)
ℓ = 1202
Δℓ = 4
ΔℓRg1 = -4
N = 1600
q = 1.1
kmin = 1.0e-5
kmax = 100000.00000000004
χ0 = 0.023029999999999995
RR = RR.tsv
ℓmax = ℓmax.bin
f21 = f21.bin
kmin = 1.0e-5
kmax = 100000.0
dlrec    = 4
dlrecRg1 = -4
Output size: 5741568 bytes = 0.005347251892089844 GiB
Output size: 51264 bytes = 4.774332046508789e-5 GiB
Reading 'out/F21EllCache'...   0.000930 seconds (197 allocations: 84.203 KiB)
ellmax: 1202
lmaxcache: 1202
fell[:,1,1] = ComplexF64[1.3482014726274674e-57 - 3.302141236118086e-73im, 1.357860004724329e-57 - 3.3257978169518355e-73im]
ell 1202, elapsed: 1.6927719116210938e-5
ell 1201, elapsed: 0.0002789497375488281
ell 1200, elapsed: 0.00026488304138183594
ell 1199, elapsed: 0.00026607513427734375
ell 1198, elapsed: 0.00026607513427734375
ell 1002, elapsed: 0.008211135864257812
ell 1001, elapsed: 0.00027108192443847656
ell 1000, elapsed: 0.0002930164337158203
ell 999, elapsed: 0.0002598762512207031
ell 998, elapsed: 0.0002620220184326172
ell 902, elapsed: 0.0042150020599365234
ell 901, elapsed: 0.0002639293670654297
ell 900, elapsed: 0.0002579689025878906
ell 899, elapsed: 0.00026679039001464844
ell 898, elapsed: 0.00026988983154296875
ell 802, elapsed: 0.004230022430419922
ell 801, elapsed: 0.0002608299255371094
ell 800, elapsed: 0.00026297569274902344
ell 799, elapsed: 0.0002579689025878906
ell 798, elapsed: 0.00026297569274902344
ell 702, elapsed: 0.0042209625244140625
ell 701, elapsed: 0.00027179718017578125
ell 700, elapsed: 0.0003039836883544922
ell 699, elapsed: 0.00026798248291015625
ell 698, elapsed: 0.0002651214599609375
ell 602, elapsed: 0.0042951107025146484
ell 601, elapsed: 0.00027298927307128906
ell 600, elapsed: 0.00026297569274902344
ell 599, elapsed: 0.0002541542053222656
ell 598, elapsed: 0.0002570152282714844
ell 502, elapsed: 0.004211902618408203
ell 501, elapsed: 0.00027108192443847656
ell 500, elapsed: 0.0002651214599609375
ell 499, elapsed: 0.00026702880859375
ell 498, elapsed: 0.00026702880859375
ell 402, elapsed: 0.00418400764465332
ell 401, elapsed: 0.0002868175506591797
ell 400, elapsed: 0.0002582073211669922
ell 399, elapsed: 0.00026106834411621094
ell 398, elapsed: 0.0002548694610595703
ell 302, elapsed: 0.004128932952880859
ell 301, elapsed: 0.0002579689025878906
ell 300, elapsed: 0.00025200843811035156
ell 299, elapsed: 0.0002529621124267578
ell 298, elapsed: 0.0002529621124267578
ell 202, elapsed: 0.00409698486328125
ell 201, elapsed: 0.00025391578674316406
ell 200, elapsed: 0.0002510547637939453
ell 199, elapsed: 0.00024890899658203125
ell 198, elapsed: 0.00024890899658203125
ell 152, elapsed: 0.002138853073120117
ell 151, elapsed: 0.0002532005310058594
ell 150, elapsed: 0.0002498626708984375
ell 149, elapsed: 0.0002498626708984375
ell 148, elapsed: 0.0002570152282714844
ell 127, elapsed: 0.0011019706726074219
ell 126, elapsed: 0.0002911090850830078
ell 125, elapsed: 0.00025391578674316406
ell 124, elapsed: 0.0002529621124267578
ell 123, elapsed: 0.00025200843811035156
ell 114, elapsed: 0.0006210803985595703
ell 113, elapsed: 0.0002548694610595703
ell 112, elapsed: 0.0002498626708984375
ell 111, elapsed: 0.0002510547637939453
ell 110, elapsed: 0.00025200843811035156
ell 102, elapsed: 0.0005779266357421875
ell 101, elapsed: 0.00025010108947753906
ell 100, elapsed: 0.0002598762512207031
ell 99, elapsed: 0.0002808570861816406
ell 98, elapsed: 0.0002529621124267578
ell 97, elapsed: 0.0002980232238769531
ell 96, elapsed: 0.0002899169921875
ell 95, elapsed: 0.0003020763397216797
ell 94, elapsed: 0.0003020763397216797
ell 93, elapsed: 0.00030803680419921875
ell 92, elapsed: 0.00029587745666503906
ell 91, elapsed: 0.0002980232238769531
ell 90, elapsed: 0.00030803680419921875
ell 89, elapsed: 0.0003008842468261719
ell 88, elapsed: 0.0003039836883544922
ell 87, elapsed: 0.00030422210693359375
ell 86, elapsed: 0.00034117698669433594
ell 85, elapsed: 0.0003020763397216797
ell 84, elapsed: 0.0002999305725097656
ell 83, elapsed: 0.0003139972686767578
ell 82, elapsed: 0.0003058910369873047
ell 81, elapsed: 0.00028896331787109375
ell 80, elapsed: 0.000308990478515625
ell 79, elapsed: 0.0003020763397216797
ell 78, elapsed: 0.0003120899200439453
ell 77, elapsed: 0.0003027915954589844
ell 76, elapsed: 0.0003039836883544922
ell 75, elapsed: 0.00030684471130371094
ell 74, elapsed: 0.00034999847412109375
ell 73, elapsed: 0.00029206275939941406
ell 72, elapsed: 0.0002880096435546875
ell 71, elapsed: 0.00029587745666503906
ell 70, elapsed: 0.0002899169921875
ell 69, elapsed: 0.0002880096435546875
ell 68, elapsed: 0.0002930164337158203
ell 67, elapsed: 0.00029015541076660156
ell 66, elapsed: 0.0002980232238769531
ell 65, elapsed: 0.00029397010803222656
ell 64, elapsed: 0.000286102294921875
ell 63, elapsed: 0.0002930164337158203
ell 62, elapsed: 0.00029087066650390625
ell 61, elapsed: 0.0003490447998046875
ell 60, elapsed: 0.00028896331787109375
ell 59, elapsed: 0.0003027915954589844
ell 58, elapsed: 0.0003020763397216797
ell 57, elapsed: 0.00030612945556640625
ell 56, elapsed: 0.00031113624572753906
ell 55, elapsed: 0.00030994415283203125
ell 54, elapsed: 0.0003001689910888672
ell 53, elapsed: 0.0002989768981933594
ell 52, elapsed: 0.00030112266540527344
ell 51, elapsed: 0.0003120899200439453
ell 50, elapsed: 0.00030994415283203125
ell 49, elapsed: 0.00032210350036621094
ell 48, elapsed: 0.0003039836883544922
ell 47, elapsed: 0.0002999305725097656
ell 46, elapsed: 0.0003199577331542969
ell 45, elapsed: 0.00030303001403808594
ell 44, elapsed: 0.0002949237823486328
ell 43, elapsed: 0.00030684471130371094
ell 42, elapsed: 0.00029587745666503906
ell 41, elapsed: 0.00030803680419921875
ell 40, elapsed: 0.00030612945556640625
ell 39, elapsed: 0.0003018379211425781
ell 38, elapsed: 0.00030303001403808594
ell 37, elapsed: 0.0003199577331542969
ell 36, elapsed: 0.0003077983856201172
ell 35, elapsed: 0.0003008842468261719
ell 34, elapsed: 0.00030303001403808594
ell 33, elapsed: 0.0003101825714111328
ell 32, elapsed: 0.0002970695495605469
ell 31, elapsed: 0.0003199577331542969
ell 30, elapsed: 0.0003039836883544922
ell 29, elapsed: 0.00030112266540527344
ell 28, elapsed: 0.00030112266540527344
ell 27, elapsed: 0.0003001689910888672
ell 26, elapsed: 0.000308990478515625
ell 25, elapsed: 0.00029587745666503906
ell 24, elapsed: 0.0003578662872314453
ell 23, elapsed: 0.0002989768981933594
ell 22, elapsed: 0.00030303001403808594
ell 21, elapsed: 0.0003070831298828125
ell 20, elapsed: 0.0002989768981933594
ell 19, elapsed: 0.0003120899200439453
ell 18, elapsed: 0.00030112266540527344
ell 17, elapsed: 0.0003001689910888672
ell 16, elapsed: 0.0003139972686767578
ell 15, elapsed: 0.0003008842468261719
ell 14, elapsed: 0.00030994415283203125
ell 13, elapsed: 0.000308990478515625
ell 12, elapsed: 0.0003230571746826172
ell 11, elapsed: 0.0003077983856201172
ell 10, elapsed: 0.0002999305725097656
ell 9, elapsed: 0.0003058910369873047
ell 8, elapsed: 0.00030493736267089844
ell 7, elapsed: 0.00030303001403808594
ell 6, elapsed: 0.0003039836883544922
ell 5, elapsed: 0.0003018379211425781
ell 4, elapsed: 0.0003058910369873047
ell 3, elapsed: 0.0002989768981933594
ell 2, elapsed: 0.00030112266540527344
ell 1, elapsed: 0.00030803680419921875
ell 0, elapsed: 0.00034499168395996094
  0.094353 seconds (11.51 k allocations: 719.594 KiB)
elapsed: 0.0003750324249267578
step:          0.047665 sec (0 allocations: 0 byte, 0.0% gc time)
swapping:      0.000316 sec (0 allocations: 0 byte, 0.0% gc time)
calc_Mellell!: 0.000825 sec (0 allocations: 0 byte, 0.0% gc time)
  t0 :  0.000217 sec (0 allocations: 0 byte, 0.0% gc time)
  tm2 : 0.009762 sec (0 allocations: 0 byte, 0.0% gc time)
  tm2s: 0.000152 sec (0 allocations: 0 byte, 0.0% gc time)
  tm4 : 0.023391 sec (0 allocations: 0 byte, 0.0% gc time)
  tp2 : 0.0 sec (0 allocations: 0 byte, 0.0% gc time)
  tp2s: 0.0 sec (0 allocations: 0 byte, 0.0% gc time)
  tp4 : 0.0 sec (0 allocations: 0 byte, 0.0% gc time)
calc_wtdll!:   0.033862 sec (1.344 k allocations: 147.0 KB, 0.0% gc time)
calc_wljj!:    0.002111 sec (6 allocations: 96 byte, 0.0% gc time)
mult_prefac!:  0.0 sec (0 allocations: 0 byte, 0.0% gc time)
convert:       0.0 sec (0 allocations: 0 byte, 0.0% gc time)
write:         0.002724 sec (0 allocations: 0 byte, 0.0% gc time)
test_rand_2f1: 0.0 sec (0 allocations: 0 byte, 0.0% gc time)
Closing outfile out/Ml21-cache.bin...   0.000007 seconds
  0.000415 seconds (36 allocations: 27.953 KiB)
make_phi():   0.001529 seconds (8.18 k allocations: 237.844 KiB)
  0.010862 seconds (11.65 k allocations: 308.688 KiB)
tskip:       1.9e-5 sec (0 allocations: 0 byte, 0.0% gc time)
tread:       0.001908 sec (17 allocations: 2.125 KB, 0.0% gc time)
tmultphi:    0.000913 sec (0 allocations: 0 byte, 0.0% gc time)
tbrfft:      0.002877 sec (0 allocations: 0 byte, 0.0% gc time)
tmultprefac: 0.001645 sec (0 allocations: 0 byte, 0.0% gc time)
toutfunc:    0.003258 sec (10.304 k allocations: 196.0 KB, 0.0% gc time)
Testing R=0.9 ... passed
Calculating fmax: 
  dlrec    = 4
  dlrecRg1 = -4
  q=1.1, R=0.8:	  0.196013 seconds (103.21 k allocations: 14.840 MiB)

  0.196160 seconds (103.26 k allocations: 14.874 MiB)
ℓ = 1202
Δℓ = 4
ΔℓRg1 = -4
N = 1600
q = 1.1
kmin = 1.0e-5
kmax = 100000.00000000004
χ0 = 0.023029999999999995
RR = RR.tsv
ℓmax = ℓmax.bin
f21 = f21.bin
kmin = 1.0e-5
kmax = 100000.0
dlrec    = 4
dlrecRg1 = -4
Output size: 5741568 bytes = 0.005347251892089844 GiB
Output size: 51264 bytes = 4.774332046508789e-5 GiB
Reading 'out/F21EllCache'...   0.000864 seconds (197 allocations: 84.203 KiB)
ellmax: 1202
lmaxcache: 1202
fell[:,1,1] = ComplexF64[7.519068145690986e-120 - 1.8416405474382574e-135im, 7.541664537386155e-120 - 1.847175067190611e-135im]
ell 1202, elapsed: 1.9073486328125e-5
ell 1201, elapsed: 0.0003159046173095703
ell 1200, elapsed: 0.00028705596923828125
ell 1199, elapsed: 0.0002810955047607422
ell 1198, elapsed: 0.0002779960632324219
ell 1002, elapsed: 0.008332967758178711
ell 1001, elapsed: 0.0002701282501220703
ell 1000, elapsed: 0.0002810955047607422
ell 999, elapsed: 0.0002579689025878906
ell 998, elapsed: 0.0002639293670654297
ell 902, elapsed: 0.0041961669921875
ell 901, elapsed: 0.0002567768096923828
ell 900, elapsed: 0.0002579689025878906
ell 899, elapsed: 0.0002560615539550781
ell 898, elapsed: 0.0002560615539550781
ell 802, elapsed: 0.004121065139770508
ell 801, elapsed: 0.0002598762512207031
ell 800, elapsed: 0.00026297569274902344
ell 799, elapsed: 0.00025582313537597656
ell 798, elapsed: 0.0002579689025878906
ell 702, elapsed: 0.004104137420654297
ell 701, elapsed: 0.0002579689025878906
ell 700, elapsed: 0.0002880096435546875
ell 699, elapsed: 0.0002560615539550781
ell 698, elapsed: 0.00025200843811035156
ell 602, elapsed: 0.0041429996490478516
ell 601, elapsed: 0.0002620220184326172
ell 600, elapsed: 0.0002529621124267578
ell 599, elapsed: 0.00025391578674316406
ell 598, elapsed: 0.0002601146697998047
ell 502, elapsed: 0.004180908203125
ell 501, elapsed: 0.00026297569274902344
ell 500, elapsed: 0.0002620220184326172
ell 499, elapsed: 0.0002560615539550781
ell 498, elapsed: 0.0002560615539550781
ell 402, elapsed: 0.004128932952880859
ell 401, elapsed: 0.0002598762512207031
ell 400, elapsed: 0.0002639293670654297
ell 399, elapsed: 0.00030803680419921875
ell 398, elapsed: 0.0002620220184326172
ell 302, elapsed: 0.004136085510253906
ell 301, elapsed: 0.0002510547637939453
ell 300, elapsed: 0.00025200843811035156
ell 299, elapsed: 0.0002551078796386719
ell 298, elapsed: 0.0002510547637939453
ell 202, elapsed: 0.003957986831665039
ell 201, elapsed: 0.00025200843811035156
ell 200, elapsed: 0.000244140625
ell 199, elapsed: 0.0002460479736328125
ell 198, elapsed: 0.000244140625
ell 152, elapsed: 0.002138853073120117
ell 151, elapsed: 0.00024700164794921875
ell 150, elapsed: 0.00024700164794921875
ell 149, elapsed: 0.00025391578674316406
ell 148, elapsed: 0.00025200843811035156
ell 127, elapsed: 0.001077890396118164
ell 126, elapsed: 0.0002510547637939453
ell 125, elapsed: 0.0002498626708984375
ell 124, elapsed: 0.0002560615539550781
ell 123, elapsed: 0.00028586387634277344
ell 114, elapsed: 0.0006330013275146484
ell 113, elapsed: 0.0002551078796386719
ell 112, elapsed: 0.0002529621124267578
ell 111, elapsed: 0.0002601146697998047
ell 110, elapsed: 0.00025391578674316406
ell 102, elapsed: 0.0005850791931152344
ell 101, elapsed: 0.00026297569274902344
ell 100, elapsed: 0.0002551078796386719
ell 99, elapsed: 0.00026297569274902344
ell 98, elapsed: 0.0002548694610595703
ell 97, elapsed: 0.0002989768981933594
ell 96, elapsed: 0.00030612945556640625
ell 95, elapsed: 0.0003077983856201172
ell 94, elapsed: 0.00030684471130371094
ell 93, elapsed: 0.000308990478515625
ell 92, elapsed: 0.0002999305725097656
ell 91, elapsed: 0.00031304359436035156
ell 90, elapsed: 0.0003020763397216797
ell 89, elapsed: 0.0002989768981933594
ell 88, elapsed: 0.00030684471130371094
ell 87, elapsed: 0.0002989768981933594
ell 86, elapsed: 0.00030493736267089844
ell 85, elapsed: 0.0002999305725097656
ell 84, elapsed: 0.0003180503845214844
ell 83, elapsed: 0.0002999305725097656
ell 82, elapsed: 0.0002970695495605469
ell 81, elapsed: 0.00030493736267089844
ell 80, elapsed: 0.0002970695495605469
ell 79, elapsed: 0.0003001689910888672
ell 78, elapsed: 0.0002989768981933594
ell 77, elapsed: 0.00029397010803222656
ell 76, elapsed: 0.0003039836883544922
ell 75, elapsed: 0.00030112266540527344
ell 74, elapsed: 0.00030112266540527344
ell 73, elapsed: 0.0002999305725097656
ell 72, elapsed: 0.0002961158752441406
ell 71, elapsed: 0.00032401084899902344
ell 70, elapsed: 0.00029587745666503906
ell 69, elapsed: 0.00029206275939941406
ell 68, elapsed: 0.00029397010803222656
ell 67, elapsed: 0.0002930164337158203
ell 66, elapsed: 0.00029015541076660156
ell 65, elapsed: 0.00029397010803222656
ell 64, elapsed: 0.0002989768981933594
ell 63, elapsed: 0.0002980232238769531
ell 62, elapsed: 0.0002970695495605469
ell 61, elapsed: 0.00029397010803222656
ell 60, elapsed: 0.0002961158752441406
ell 59, elapsed: 0.00030303001403808594
ell 58, elapsed: 0.0003151893615722656
ell 57, elapsed: 0.0002989768981933594
ell 56, elapsed: 0.0002949237823486328
[...]
ell 782, elapsed: 0.0010039806365966797
ell 781, elapsed: 0.0005209445953369141
ell 780, elapsed: 0.0005300045013427734
ell 779, elapsed: 0.0006208419799804688
ell 778, elapsed: 0.0005362033843994141
ell 772, elapsed: 0.0009620189666748047
ell 771, elapsed: 0.0005300045013427734
ell 770, elapsed: 0.0005400180816650391
ell 769, elapsed: 0.0005469322204589844
ell 768, elapsed: 0.0005409717559814453
ell 762, elapsed: 0.0011038780212402344
ell 761, elapsed: 0.0005350112915039062
ell 760, elapsed: 0.0005629062652587891
ell 759, elapsed: 0.0005500316619873047
ell 758, elapsed: 0.0005729198455810547
ell 752, elapsed: 0.0010800361633300781
ell 751, elapsed: 0.00048804283142089844
ell 750, elapsed: 0.0004968643188476562
ell 749, elapsed: 0.0004849433898925781
ell 748, elapsed: 0.000492095947265625
ell 742, elapsed: 0.0008919239044189453
ell 741, elapsed: 0.0005369186401367188
ell 740, elapsed: 0.004246950149536133
ell 739, elapsed: 0.0005538463592529297
ell 738, elapsed: 0.00055694580078125
ell 732, elapsed: 0.0010020732879638672
ell 731, elapsed: 0.0005550384521484375
ell 730, elapsed: 0.0005550384521484375
ell 729, elapsed: 0.0006821155548095703
ell 728, elapsed: 0.0005679130554199219
ell 722, elapsed: 0.0009851455688476562
ell 721, elapsed: 0.0005490779876708984
ell 720, elapsed: 0.0005660057067871094
ell 719, elapsed: 0.0005488395690917969
ell 718, elapsed: 0.0006661415100097656
ell 712, elapsed: 0.0010039806365966797
ell 711, elapsed: 0.0005512237548828125
ell 710, elapsed: 0.0005588531494140625
ell 709, elapsed: 0.0005548000335693359
ell 708, elapsed: 0.0005679130554199219
ell 702, elapsed: 0.001172780990600586
ell 701, elapsed: 0.0005450248718261719
ell 700, elapsed: 0.0005559921264648438
ell 699, elapsed: 0.000553131103515625
ell 698, elapsed: 0.0005629062652587891
ell 692, elapsed: 0.0010259151458740234
ell 691, elapsed: 0.00055694580078125
ell 690, elapsed: 0.0005638599395751953
ell 689, elapsed: 0.0005698204040527344
ell 688, elapsed: 0.0005621910095214844
ell 682, elapsed: 0.0010149478912353516
ell 681, elapsed: 0.0005869865417480469
ell 680, elapsed: 0.0005779266357421875
ell 679, elapsed: 0.0005598068237304688
ell 678, elapsed: 0.0005609989166259766
ell 672, elapsed: 0.0010120868682861328
ell 671, elapsed: 0.0005471706390380859
ell 670, elapsed: 0.0005941390991210938
ell 669, elapsed: 0.0005660057067871094
ell 668, elapsed: 0.0005679130554199219
ell 662, elapsed: 0.0010349750518798828
ell 661, elapsed: 0.0005359649658203125
ell 660, elapsed: 0.0005540847778320312
ell 659, elapsed: 0.0005919933319091797
ell 658, elapsed: 0.0005719661712646484
ell 652, elapsed: 0.0010020732879638672
ell 651, elapsed: 0.0005488395690917969
ell 650, elapsed: 0.0005838871002197266
ell 649, elapsed: 0.0005731582641601562
ell 648, elapsed: 0.0006210803985595703
ell 642, elapsed: 0.001024007797241211
ell 641, elapsed: 0.0005691051483154297
ell 640, elapsed: 0.0005779266357421875
ell 639, elapsed: 0.0005671977996826172
ell 638, elapsed: 0.0005538463592529297
ell 632, elapsed: 0.0010459423065185547
ell 631, elapsed: 0.0005469322204589844
ell 630, elapsed: 0.0005609989166259766
ell 629, elapsed: 0.0005581378936767578
ell 628, elapsed: 0.0005600452423095703
ell 622, elapsed: 0.0010139942169189453
ell 621, elapsed: 0.0006129741668701172
ell 620, elapsed: 0.0005729198455810547
ell 619, elapsed: 0.0005540847778320312
ell 618, elapsed: 0.0005719661712646484
ell 612, elapsed: 0.001013040542602539
ell 611, elapsed: 0.0005669593811035156
ell 610, elapsed: 0.0006508827209472656
ell 609, elapsed: 0.0005438327789306641
ell 608, elapsed: 0.0005409717559814453
ell 602, elapsed: 0.0009908676147460938
ell 601, elapsed: 0.0005450248718261719
ell 600, elapsed: 0.0005500316619873047
ell 599, elapsed: 0.0042841434478759766
ell 598, elapsed: 0.0006220340728759766
ell 592, elapsed: 0.0010230541229248047
ell 591, elapsed: 0.0005481243133544922
ell 590, elapsed: 0.0005741119384765625
ell 589, elapsed: 0.00057220458984375
ell 588, elapsed: 0.0005991458892822266
ell 582, elapsed: 0.0010111331939697266
ell 581, elapsed: 0.0005629062652587891
ell 580, elapsed: 0.0005528926849365234
ell 579, elapsed: 0.0005459785461425781
ell 578, elapsed: 0.0005700588226318359
ell 572, elapsed: 0.0010561943054199219
ell 571, elapsed: 0.0005500316619873047
ell 570, elapsed: 0.0005650520324707031
ell 569, elapsed: 0.0005619525909423828
ell 568, elapsed: 0.0005660057067871094
ell 562, elapsed: 0.0009980201721191406
ell 561, elapsed: 0.0005970001220703125
ell 560, elapsed: 0.0005900859832763672
ell 559, elapsed: 0.0005788803100585938
ell 558, elapsed: 0.0005831718444824219
ell 552, elapsed: 0.0010709762573242188
ell 551, elapsed: 0.0005459785461425781
ell 550, elapsed: 0.0006029605865478516
ell 549, elapsed: 0.0005879402160644531
ell 548, elapsed: 0.0005660057067871094
ell 542, elapsed: 0.0009870529174804688
ell 541, elapsed: 0.0005631446838378906
ell 540, elapsed: 0.0005660057067871094
ell 539, elapsed: 0.0005919933319091797
ell 538, elapsed: 0.0005631446838378906
ell 532, elapsed: 0.0010290145874023438
ell 531, elapsed: 0.0005650520324707031
ell 530, elapsed: 0.0005559921264648438
ell 529, elapsed: 0.0005691051483154297
ell 528, elapsed: 0.0006139278411865234
ell 522, elapsed: 0.0010387897491455078
ell 521, elapsed: 0.0005528926849365234
ell 520, elapsed: 0.0005679130554199219
ell 519, elapsed: 0.0005638599395751953
ell 518, elapsed: 0.0005729198455810547
ell 512, elapsed: 0.0010349750518798828
ell 511, elapsed: 0.0005190372467041016
ell 510, elapsed: 0.0005509853363037109
ell 509, elapsed: 0.0005409717559814453
ell 508, elapsed: 0.0005540847778320312
ell 502, elapsed: 0.0010068416595458984
ell 501, elapsed: 0.0005509853363037109
ell 500, elapsed: 0.0005600452423095703
ell 499, elapsed: 0.0005481243133544922
ell 498, elapsed: 0.0005331039428710938
ell 492, elapsed: 0.0009658336639404297
ell 491, elapsed: 0.0006089210510253906
ell 490, elapsed: 0.0005691051483154297
ell 489, elapsed: 0.0005509853363037109
ell 488, elapsed: 0.0005671977996826172
ell 482, elapsed: 0.0010101795196533203
ell 481, elapsed: 0.0005509853363037109
ell 480, elapsed: 0.0006620883941650391
ell 479, elapsed: 0.0005631446838378906
ell 478, elapsed: 0.0005528926849365234
ell 472, elapsed: 0.0009770393371582031
ell 471, elapsed: 0.0005409717559814453
ell 470, elapsed: 0.0005459785461425781
ell 469, elapsed: 0.0005729198455810547
ell 468, elapsed: 0.0005440711975097656
ell 462, elapsed: 0.0009779930114746094
ell 461, elapsed: 0.0005319118499755859
ell 460, elapsed: 0.0005509853363037109
ell 459, elapsed: 0.0005388259887695312
ell 458, elapsed: 0.0005481243133544922
ell 452, elapsed: 0.0010068416595458984
ell 451, elapsed: 0.0005319118499755859
ell 450, elapsed: 0.0005590915679931641
ell 449, elapsed: 0.0005450248718261719
ell 448, elapsed: 0.000553131103515625
ell 442, elapsed: 0.001020193099975586
ell 441, elapsed: 0.0005519390106201172
ell 440, elapsed: 0.0005512237548828125
ell 439, elapsed: 0.000553131103515625
ell 438, elapsed: 0.0005588531494140625
ell 432, elapsed: 0.0010018348693847656
ell 431, elapsed: 0.0005691051483154297
ell 430, elapsed: 0.0004949569702148438
ell 429, elapsed: 0.0004851818084716797
ell 428, elapsed: 0.0004930496215820312
ell 422, elapsed: 0.0008280277252197266
ell 421, elapsed: 0.000476837158203125
ell 420, elapsed: 0.0005228519439697266
ell 419, elapsed: 0.0005691051483154297
ell 418, elapsed: 0.0005619525909423828
ell 412, elapsed: 0.001001119613647461
ell 411, elapsed: 0.0005509853363037109
ell 410, elapsed: 0.0005550384521484375
ell 409, elapsed: 0.0005519390106201172
ell 408, elapsed: 0.0006787776947021484
ell 402, elapsed: 0.0009829998016357422
ell 401, elapsed: 0.0005519390106201172
ell 400, elapsed: 0.0005528926849365234
ell 399, elapsed: 0.0005450248718261719
ell 398, elapsed: 0.0005509853363037109
ell 392, elapsed: 0.001013040542602539
ell 391, elapsed: 0.0005400180816650391
ell 390, elapsed: 0.00055694580078125
ell 389, elapsed: 0.0005362033843994141
ell 388, elapsed: 0.0005528926849365234
ell 382, elapsed: 0.0010111331939697266
ell 381, elapsed: 0.0005888938903808594
ell 380, elapsed: 0.0005521774291992188
ell 379, elapsed: 0.0005450248718261719
ell 378, elapsed: 0.0005469322204589844
ell 372, elapsed: 0.0009741783142089844
ell 371, elapsed: 0.0005359649658203125
ell 370, elapsed: 0.0005710124969482422
ell 369, elapsed: 0.0005371570587158203
ell 368, elapsed: 0.0005390644073486328
ell 362, elapsed: 0.0009398460388183594
ell 361, elapsed: 0.0005168914794921875
ell 360, elapsed: 0.0005359649658203125
ell 359, elapsed: 0.0005359649658203125
ell 358, elapsed: 0.0005550384521484375
ell 352, elapsed: 0.0009670257568359375
ell 351, elapsed: 0.0005221366882324219
ell 350, elapsed: 0.00055694580078125
ell 349, elapsed: 0.000537872314453125
ell 348, elapsed: 0.0005369186401367188
ell 342, elapsed: 0.0010628700256347656
ell 341, elapsed: 0.0005168914794921875
ell 340, elapsed: 0.0005400180816650391
ell 339, elapsed: 0.0005249977111816406
ell 338, elapsed: 0.0005440711975097656
ell 332, elapsed: 0.0009479522705078125
ell 331, elapsed: 0.000518798828125
ell 330, elapsed: 0.0005338191986083984
ell 329, elapsed: 0.0005199909210205078
ell 328, elapsed: 0.0005359649658203125
ell 322, elapsed: 0.0009691715240478516
ell 321, elapsed: 0.0005209445953369141
ell 320, elapsed: 0.0005419254302978516
ell 319, elapsed: 0.0005230903625488281
ell 318, elapsed: 0.0005290508270263672
ell 312, elapsed: 0.0009360313415527344
ell 311, elapsed: 0.0005328655242919922
ell 310, elapsed: 0.0005331039428710938
ell 309, elapsed: 0.0005350112915039062
ell 308, elapsed: 0.0005719661712646484
ell 302, elapsed: 0.0009510517120361328
ell 301, elapsed: 0.0005311965942382812
ell 300, elapsed: 0.0005419254302978516
ell 299, elapsed: 0.0005390644073486328
ell 298, elapsed: 0.0005431175231933594
ell 292, elapsed: 0.0009441375732421875
ell 291, elapsed: 0.0005340576171875
ell 290, elapsed: 0.0005519390106201172
ell 289, elapsed: 0.0005390644073486328
ell 288, elapsed: 0.0005481243133544922
ell 282, elapsed: 0.0009801387786865234
ell 281, elapsed: 0.0005829334259033203
ell 280, elapsed: 0.0005669593811035156
ell 279, elapsed: 0.0005500316619873047
ell 278, elapsed: 0.0005509853363037109
ell 272, elapsed: 0.0010008811950683594
ell 271, elapsed: 0.0005509853363037109
ell 270, elapsed: 0.0005931854248046875
ell 269, elapsed: 0.0005459785461425781
ell 268, elapsed: 0.000553131103515625
ell 262, elapsed: 0.0009920597076416016
ell 261, elapsed: 0.0005519390106201172
ell 260, elapsed: 0.0005679130554199219
ell 259, elapsed: 0.0006060600280761719
ell 258, elapsed: 0.0005578994750976562
ell 252, elapsed: 0.000965118408203125
ell 251, elapsed: 0.0005340576171875
ell 250, elapsed: 0.0005478858947753906
ell 249, elapsed: 0.0005409717559814453
ell 248, elapsed: 0.0005698204040527344
ell 242, elapsed: 0.0009789466857910156
ell 241, elapsed: 0.0005350112915039062
ell 240, elapsed: 0.0005459785461425781
ell 239, elapsed: 0.0005419254302978516
ell 238, elapsed: 0.0005490779876708984
ell 232, elapsed: 0.0009570121765136719
ell 231, elapsed: 0.0004811286926269531
ell 230, elapsed: 0.0004839897155761719
ell 229, elapsed: 0.0004699230194091797
ell 228, elapsed: 0.0004799365997314453
ell 222, elapsed: 0.0008521080017089844
ell 221, elapsed: 0.000476837158203125
ell 220, elapsed: 0.0006380081176757812
ell 219, elapsed: 0.0005528926849365234
ell 218, elapsed: 0.0005550384521484375
ell 212, elapsed: 0.0009849071502685547
ell 211, elapsed: 0.0005509853363037109
ell 210, elapsed: 0.0005300045013427734
ell 209, elapsed: 0.0005609989166259766
ell 208, elapsed: 0.0005540847778320312
ell 202, elapsed: 0.0009849071502685547
ell 201, elapsed: 0.0005540847778320312
ell 200, elapsed: 0.0005578994750976562
ell 199, elapsed: 0.0005471706390380859
ell 198, elapsed: 0.0005910396575927734
ell 192, elapsed: 0.0009829998016357422
ell 191, elapsed: 0.0005481243133544922
ell 190, elapsed: 0.0005640983581542969
ell 189, elapsed: 0.0005409717559814453
ell 188, elapsed: 0.0005528926849365234
ell 182, elapsed: 0.000985860824584961
ell 181, elapsed: 0.0005528926849365234
ell 180, elapsed: 0.0005629062652587891
ell 179, elapsed: 0.0005528926849365234
ell 178, elapsed: 0.0005559921264648438
ell 172, elapsed: 0.0009751319885253906
ell 171, elapsed: 0.0005769729614257812
ell 170, elapsed: 0.0005469322204589844
ell 169, elapsed: 0.0005459785461425781
ell 168, elapsed: 0.0005619525909423828
ell 162, elapsed: 0.0009849071502685547
ell 161, elapsed: 0.0005421638488769531
ell 160, elapsed: 0.0006060600280761719
ell 159, elapsed: 0.0005419254302978516
ell 158, elapsed: 0.0005488395690917969
ell 152, elapsed: 0.0009970664978027344
ell 151, elapsed: 0.0005450248718261719
ell 150, elapsed: 0.0005640983581542969
ell 149, elapsed: 0.0005609989166259766
ell 148, elapsed: 0.0005600452423095703
ell 142, elapsed: 0.0009949207305908203
ell 141, elapsed: 0.0005540847778320312
ell 140, elapsed: 0.0005629062652587891
ell 139, elapsed: 0.0005490779876708984
ell 138, elapsed: 0.0005540847778320312
ell 132, elapsed: 0.0010988712310791016
ell 131, elapsed: 0.0005340576171875
ell 130, elapsed: 0.0005588531494140625
ell 129, elapsed: 0.0005519390106201172
ell 128, elapsed: 0.000553131103515625
ell 122, elapsed: 0.0009589195251464844
ell 121, elapsed: 0.0005528926849365234
ell 120, elapsed: 0.0005640983581542969
ell 119, elapsed: 0.0005590915679931641
ell 118, elapsed: 0.0005609989166259766
ell 112, elapsed: 0.0009760856628417969
ell 111, elapsed: 0.0005888938903808594
ell 110, elapsed: 0.0005619525909423828
ell 109, elapsed: 0.0005550384521484375
ell 108, elapsed: 0.0005650520324707031
ell 102, elapsed: 0.0009889602661132812
ell 101, elapsed: 0.002351045608520508
ell 100, elapsed: 0.0023550987243652344
ell 99, elapsed: 0.002393007278442383
ell 98, elapsed: 0.0023899078369140625
ell 92, elapsed: 0.004958152770996094
ell 91, elapsed: 0.0023610591888427734
ell 90, elapsed: 0.0023119449615478516
ell 89, elapsed: 0.0023679733276367188
ell 88, elapsed: 0.002290010452270508
ell 82, elapsed: 0.004483938217163086
ell 81, elapsed: 0.002290964126586914
ell 80, elapsed: 0.006379127502441406
ell 79, elapsed: 0.0023059844970703125
ell 78, elapsed: 0.0022950172424316406
ell 72, elapsed: 0.004730939865112305
ell 71, elapsed: 0.002438783645629883
ell 70, elapsed: 0.002312898635864258
ell 69, elapsed: 0.002332925796508789
ell 68, elapsed: 0.002295970916748047
ell 62, elapsed: 0.004544973373413086
ell 61, elapsed: 0.0023419857025146484
ell 60, elapsed: 0.0023469924926757812
ell 59, elapsed: 0.0022971630096435547
ell 58, elapsed: 0.0023338794708251953
ell 52, elapsed: 0.004500865936279297
ell 51, elapsed: 0.0023660659790039062
ell 50, elapsed: 0.0023059844970703125
ell 49, elapsed: 0.002331972122192383
ell 48, elapsed: 0.002317190170288086
ell 42, elapsed: 0.004548072814941406
ell 41, elapsed: 0.002410888671875
ell 40, elapsed: 0.0023391246795654297
ell 39, elapsed: 0.0023069381713867188
ell 38, elapsed: 0.0023469924926757812
ell 32, elapsed: 0.004539012908935547
ell 31, elapsed: 0.0023620128631591797
ell 30, elapsed: 0.0022940635681152344
ell 29, elapsed: 0.0023479461669921875
ell 28, elapsed: 0.0022749900817871094
ell 22, elapsed: 0.004460811614990234
ell 21, elapsed: 0.002287149429321289
ell 20, elapsed: 0.002276897430419922
ell 19, elapsed: 0.002260923385620117
ell 18, elapsed: 0.002276897430419922
ell 12, elapsed: 0.004290103912353516
ell 11, elapsed: 0.0021209716796875
ell 10, elapsed: 0.0022499561309814453
ell 9, elapsed: 0.0022950172424316406
ell 8, elapsed: 0.0022618770599365234
  0.530120 seconds (68.56 k allocations: 12.176 MiB)
elapsed: 0.0027618408203125
step:          0.047816 sec (0 allocations: 0 byte, 0.0% gc time)
swapping:      0.000386 sec (0 allocations: 0 byte, 0.0% gc time)
calc_Mellell!: 0.024331 sec (0 allocations: 0 byte, 0.0% gc time)
  t0 :  0.007467 sec (0 allocations: 0 byte, 0.0% gc time)
  tm2 : 0.051941 sec (0 allocations: 0 byte, 0.0% gc time)
  tm2s: 0.005853 sec (0 allocations: 0 byte, 0.0% gc time)
  tm4 : 0.125023 sec (0 allocations: 0 byte, 0.0% gc time)
  tp2 : 0.0 sec (0 allocations: 0 byte, 0.0% gc time)
  tp2s: 0.0 sec (0 allocations: 0 byte, 0.0% gc time)
  tp4 : 0.0 sec (0 allocations: 0 byte, 0.0% gc time)
calc_wtdll!:   0.384568 sec (48.6 k allocations: 11.096 MB, 0.0% gc time)
calc_wljj!:    0.021736 sec (69 allocations: 1.078 KB, 0.0% gc time)
mult_prefac!:  0.0 sec (0 allocations: 0 byte, 0.0% gc time)
convert:       0.0 sec (0 allocations: 0 byte, 0.0% gc time)
write:         0.024138 sec (0 allocations: 0 byte, 0.0% gc time)
test_rand_2f1: 0.0 sec (0 allocations: 0 byte, 0.0% gc time)
Closing outfile out/MlCache/MlCache.bin...   0.000008 seconds
xi, l=0, nu=0:   0.201138 seconds (602.95 k allocations: 32.977 MiB, 99.42% compilation time)
xi, l=0, nu=-2:  0.000957 seconds (114 allocations: 148.969 KiB)
Created 'out/xi.tsv'.
  q=1.1, R=0.6:	  0.361984 seconds (264.58 k allocations: 38.109 MiB, 3.07% gc time)
  q=1.1, R=0.7:	  0.437337 seconds (276.43 k allocations: 40.113 MiB, 2.63% gc time)
  q=1.1, R=0.8:	  0.432790 seconds (271.87 k allocations: 39.334 MiB, 1.51% gc time)
  q=1.1, R=0.9:	  0.493898 seconds (266.68 k allocations: 38.464 MiB, 1.09% gc time)
  q=1.1, R=0.998:	 13.740099 seconds (114.96 k allocations: 7.588 MiB)
  q=1.1, R=1.0:	  0.003004 seconds (8.20 k allocations: 704.344 KiB)

ℓ = 1000
Δℓ = 4
ΔℓRg1 = -4
N = 4096
q = 1.1
kmin = 1.0e-5
kmax = 1000.0
χ0 = 0.001
RR = RR.tsv
ℓmax = ℓmax.bin
f21 = f21.bin
kmin = 1.0e-5
kmax = 1000.0
dlrec    = 4
dlrecRg1 = -4
Output size: 1573632 bytes = 0.0014655590057373047 GiB
Output size: 786816 bytes = 0.0007327795028686523 GiB
Reading 'out/F21EllCache'...   0.001066 seconds (198 allocations: 533.078 KiB)
ellmax: 1002
lmaxcache: 1000
fell[:,1,1] = ComplexF64[1.726292812820208e-224 - 4.2281979352226965e-240im, 1.7282693092099638e-224 - 4.233038955177178e-240im]
ell 1002, elapsed: 3.2901763916015625e-5
ell 1001, elapsed: 0.000492095947265625
ell 1000, elapsed: 0.0006699562072753906
ell 999, elapsed: 0.0042989253997802734
ell 998, elapsed: 0.0040569305419921875
ell 44, elapsed: 0.581610918045044
ell 43, elapsed: 0.003899097442626953
ell 42, elapsed: 0.003963947296142578
ell 41, elapsed: 0.0038881301879882812
ell 40, elapsed: 0.0038738250732421875
  0.611662 seconds (4.59 k allocations: 322.266 KiB)
elapsed: 0.0045549869537353516
step:          0.579888 sec (0 allocations: 0 byte, 0.0% gc time)
swapping:      0.000375 sec (0 allocations: 0 byte, 0.0% gc time)
calc_Mellell!: 0.00081 sec (0 allocations: 0 byte, 0.0% gc time)
  t0 :  0.000363 sec (0 allocations: 0 byte, 0.0% gc time)
  tm2 : 0.007506 sec (0 allocations: 0 byte, 0.0% gc time)
  tm2s: 0.000306 sec (0 allocations: 0 byte, 0.0% gc time)
  tm4 : 0.018328 sec (0 allocations: 0 byte, 0.0% gc time)
  tp2 : 0.0 sec (0 allocations: 0 byte, 0.0% gc time)
  tp2s: 0.0 sec (0 allocations: 0 byte, 0.0% gc time)
  tp4 : 0.0 sec (0 allocations: 0 byte, 0.0% gc time)
calc_wtdll!:   0.026643 sec (480 allocations: 52.5 KB, 0.0% gc time)
calc_wljj!:    0.000703 sec (1 allocations: 16 byte, 0.0% gc time)
mult_prefac!:  0.0 sec (0 allocations: 0 byte, 0.0% gc time)
convert:       0.0 sec (0 allocations: 0 byte, 0.0% gc time)
write:         0.000869 sec (0 allocations: 0 byte, 0.0% gc time)
test_rand_2f1: 0.0 sec (0 allocations: 0 byte, 0.0% gc time)
Closing outfile out/MlCache/MlCache.bin...   0.000005 seconds
  0.385606 seconds (38 allocations: 66.859 KiB)
make_phi():   0.006412 seconds (65 allocations: 275.984 KiB)
  0.043849 seconds (11.42 k allocations: 711.960 KiB, 92.63% compilation time)
tskip:       0.0 sec (0 allocations: 0 byte, 0.0% gc time)
tread:       0.000528 sec (17 allocations: 1.266 KB, 0.0% gc time)
tmultphi:    0.000242 sec (0 allocations: 0 byte, 0.0% gc time)
tbrfft:      0.000952 sec (0 allocations: 0 byte, 0.0% gc time)
tmultprefac: 0.00045 sec (0 allocations: 0 byte, 0.0% gc time)
toutfunc:    0.000111 sec (0 allocations: 0 byte, 0.0% gc time)
Created 'out/wl42_jj00.tsv'.
Created 'out/wl42_jj02.tsv'.
    Testing TwoFAST tests passed 
