Julia Version 1.6.0-DEV.1153
Commit 0669b64613 (2020-10-07 09:01 UTC)
Platform Info:
  OS: Linux (x86_64-linux-gnu)
  CPU: AMD EPYC 7502 32-Core Processor
  WORD_SIZE: 64
  LIBM: libopenlibm
  LLVM: libLLVM-10.0.1 (ORCJIT, znver2)
Environment:
  JULIA_DEPOT_PATH = ::/usr/local/share/julia
  JULIA_NUM_THREADS = 2

  Resolving package versions...
  Installed FFTW_jll ───────────────────── v3.3.9+5
  Installed IntelOpenMP_jll ────────────── v2018.0.3+0
  Installed MKL_jll ────────────────────── v2020.2.254+0
  Installed Readables ──────────────────── v0.3.3
  Installed AbstractFFTs ───────────────── v0.5.0
  Installed FFTW ───────────────────────── v1.2.4
  Installed BinaryProvider ─────────────── v0.5.10
  Installed GenericSchur ───────────────── v0.4.0
  Installed Reexport ───────────────────── v0.2.0
  Installed CompilerSupportLibraries_jll ─ v0.3.3+0
  Installed OpenSpecFun_jll ────────────── v0.5.3+3
  Installed GenericSVD ─────────────────── v0.3.0
  Installed SpecialFunctions ───────────── v0.10.3
  Installed ArbNumerics ────────────────── v1.2.1
  Installed TwoFAST ────────────────────── v0.1.3
Updating `~/.julia/environments/v1.6/Project.toml`
  [0dd23c3e] + TwoFAST v0.1.3
Updating `~/.julia/environments/v1.6/Manifest.toml`
  [621f4979] + AbstractFFTs v0.5.0
  [7e558dbc] + ArbNumerics v1.2.1
  [b99e7846] + BinaryProvider v0.5.10
  [e66e0078] + CompilerSupportLibraries_jll v0.3.3+0
  [7a1cc6ca] + FFTW v1.2.4
  [f5851436] + FFTW_jll v3.3.9+5
  [01680d73] + GenericSVD v0.3.0
  [c145ed77] + GenericSchur v0.4.0
  [1d5cc7b8] + IntelOpenMP_jll v2018.0.3+0
  [856f044c] + MKL_jll v2020.2.254+0
  [efe28fd5] + OpenSpecFun_jll v0.5.3+3
  [0d4725de] + Readables v0.3.3
  [189a3867] + Reexport v0.2.0
  [276daf66] + SpecialFunctions v0.10.3
  [0dd23c3e] + TwoFAST v0.1.3
  [56f22d72] + Artifacts
  [2a0f44e3] + Base64
  [ade2ca70] + Dates
  [8bb1440f] + DelimitedFiles
  [b77e0a4c] + InteractiveUtils
  [76f85450] + LibGit2
  [8f399da3] + Libdl
  [37e2e46d] + LinearAlgebra
  [56ddb016] + Logging
  [d6f4376e] + Markdown
  [a63ad114] + Mmap
  [44cfe95a] + Pkg
  [de0858da] + Printf
  [3fa0cd96] + REPL
  [9a3f8284] + Random
  [ea8e919c] + SHA
  [9e88b42a] + Serialization
  [6462fe0b] + Sockets
  [fa267f1f] + TOML
  [8dfed614] + Test
  [cf7118a7] + UUIDs
  [4ec0a83e] + Unicode
   Building FFTW ───────→ `~/.julia/scratchspaces/44cfe95a-1eb2-52ea-b672-e2afdf69b78f/8b7c16b56936047ca41bf25effa137ae0b381ae8/build.log`
   Building ArbNumerics → `~/.julia/scratchspaces/44cfe95a-1eb2-52ea-b672-e2afdf69b78f/329a81d67c64e3a51c176a243b6424fbe39213d0/build.log`
    Testing TwoFAST
Status `/tmp/jl_pnhOA0/Project.toml`
  [7e558dbc] ArbNumerics v1.2.1
  [39dd38d3] Dierckx v0.5.0
  [7a1cc6ca] FFTW v1.2.4
  [276daf66] SpecialFunctions v0.10.3
  [0dd23c3e] TwoFAST v0.1.3
  [8bb1440f] DelimitedFiles
  [37e2e46d] LinearAlgebra
  [56ddb016] Logging
  [8dfed614] Test
Status `/tmp/jl_pnhOA0/Manifest.toml`
  [621f4979] AbstractFFTs v0.5.0
  [7e558dbc] ArbNumerics v1.2.1
  [b99e7846] BinaryProvider v0.5.10
  [e66e0078] CompilerSupportLibraries_jll v0.3.3+0
  [39dd38d3] Dierckx v0.5.0
  [cd4c43a9] Dierckx_jll v0.0.1+0
  [7a1cc6ca] FFTW v1.2.4
  [f5851436] FFTW_jll v3.3.9+5
  [01680d73] GenericSVD v0.3.0
  [c145ed77] GenericSchur v0.4.0
  [1d5cc7b8] IntelOpenMP_jll v2018.0.3+0
  [856f044c] MKL_jll v2020.2.254+0
  [efe28fd5] OpenSpecFun_jll v0.5.3+3
  [0d4725de] Readables v0.3.3
  [189a3867] Reexport v0.2.0
  [276daf66] SpecialFunctions v0.10.3
  [0dd23c3e] TwoFAST v0.1.3
  [56f22d72] Artifacts
  [2a0f44e3] Base64
  [ade2ca70] Dates
  [8bb1440f] DelimitedFiles
  [b77e0a4c] InteractiveUtils
  [76f85450] LibGit2
  [8f399da3] Libdl
  [37e2e46d] LinearAlgebra
  [56ddb016] Logging
  [d6f4376e] Markdown
  [a63ad114] Mmap
  [44cfe95a] Pkg
  [de0858da] Printf
  [3fa0cd96] REPL
  [9a3f8284] Random
  [ea8e919c] SHA
  [9e88b42a] Serialization
  [6462fe0b] Sockets
  [fa267f1f] TOML
  [8dfed614] Test
  [cf7118a7] UUIDs
  [4ec0a83e] Unicode
    Testing Running tests...
WARNING: could not import Printf.ini_hex into ArbNumerics
WARNING: could not import Printf.ini_HEX into ArbNumerics
t = 0.0 sec (0 allocations: 0 byte, 0.0% gc time)
typeof(t) = NamedTuple{(:value, :time, :bytes, :gctime, :gcstats), Tuple{DataType, Float64, Int64, Float64, Base.GC_Diff}}
TwoFAST.PerformanceStats.TimedType = Union{NamedTuple{(:value, :time, :bytes, :gctime, :gcstats), Tuple{T, Float64, Int64, Float64, Base.GC_Diff}}, Tuple{Any, Float64, Int64, Float64, Base.GC_Diff}} where T
t = 0.0 sec (0 allocations: 0 byte, 0.0% gc time)
t: 0.0 sec (0 allocations: 0 byte, 0.0% gc time)
Testing ξ(r), ℓ=0, ν=-1 ... passed
Testing ξ(r), ℓ=0, ν=0 ... passed
Testing ξ(r), ℓ=0, ν=1 ... passed
Testing ξ(r), ℓ=0, ν=2 ... passed
Testing ξ(r), ℓ=0, ν=3 ... passed
Testing ξ(r), ℓ=1, ν=0 ... passed
Testing ξ(r), ℓ=1, ν=1 ... passed
Testing ξ(r), ℓ=1, ν=2 ... passed
Testing ξ(r), ℓ=1, ν=3 ... passed
Testing ξ(r), ℓ=2, ν=-1 ... passed
Testing ξ(r), ℓ=2, ν=0 ... passed
Testing ξ(r), ℓ=2, ν=1 ... passed
Testing ξ(r), ℓ=2, ν=2 ... passed
Testing ξ(r), ℓ=2, ν=3 ... passed
Testing ξ(r), ℓ=3, ν=-1 ... passed
Testing ξ(r), ℓ=3, ν=0 ... passed
Testing ξ(r), ℓ=3, ν=1 ... passed
Testing ξ(r), ℓ=3, ν=2 ... passed
Testing ξ(r), ℓ=3, ν=3 ... passed
Testing ξ(r), ℓ=4, ν=-1 ... passed
Testing ξ(r), ℓ=4, ν=0 ... passed
Testing ξ(r), ℓ=4, ν=1 ... passed
Testing ξ(r), ℓ=4, ν=2 ... passed
Testing ξ(r), ℓ=4, ν=3 ... passed
Testing ξ(r) ... passed
Testing ξ′(r) ... passed
Testing ξ″(r) ... passed
Calculating fmax: 
  dlrec    = 4
  dlrecRg1 = -4
  q=1.1, R=1.1:	  3.584458 seconds (843.38 k allocations: 53.931 MiB, 3.24% gc time, 91.34% compilation time)

  3.597758 seconds (855.88 k allocations: 54.719 MiB, 3.23% gc time, 91.37% compilation time)
ℓ = 1202
Δℓ = 4
ΔℓRg1 = -4
N = 1600
q = 1.1
kmin = 1.0e-5
kmax = 100000.00000000004
χ0 = 0.023029999999999995
RR = RR.tsv
ℓmax = ℓmax.bin
f21 = f21.bin
kmin = 1.0e-5
kmax = 100000.0
dlrec    = 4
dlrecRg1 = -4
Output size: 5741568 bytes = 0.005347251892089844 GiB
Output size: 51264 bytes = 4.774332046508789e-5 GiB
Reading 'out/F21EllCache'...   0.637855 seconds (426.51 k allocations: 24.999 MiB, 99.22% compilation time)
ellmax: 1202
lmaxcache: 1202
fell[:,1,1] = ComplexF64[3.9583795592771634e-52 - 9.695233714158177e-68im, 3.990121772925759e-52 - 9.772979714843386e-68im]
ell 1202, elapsed: 4.315376281738281e-5
ell 1201, elapsed: 1.17250394821167
ell 1200, elapsed: 0.00043010711669921875
ell 1199, elapsed: 0.0003859996795654297
ell 1198, elapsed: 0.0003859996795654297
ell 1002, elapsed: 0.008426904678344727
ell 1001, elapsed: 0.0004088878631591797
ell 1000, elapsed: 0.00039386749267578125
ell 999, elapsed: 0.00039196014404296875
ell 998, elapsed: 0.00039505958557128906
ell 902, elapsed: 0.00445103645324707
ell 901, elapsed: 0.0004019737243652344
ell 900, elapsed: 0.0003921985626220703
ell 899, elapsed: 0.0003941059112548828
ell 898, elapsed: 0.00039386749267578125
ell 802, elapsed: 0.0044040679931640625
ell 801, elapsed: 0.0004069805145263672
ell 800, elapsed: 0.0003910064697265625
ell 799, elapsed: 0.000392913818359375
ell 798, elapsed: 0.000392913818359375
ell 702, elapsed: 0.004455089569091797
ell 701, elapsed: 0.0004029273986816406
ell 700, elapsed: 0.00038695335388183594
ell 699, elapsed: 0.00038886070251464844
ell 698, elapsed: 0.00039005279541015625
ell 602, elapsed: 0.004403829574584961
ell 601, elapsed: 0.00039696693420410156
ell 600, elapsed: 0.00038504600524902344
ell 599, elapsed: 0.0003848075866699219
ell 598, elapsed: 0.000431060791015625
ell 502, elapsed: 0.004333019256591797
ell 501, elapsed: 0.0003998279571533203
ell 500, elapsed: 0.00039196014404296875
ell 499, elapsed: 0.0003981590270996094
ell 498, elapsed: 0.0003879070281982422
ell 402, elapsed: 0.006577014923095703
ell 401, elapsed: 0.00041413307189941406
ell 400, elapsed: 0.0004029273986816406
ell 399, elapsed: 0.00040411949157714844
ell 398, elapsed: 0.0003941059112548828
ell 302, elapsed: 0.004534006118774414
ell 301, elapsed: 0.00039196014404296875
ell 300, elapsed: 0.0003800392150878906
ell 299, elapsed: 0.00041413307189941406
ell 298, elapsed: 0.00039505958557128906
ell 202, elapsed: 0.004514217376708984
ell 201, elapsed: 0.00041604042053222656
ell 200, elapsed: 0.0004088878631591797
ell 199, elapsed: 0.0004050731658935547
ell 198, elapsed: 0.0004010200500488281
ell 152, elapsed: 0.002434968948364258
ell 151, elapsed: 0.0004029273986816406
ell 150, elapsed: 0.00039386749267578125
ell 149, elapsed: 0.0004029273986816406
ell 148, elapsed: 0.0003960132598876953
ell 127, elapsed: 0.0013380050659179688
ell 126, elapsed: 0.00039005279541015625
ell 125, elapsed: 0.0003859996795654297
ell 124, elapsed: 0.00039005279541015625
ell 123, elapsed: 0.00038886070251464844
ell 114, elapsed: 0.000804901123046875
ell 113, elapsed: 0.000392913818359375
ell 112, elapsed: 0.00039196014404296875
ell 111, elapsed: 0.0004401206970214844
ell 110, elapsed: 0.00039696693420410156
ell 102, elapsed: 0.0007429122924804688
ell 101, elapsed: 0.00039386749267578125
ell 100, elapsed: 0.0003910064697265625
ell 99, elapsed: 0.00039005279541015625
ell 98, elapsed: 0.00038886070251464844
ell 97, elapsed: 0.0004551410675048828
ell 96, elapsed: 0.0004401206970214844
ell 95, elapsed: 0.0004520416259765625
ell 94, elapsed: 0.0004360675811767578
ell 93, elapsed: 0.0004420280456542969
ell 92, elapsed: 0.00043010711669921875
ell 91, elapsed: 0.000431060791015625
ell 90, elapsed: 0.0004391670227050781
ell 89, elapsed: 0.0004298686981201172
ell 88, elapsed: 0.0004489421844482422
ell 87, elapsed: 0.00055694580078125
ell 86, elapsed: 0.0004360675811767578
ell 85, elapsed: 0.0004429817199707031
ell 84, elapsed: 0.0004420280456542969
ell 83, elapsed: 0.00045990943908691406
ell 82, elapsed: 0.0004439353942871094
ell 81, elapsed: 0.0004391670227050781
ell 80, elapsed: 0.0004558563232421875
ell 79, elapsed: 0.00044989585876464844
ell 78, elapsed: 0.0004429817199707031
ell 77, elapsed: 0.0004379749298095703
ell 76, elapsed: 0.0004489421844482422
ell 75, elapsed: 0.0004429817199707031
ell 74, elapsed: 0.0004470348358154297
ell 73, elapsed: 0.0004439353942871094
ell 72, elapsed: 0.00044989585876464844
ell 71, elapsed: 0.0004429817199707031
ell 70, elapsed: 0.0004849433898925781
ell 69, elapsed: 0.00043392181396484375
ell 68, elapsed: 0.00043582916259765625
ell 67, elapsed: 0.0004379749298095703
ell 66, elapsed: 0.0004401206970214844
ell 65, elapsed: 0.00043892860412597656
ell 64, elapsed: 0.00043511390686035156
ell 63, elapsed: 0.0004489421844482422
ell 62, elapsed: 0.00043487548828125
ell 61, elapsed: 0.00048804283142089844
ell 60, elapsed: 0.0004470348358154297
ell 59, elapsed: 0.00045013427734375
ell 58, elapsed: 0.00044083595275878906
ell 57, elapsed: 0.0004360675811767578
ell 56, elapsed: 0.0004429817199707031
ell 55, elapsed: 0.0004451274871826172
ell 54, elapsed: 0.0004379749298095703
ell 53, elapsed: 0.0004718303680419922
ell 52, elapsed: 0.00044608116149902344
ell 51, elapsed: 0.0004620552062988281
ell 50, elapsed: 0.0004451274871826172
ell 49, elapsed: 0.0004451274871826172
ell 48, elapsed: 0.00044608116149902344
ell 47, elapsed: 0.0004420280456542969
ell 46, elapsed: 0.00044083595275878906
ell 45, elapsed: 0.00043892860412597656
ell 44, elapsed: 0.0004839897155761719
ell 43, elapsed: 0.0004379749298095703
ell 42, elapsed: 0.00043487548828125
ell 41, elapsed: 0.00044989585876464844
ell 40, elapsed: 0.00043582916259765625
ell 39, elapsed: 0.0004439353942871094
ell 38, elapsed: 0.00043892860412597656
ell 37, elapsed: 0.0004417896270751953
ell 36, elapsed: 0.00047206878662109375
ell 35, elapsed: 0.0004420280456542969
ell 34, elapsed: 0.0004420280456542969
ell 33, elapsed: 0.00044083595275878906
ell 32, elapsed: 0.0004401206970214844
ell 31, elapsed: 0.00043892860412597656
ell 30, elapsed: 0.00044083595275878906
ell 29, elapsed: 0.0004429817199707031
ell 28, elapsed: 0.0004439353942871094
ell 27, elapsed: 0.00047087669372558594
ell 26, elapsed: 0.00042700767517089844
ell 25, elapsed: 0.0004189014434814453
ell 24, elapsed: 0.00043201446533203125
ell 23, elapsed: 0.0004401206970214844
ell 22, elapsed: 0.0004379749298095703
ell 21, elapsed: 0.00047588348388671875
ell 20, elapsed: 0.0004489421844482422
ell 19, elapsed: 0.00048804283142089844
ell 18, elapsed: 0.0004630088806152344
ell 17, elapsed: 0.00043702125549316406
ell 16, elapsed: 0.0004401206970214844
ell 15, elapsed: 0.0004451274871826172
ell 14, elapsed: 0.0004401206970214844
ell 13, elapsed: 0.0004470348358154297
ell 12, elapsed: 0.0004451274871826172
ell 11, elapsed: 0.0004451274871826172
ell 10, elapsed: 0.00046896934509277344
ell 9, elapsed: 0.0004391670227050781
ell 8, elapsed: 0.0004429817199707031
ell 7, elapsed: 0.00043487548828125
ell 6, elapsed: 0.0004420280456542969
ell 5, elapsed: 0.0004379749298095703
ell 4, elapsed: 0.00043511390686035156
ell 3, elapsed: 0.00043511390686035156
ell 2, elapsed: 0.0004329681396484375
ell 1, elapsed: 0.0004858970642089844
ell 0, elapsed: 0.0004329681396484375
  1.690414 seconds (1.38 M allocations: 74.487 MiB, 2.49% gc time, 92.76% compilation time)
elapsed: 0.0005290508270263672
step:          0.329193 sec (311.126 k allocations: 16.964 MB, 6.07% gc time)
swapping:      0.000345 sec (0 allocations: 0 byte, 0.0% gc time)
calc_Mellell!: 0.129423 sec (135.732 k allocations: 7.432 MB, 0.0% gc time)
  t0 :  0.0 sec (0 allocations: 0 byte, 0.0% gc time)
  tm2 : 0.0 sec (0 allocations: 0 byte, 0.0% gc time)
  tm2s: 0.0 sec (0 allocations: 0 byte, 0.0% gc time)
  tm4 : 0.0 sec (0 allocations: 0 byte, 0.0% gc time)
  tp2 : 0.0 sec (0 allocations: 0 byte, 0.0% gc time)
  tp2s: 0.0 sec (0 allocations: 0 byte, 0.0% gc time)
  tp4 : 0.0 sec (0 allocations: 0 byte, 0.0% gc time)
calc_wtdll!:   0.818502 sec (509.624 k allocations: 28.198 MB, 0.0% gc time)
calc_wljj!:    0.002356 sec (6 allocations: 96 byte, 0.0% gc time)
mult_prefac!:  0.0 sec (0 allocations: 0 byte, 0.0% gc time)
convert:       0.0 sec (0 allocations: 0 byte, 0.0% gc time)
write:         0.003223 sec (0 allocations: 0 byte, 0.0% gc time)
test_rand_2f1: 0.0 sec (0 allocations: 0 byte, 0.0% gc time)
Closing outfile out/Ml21-cache.bin...   0.000012 seconds
  0.931086 seconds (246.13 k allocations: 14.201 MiB, 41.52% compilation time)
make_phi():   0.013510 seconds (8.18 k allocations: 237.844 KiB)
  0.260025 seconds (87.57 k allocations: 4.750 MiB, 94.55% compilation time)
tskip:       1.7e-5 sec (0 allocations: 0 byte, 0.0% gc time)
tread:       0.002034 sec (17 allocations: 2.125 KB, 0.0% gc time)
tmultphi:    0.062408 sec (21.425 k allocations: 1.287 MB, 0.0% gc time)
tbrfft:      0.003131 sec (0 allocations: 0 byte, 0.0% gc time)
tmultprefac: 0.001667 sec (0 allocations: 0 byte, 0.0% gc time)
toutfunc:    0.155131 sec (64.484 k allocations: 3.331 MB, 0.0% gc time)
Testing R=1.1 ... passed
Calculating fmax: 
  dlrec    = 4
  dlrecRg1 = -4
  q=1.1, R=1.0:	  0.001465 seconds (3.20 k allocations: 275.344 KiB)

  0.001605 seconds (3.25 k allocations: 310.312 KiB)
ℓ = 1202
Δℓ = 4
ΔℓRg1 = -4
N = 1600
q = 1.1
kmin = 1.0e-5
kmax = 100000.00000000004
χ0 = 0.023029999999999995
RR = RR.tsv
ℓmax = ℓmax.bin
f21 = f21.bin
kmin = 1.0e-5
kmax = 100000.0
dlrec    = 4
dlrecRg1 = -4
Output size: 61465536 bytes = 0.05724424123764038 GiB
Output size: 51264 bytes = 4.774332046508789e-5 GiB
Reading 'out/F21EllCache'...   0.001149 seconds (197 allocations: 84.203 KiB)
ellmax: 1202
lmaxcache: 1202
fell[:,1,1] = ComplexF64[809.6031528389767 - 1.9829558194077161e-13im, 0.0 + 0.0im]
ell 1202, elapsed: 8.702278137207031e-5
ell 1201, elapsed: 0.015703916549682617
ell 1200, elapsed: 0.014514923095703125
ell 1199, elapsed: 0.00030994415283203125
ell 1198, elapsed: 0.00028395652770996094
ell 1197, elapsed: 0.0003581047058105469
ell 1196, elapsed: 0.0003070831298828125
ell 1195, elapsed: 0.00030303001403808594
ell 1194, elapsed: 0.00030493736267089844
ell 1193, elapsed: 0.00031113624572753906
ell 1192, elapsed: 0.00030612945556640625
ell 1191, elapsed: 0.0003161430358886719
ell 1190, elapsed: 0.00031495094299316406
ell 1189, elapsed: 0.00031495094299316406
ell 1188, elapsed: 0.0003058910369873047
ell 1187, elapsed: 0.000370025634765625
ell 1186, elapsed: 0.00031185150146484375
ell 1185, elapsed: 0.00031185150146484375
ell 1184, elapsed: 0.0003058910369873047
ell 1183, elapsed: 0.00030493736267089844
ell 1182, elapsed: 0.0003001689910888672
ell 1181, elapsed: 0.00031304359436035156
ell 1180, elapsed: 0.0003039836883544922
ell 1179, elapsed: 0.00030517578125
ell 1178, elapsed: 0.00031685829162597656
ell 1177, elapsed: 0.0003070831298828125
ell 1176, elapsed: 0.0003139972686767578
ell 1175, elapsed: 0.00033593177795410156
ell 1174, elapsed: 0.0003077983856201172
ell 1173, elapsed: 0.0003199577331542969
ell 1172, elapsed: 0.00031185150146484375
ell 1171, elapsed: 0.0003190040588378906
ell 1170, elapsed: 0.00031280517578125
ell 1169, elapsed: 0.00031280517578125
ell 1168, elapsed: 0.0003108978271484375
ell 1167, elapsed: 0.0003120899200439453
ell 1166, elapsed: 0.00031876564025878906
ell 1165, elapsed: 0.00031113624572753906
ell 1164, elapsed: 0.0003139972686767578
ell 1163, elapsed: 0.0003390312194824219
ell 1162, elapsed: 0.00030612945556640625
ell 1161, elapsed: 0.000308990478515625
ell 1160, elapsed: 0.00030612945556640625
ell 1159, elapsed: 0.0003058910369873047
ell 1158, elapsed: 0.0003268718719482422
ell 1157, elapsed: 0.0003139972686767578
ell 1156, elapsed: 0.0003209114074707031
ell 1155, elapsed: 0.00031304359436035156
ell 1154, elapsed: 0.0003190040588378906
ell 1153, elapsed: 0.00030803680419921875
ell 1152, elapsed: 0.0003120899200439453
ell 1151, elapsed: 0.0003561973571777344
ell 1150, elapsed: 0.00030612945556640625
ell 1149, elapsed: 0.00031304359436035156
ell 1148, elapsed: 0.00030493736267089844
ell 1147, elapsed: 0.000308990478515625
ell 1146, elapsed: 0.0003180503845214844
ell 1145, elapsed: 0.00031280517578125
ell 1144, elapsed: 0.0003159046173095703
ell 1143, elapsed: 0.00030303001403808594
ell 1142, elapsed: 0.0003161430358886719
ell 1141, elapsed: 0.00032019615173339844
ell 1140, elapsed: 0.00030994415283203125
ell 1139, elapsed: 0.000347137451171875
ell 1138, elapsed: 0.0003108978271484375
ell 1137, elapsed: 0.0003008842468261719
ell 1136, elapsed: 0.00031304359436035156
ell 1135, elapsed: 0.00030994415283203125
ell 1134, elapsed: 0.0003230571746826172
ell 1133, elapsed: 0.0003070831298828125
ell 1132, elapsed: 0.00031304359436035156
ell 1131, elapsed: 0.0003039836883544922
ell 1130, elapsed: 0.0002951622009277344
ell 1129, elapsed: 0.00031495094299316406
ell 1128, elapsed: 0.0003108978271484375
ell 1127, elapsed: 0.0003528594970703125
ell 1126, elapsed: 0.0003228187561035156
ell 1125, elapsed: 0.00031280517578125
ell 1124, elapsed: 0.0003120899200439453
ell 1123, elapsed: 0.00030684471130371094
ell 1122, elapsed: 0.00030493736267089844
ell 1121, elapsed: 0.0003120899200439453
ell 1120, elapsed: 0.00030517578125
ell 1119, elapsed: 0.0003180503845214844
ell 1118, elapsed: 0.00030493736267089844
ell 1117, elapsed: 0.00030803680419921875
ell 1116, elapsed: 0.00031280517578125
ell 1115, elapsed: 0.000370025634765625
ell 1114, elapsed: 0.00031304359436035156
ell 1113, elapsed: 0.00030493736267089844
ell 1112, elapsed: 0.0003039836883544922
ell 1111, elapsed: 0.00030994415283203125
ell 1110, elapsed: 0.0003039836883544922
ell 1109, elapsed: 0.00031185150146484375
ell 1108, elapsed: 0.0003020763397216797
ell 1107, elapsed: 0.0003159046173095703
ell 1106, elapsed: 0.00030994415283203125
ell 1105, elapsed: 0.00030684471130371094
ell 1104, elapsed: 0.0003161430358886719
ell 1103, elapsed: 0.00034999847412109375
ell 1102, elapsed: 0.00030612945556640625
ell 1101, elapsed: 0.00030994415283203125
ell 1100, elapsed: 0.0003020763397216797
ell 1099, elapsed: 0.0003058910369873047
ell 1098, elapsed: 0.0003039836883544922
ell 1097, elapsed: 0.000308990478515625
ell 1096, elapsed: 0.00030303001403808594
ell 1095, elapsed: 0.00030493736267089844
ell 1094, elapsed: 0.00030493736267089844
ell 1093, elapsed: 0.0003039836883544922
ell 1092, elapsed: 0.0003170967102050781
ell 1091, elapsed: 0.00032210350036621094
ell 1090, elapsed: 0.0003070831298828125
ell 1089, elapsed: 0.00031113624572753906
ell 1088, elapsed: 0.0003039836883544922
ell 1087, elapsed: 0.00030684471130371094
ell 1086, elapsed: 0.00030612945556640625
ell 1085, elapsed: 0.00030803680419921875
ell 1084, elapsed: 0.00030803680419921875
ell 1083, elapsed: 0.00031304359436035156
ell 1082, elapsed: 0.00030994415283203125
ell 1081, elapsed: 0.00030803680419921875
ell 1080, elapsed: 0.00030684471130371094
ell 1079, elapsed: 0.0003490447998046875
ell 1078, elapsed: 0.0003190040588378906
ell 1077, elapsed: 0.0003139972686767578
ell 1076, elapsed: 0.0003020763397216797
ell 1075, elapsed: 0.0003101825714111328
ell 1074, elapsed: 0.00032806396484375
ell 1073, elapsed: 0.00031185150146484375
ell 1072, elapsed: 0.0003180503845214844
ell 1071, elapsed: 0.00031304359436035156
ell 1070, elapsed: 0.00030803680419921875
ell 1069, elapsed: 0.00030803680419921875
ell 1068, elapsed: 0.0003108978271484375
ell 1067, elapsed: 0.00034999847412109375
ell 1066, elapsed: 0.0003120899200439453
ell 1065, elapsed: 0.0003139972686767578
ell 1064, elapsed: 0.0003161430358886719
ell 1063, elapsed: 0.0003058910369873047
ell 1062, elapsed: 0.0003180503845214844
ell 1061, elapsed: 0.0003058910369873047
ell 1060, elapsed: 0.0003108978271484375
ell 1059, elapsed: 0.00031685829162597656
ell 1058, elapsed: 0.0003199577331542969
ell 1057, elapsed: 0.00031685829162597656
ell 1056, elapsed: 0.00032210350036621094
ell 1055, elapsed: 0.0003859996795654297
ell 1054, elapsed: 0.0003180503845214844
ell 1053, elapsed: 0.0003139972686767578
ell 1052, elapsed: 0.0003120899200439453
ell 1051, elapsed: 0.00031185150146484375
ell 1050, elapsed: 0.00030994415283203125
ell 1049, elapsed: 0.00031495094299316406
ell 1048, elapsed: 0.000308990478515625
ell 1047, elapsed: 0.00031685829162597656
ell 1046, elapsed: 0.00031495094299316406
ell 1045, elapsed: 0.00031304359436035156
ell 1044, elapsed: 0.0003058910369873047
ell 1043, elapsed: 0.0003578662872314453
ell 1042, elapsed: 0.0003070831298828125
ell 1041, elapsed: 0.000308990478515625
ell 1040, elapsed: 0.00031304359436035156
ell 1039, elapsed: 0.000308990478515625
ell 1038, elapsed: 0.00030803680419921875
ell 1037, elapsed: 0.00031304359436035156
ell 1036, elapsed: 0.00030493736267089844
ell 1035, elapsed: 0.0003211498260498047
ell 1034, elapsed: 0.00030994415283203125
ell 1033, elapsed: 0.00031185150146484375
ell 1032, elapsed: 0.0003190040588378906
ell 1031, elapsed: 0.00036406517028808594
ell 1030, elapsed: 0.0003261566162109375
ell 1029, elapsed: 0.0003120899200439453
ell 1028, elapsed: 0.00031495094299316406
ell 1027, elapsed: 0.0003268718719482422
ell 1026, elapsed: 0.0003161430358886719
ell 1025, elapsed: 0.0003218650817871094
ell 1024, elapsed: 0.00030994415283203125
ell 1023, elapsed: 0.0003058910369873047
ell 1022, elapsed: 0.0003230571746826172
ell 1021, elapsed: 0.0003209114074707031
ell 1020, elapsed: 0.00032210350036621094
ell 1019, elapsed: 0.0003230571746826172
ell 1018, elapsed: 0.0003190040588378906
ell 1017, elapsed: 0.0003139972686767578
ell 1016, elapsed: 0.0003120899200439453
ell 1015, elapsed: 0.0003151893615722656
ell 1014, elapsed: 0.00031304359436035156
ell 1013, elapsed: 0.000308990478515625
ell 1012, elapsed: 0.0003209114074707031
ell 1011, elapsed: 0.00030994415283203125
ell 1010, elapsed: 0.0003170967102050781
ell 1009, elapsed: 0.0003161430358886719
ell 1008, elapsed: 0.00035309791564941406
ell 1007, elapsed: 0.0003180503845214844
ell 1006, elapsed: 0.00031304359436035156
ell 1005, elapsed: 0.00031185150146484375
ell 1004, elapsed: 0.0003058910369873047
ell 1003, elapsed: 0.00031495094299316406
ell 1002, elapsed: 0.0003159046173095703
ell 1001, elapsed: 0.00030684471130371094
ell 1000, elapsed: 0.0003159046173095703
ell 999, elapsed: 0.000308990478515625
ell 998, elapsed: 0.00030493736267089844
ell 997, elapsed: 0.00032401084899902344
ell 996, elapsed: 0.0003490447998046875
ell 995, elapsed: 0.00031113624572753906
ell 994, elapsed: 0.000308990478515625
ell 993, elapsed: 0.00031185150146484375
ell 992, elapsed: 0.000308990478515625
ell 991, elapsed: 0.000308990478515625
ell 990, elapsed: 0.0003139972686767578
ell 989, elapsed: 0.0003159046173095703
ell 988, elapsed: 0.00033092498779296875
ell 987, elapsed: 0.00031185150146484375
ell 986, elapsed: 0.0003120899200439453
ell 985, elapsed: 0.0003161430358886719
ell 984, elapsed: 0.0004010200500488281
ell 983, elapsed: 0.00026106834411621094
ell 982, elapsed: 0.00025391578674316406
ell 981, elapsed: 0.000247955322265625
ell 980, elapsed: 0.0002541542053222656
ell 979, elapsed: 0.000247955322265625
ell 978, elapsed: 0.000286102294921875
ell 977, elapsed: 0.0003058910369873047
ell 976, elapsed: 0.0002970695495605469
ell 975, elapsed: 0.000308990478515625
ell 974, elapsed: 0.0003020763397216797
ell 973, elapsed: 0.0003108978271484375
ell 972, elapsed: 0.0003001689910888672
ell 971, elapsed: 0.0003390312194824219
ell 970, elapsed: 0.0003008842468261719
ell 969, elapsed: 0.0003020763397216797
ell 968, elapsed: 0.00030803680419921875
ell 967, elapsed: 0.00035691261291503906
ell 966, elapsed: 0.00030994415283203125
ell 965, elapsed: 0.0003058910369873047
ell 964, elapsed: 0.0003058910369873047
ell 963, elapsed: 0.00031113624572753906
ell 962, elapsed: 0.0003058910369873047
ell 961, elapsed: 0.0003018379211425781
ell 960, elapsed: 0.0003139972686767578
ell 959, elapsed: 0.000331878662109375
ell 958, elapsed: 0.00031495094299316406
ell 957, elapsed: 0.0003018379211425781
ell 956, elapsed: 0.0003070831298828125
ell 955, elapsed: 0.00030994415283203125
ell 954, elapsed: 0.00031185150146484375
ell 953, elapsed: 0.00031304359436035156
ell 952, elapsed: 0.000308990478515625
ell 951, elapsed: 0.0003039836883544922
ell 950, elapsed: 0.000308990478515625
ell 949, elapsed: 0.00030303001403808594
ell 948, elapsed: 0.00032401084899902344
ell 947, elapsed: 0.00030684471130371094
ell 946, elapsed: 0.0003600120544433594
ell 945, elapsed: 0.0003139972686767578
ell 944, elapsed: 0.000308990478515625
ell 943, elapsed: 0.00031185150146484375
ell 942, elapsed: 0.00031304359436035156
ell 941, elapsed: 0.0003039836883544922
ell 940, elapsed: 0.0003249645233154297
ell 939, elapsed: 0.0003039836883544922
ell 938, elapsed: 0.0003190040588378906
ell 937, elapsed: 0.00030112266540527344
ell 936, elapsed: 0.0003170967102050781
ell 935, elapsed: 0.00030612945556640625
ell 934, elapsed: 0.00031185150146484375
ell 933, elapsed: 0.0003299713134765625
ell 932, elapsed: 0.0003139972686767578
ell 931, elapsed: 0.00032210350036621094
ell 930, elapsed: 0.00031113624572753906
ell 929, elapsed: 0.00030303001403808594
ell 928, elapsed: 0.0003170967102050781
ell 927, elapsed: 0.00033092498779296875
ell 926, elapsed: 0.00031185150146484375
ell 925, elapsed: 0.0003077983856201172
ell 924, elapsed: 0.0003058910369873047
ell 923, elapsed: 0.00037479400634765625
ell 922, elapsed: 0.0003120899200439453
ell 921, elapsed: 0.0003180503845214844
ell 920, elapsed: 0.0002970695495605469
ell 919, elapsed: 0.0002961158752441406
ell 918, elapsed: 0.00030803680419921875
ell 917, elapsed: 0.0002999305725097656
ell 916, elapsed: 0.0003120899200439453
ell 915, elapsed: 0.000308990478515625
ell 914, elapsed: 0.00030803680419921875
ell 913, elapsed: 0.00032210350036621094
ell 912, elapsed: 0.0003190040588378906
ell 911, elapsed: 0.0004119873046875
ell 910, elapsed: 0.00029206275939941406
ell 909, elapsed: 0.00030493736267089844
ell 908, elapsed: 0.00029587745666503906
ell 907, elapsed: 0.00028705596923828125
ell 906, elapsed: 0.0002961158752441406
ell 905, elapsed: 0.00028514862060546875
ell 904, elapsed: 0.0002849102020263672
ell 903, elapsed: 0.0002899169921875
ell 902, elapsed: 0.00028204917907714844
ell 901, elapsed: 0.000286102294921875
ell 900, elapsed: 0.0002789497375488281
ell 899, elapsed: 0.00028014183044433594
ell 898, elapsed: 0.0003249645233154297
ell 897, elapsed: 0.0003218650817871094
ell 896, elapsed: 0.0003209114074707031
ell 895, elapsed: 0.0003070831298828125
ell 894, elapsed: 0.00030684471130371094
ell 893, elapsed: 0.00030803680419921875
ell 892, elapsed: 0.000308990478515625
ell 891, elapsed: 0.0003077983856201172
ell 890, elapsed: 0.00030493736267089844
ell 889, elapsed: 0.0003020763397216797
ell 888, elapsed: 0.0003108978271484375
ell 887, elapsed: 0.0003039836883544922
ell 886, elapsed: 0.00035500526428222656
ell 885, elapsed: 0.0003020763397216797
ell 884, elapsed: 0.0003077983856201172
ell 883, elapsed: 0.0003018379211425781
ell 882, elapsed: 0.0002989768981933594
ell 881, elapsed: 0.0003120899200439453
ell 880, elapsed: 0.00030303001403808594
ell 879, elapsed: 0.00030303001403808594
ell 878, elapsed: 0.0002999305725097656
ell 877, elapsed: 0.0002999305725097656
ell 876, elapsed: 0.00030684471130371094
ell 875, elapsed: 0.0002989768981933594
ell 874, elapsed: 0.0003058910369873047
ell 873, elapsed: 0.00032019615173339844
ell 872, elapsed: 0.0003001689910888672
ell 871, elapsed: 0.0002989768981933594
ell 870, elapsed: 0.0002961158752441406
ell 869, elapsed: 0.0003077983856201172
ell 868, elapsed: 0.00030684471130371094
ell 867, elapsed: 0.0003008842468261719
ell 866, elapsed: 0.00030803680419921875
ell 865, elapsed: 0.0003139972686767578
ell 864, elapsed: 0.0003139972686767578
ell 863, elapsed: 0.00030493736267089844
ell 862, elapsed: 0.000308990478515625
ell 861, elapsed: 0.0003330707550048828
ell 860, elapsed: 0.0002999305725097656
ell 859, elapsed: 0.000308990478515625
ell 858, elapsed: 0.0003070831298828125
ell 857, elapsed: 0.0003039836883544922
ell 856, elapsed: 0.00031185150146484375
ell 855, elapsed: 0.00030684471130371094
ell 854, elapsed: 0.000308990478515625
ell 853, elapsed: 0.00030994415283203125
ell 852, elapsed: 0.0003018379211425781
ell 851, elapsed: 0.000308990478515625
ell 850, elapsed: 0.0002999305725097656
ell 849, elapsed: 0.00037598609924316406
ell 848, elapsed: 0.0003020763397216797
ell 847, elapsed: 0.0003070831298828125
ell 846, elapsed: 0.00030422210693359375
ell 845, elapsed: 0.00030493736267089844
ell 844, elapsed: 0.0003120899200439453
ell 843, elapsed: 0.00030493736267089844
ell 842, elapsed: 0.0003039836883544922
ell 841, elapsed: 0.00031495094299316406
ell 840, elapsed: 0.0003039836883544922
ell 839, elapsed: 0.0003159046173095703
ell 838, elapsed: 0.00030803680419921875
ell 837, elapsed: 0.0003218650817871094
ell 836, elapsed: 0.0003058910369873047
ell 835, elapsed: 0.0002999305725097656
ell 834, elapsed: 0.00031304359436035156
ell 833, elapsed: 0.00030303001403808594
ell 832, elapsed: 0.0003170967102050781
ell 831, elapsed: 0.0003020763397216797
ell 830, elapsed: 0.00030803680419921875
ell 829, elapsed: 0.00031280517578125
ell 828, elapsed: 0.0003039836883544922
ell 827, elapsed: 0.000308990478515625
ell 826, elapsed: 0.0003039836883544922
ell 825, elapsed: 0.0003020763397216797
ell 824, elapsed: 0.00033092498779296875
ell 823, elapsed: 0.00030493736267089844
ell 822, elapsed: 0.0003077983856201172
ell 821, elapsed: 0.0003020763397216797
ell 820, elapsed: 0.00030303001403808594
ell 819, elapsed: 0.00031495094299316406
ell 818, elapsed: 0.00030112266540527344
ell 817, elapsed: 0.00030612945556640625
ell 816, elapsed: 0.00030422210693359375
ell 815, elapsed: 0.00030112266540527344
ell 814, elapsed: 0.0003139972686767578
ell 813, elapsed: 0.0003108978271484375
ell 812, elapsed: 0.0003561973571777344
ell 811, elapsed: 0.00030803680419921875
ell 810, elapsed: 0.000308990478515625
ell 809, elapsed: 0.00030803680419921875
ell 808, elapsed: 0.00030112266540527344
ell 807, elapsed: 0.00032401084899902344
ell 806, elapsed: 0.00031495094299316406
ell 805, elapsed: 0.0003139972686767578
ell 804, elapsed: 0.0003159046173095703
ell 803, elapsed: 0.0003018379211425781
ell 802, elapsed: 0.0003120899200439453
ell 801, elapsed: 0.00030303001403808594
ell 800, elapsed: 0.0003299713134765625
ell 799, elapsed: 0.0003058910369873047
ell 798, elapsed: 0.0002999305725097656
ell 797, elapsed: 0.0003039836883544922
ell 796, elapsed: 0.00030303001403808594
ell 795, elapsed: 0.0003008842468261719
ell 794, elapsed: 0.00030803680419921875
ell 793, elapsed: 0.00030612945556640625
ell 792, elapsed: 0.00031495094299316406
ell 791, elapsed: 0.0003058910369873047
ell 790, elapsed: 0.000308990478515625
ell 789, elapsed: 0.0003108978271484375
ell 788, elapsed: 0.0003209114074707031
ell 787, elapsed: 0.0003058910369873047
ell 786, elapsed: 0.0003039836883544922
ell 785, elapsed: 0.0003139972686767578
ell 784, elapsed: 0.00030612945556640625
ell 783, elapsed: 0.00031304359436035156
ell 782, elapsed: 0.0003070831298828125
ell 781, elapsed: 0.00030493736267089844
ell 780, elapsed: 0.0003070831298828125
ell 779, elapsed: 0.0003039836883544922
ell 778, elapsed: 0.00030493736267089844
ell 777, elapsed: 0.0003180503845214844
ell 776, elapsed: 0.0004210472106933594
ell 775, elapsed: 0.00030803680419921875
ell 774, elapsed: 0.0003027915954589844
ell 773, elapsed: 0.00030303001403808594
ell 772, elapsed: 0.000308990478515625
ell 771, elapsed: 0.00030684471130371094
ell 770, elapsed: 0.0003027915954589844
ell 769, elapsed: 0.0003008842468261719
ell 768, elapsed: 0.00030517578125
ell 767, elapsed: 0.0003018379211425781
ell 766, elapsed: 0.0003039836883544922
ell 765, elapsed: 0.0003039836883544922
ell 764, elapsed: 0.000331878662109375
ell 763, elapsed: 0.00030612945556640625
ell 762, elapsed: 0.000308990478515625
ell 761, elapsed: 0.0003020763397216797
ell 760, elapsed: 0.00030684471130371094
ell 759, elapsed: 0.00030994415283203125
ell 758, elapsed: 0.00030493736267089844
ell 757, elapsed: 0.0003039836883544922
ell 756, elapsed: 0.0003058910369873047
ell 755, elapsed: 0.0003058910369873047
ell 754, elapsed: 0.0003008842468261719
ell 753, elapsed: 0.00031185150146484375
ell 752, elapsed: 0.0003039836883544922
ell 751, elapsed: 0.00030493736267089844
ell 750, elapsed: 0.00031280517578125
ell 749, elapsed: 0.0002980232238769531
ell 748, elapsed: 0.00031495094299316406
ell 747, elapsed: 0.0003020763397216797
ell 746, elapsed: 0.0003070831298828125
ell 745, elapsed: 0.000308990478515625
ell 744, elapsed: 0.00030493736267089844
ell 743, elapsed: 0.0003108978271484375
ell 742, elapsed: 0.00030517578125
ell 741, elapsed: 0.0003020763397216797
ell 740, elapsed: 0.0003268718719482422
ell 739, elapsed: 0.0003540515899658203
ell 738, elapsed: 0.0003161430358886719
ell 737, elapsed: 0.00030994415283203125
ell 736, elapsed: 0.0003039836883544922
ell 735, elapsed: 0.00031304359436035156
ell 734, elapsed: 0.0003058910369873047
ell 733, elapsed: 0.0003108978271484375
ell 732, elapsed: 0.0003039836883544922
ell 731, elapsed: 0.00030517578125
ell 730, elapsed: 0.00032591819763183594
ell 729, elapsed: 0.00030517578125
ell 728, elapsed: 0.0003230571746826172
ell 727, elapsed: 0.0003249645233154297
ell 726, elapsed: 0.00030684471130371094
ell 725, elapsed: 0.0003108978271484375
ell 724, elapsed: 0.0002999305725097656
ell 723, elapsed: 0.00031685829162597656
ell 722, elapsed: 0.0003070831298828125
ell 721, elapsed: 0.0003170967102050781
ell 720, elapsed: 0.000308990478515625
ell 719, elapsed: 0.00030803680419921875
ell 718, elapsed: 0.0003139972686767578
ell 717, elapsed: 0.00030422210693359375
ell 716, elapsed: 0.0003180503845214844
ell 715, elapsed: 0.0003209114074707031
ell 714, elapsed: 0.0003020763397216797
ell 713, elapsed: 0.000308990478515625
ell 712, elapsed: 0.0003018379211425781
ell 711, elapsed: 0.0003159046173095703
ell 710, elapsed: 0.0003027915954589844
ell 709, elapsed: 0.00030493736267089844
ell 708, elapsed: 0.0003190040588378906
ell 707, elapsed: 0.00030493736267089844
ell 706, elapsed: 0.0003120899200439453
ell 705, elapsed: 0.0002980232238769531
ell 704, elapsed: 0.0003020763397216797
ell 703, elapsed: 0.00037789344787597656
ell 702, elapsed: 0.0003070831298828125
ell 701, elapsed: 0.00030612945556640625
ell 700, elapsed: 0.00030517578125
ell 699, elapsed: 0.00030803680419921875
ell 698, elapsed: 0.0003108978271484375
ell 697, elapsed: 0.00030493736267089844
ell 696, elapsed: 0.00031304359436035156
ell 695, elapsed: 0.0003018379211425781
ell 694, elapsed: 0.0003120899200439453
ell 693, elapsed: 0.0003039836883544922
ell 692, elapsed: 0.0003108978271484375
ell 691, elapsed: 0.0003390312194824219
ell 690, elapsed: 0.00031304359436035156
ell 689, elapsed: 0.0003190040588378906
ell 688, elapsed: 0.0003070831298828125
ell 687, elapsed: 0.00030803680419921875
ell 686, elapsed: 0.0003230571746826172
ell 685, elapsed: 0.0003039836883544922
ell 684, elapsed: 0.0003159046173095703
ell 683, elapsed: 0.00030112266540527344
ell 682, elapsed: 0.00030493736267089844
ell 681, elapsed: 0.0003178119659423828
ell 680, elapsed: 0.00030994415283203125
ell 679, elapsed: 0.00036406517028808594
ell 678, elapsed: 0.0003070831298828125
ell 677, elapsed: 0.00030303001403808594
ell 676, elapsed: 0.00031304359436035156
ell 675, elapsed: 0.00030517578125
ell 674, elapsed: 0.0003261566162109375
ell 673, elapsed: 0.000308990478515625
ell 672, elapsed: 0.0003139972686767578
ell 671, elapsed: 0.0003230571746826172
ell 670, elapsed: 0.0002989768981933594
ell 669, elapsed: 0.0003159046173095703
ell 668, elapsed: 0.00030112266540527344
ell 667, elapsed: 0.00034999847412109375
ell 666, elapsed: 0.0003020763397216797
ell 665, elapsed: 0.00030612945556640625
ell 664, elapsed: 0.00031304359436035156
ell 663, elapsed: 0.0003139972686767578
ell 662, elapsed: 0.00031304359436035156
ell 661, elapsed: 0.000308990478515625
ell 660, elapsed: 0.0003101825714111328
ell 659, elapsed: 0.00032901763916015625
ell 658, elapsed: 0.00030303001403808594
ell 657, elapsed: 0.0003139972686767578
ell 656, elapsed: 0.00030493736267089844
ell 655, elapsed: 0.0003581047058105469
ell 654, elapsed: 0.0003170967102050781
ell 653, elapsed: 0.00030303001403808594
ell 652, elapsed: 0.00032401084899902344
ell 651, elapsed: 0.00032711029052734375
ell 650, elapsed: 0.0003008842468261719
ell 649, elapsed: 0.0003139972686767578
ell 648, elapsed: 0.0003020763397216797
ell 647, elapsed: 0.0003190040588378906
ell 646, elapsed: 0.00030612945556640625
ell 645, elapsed: 0.0003039836883544922
ell 644, elapsed: 0.00031304359436035156
ell 643, elapsed: 0.00032711029052734375
ell 642, elapsed: 0.000308990478515625
ell 641, elapsed: 0.00030803680419921875
ell 640, elapsed: 0.0003020763397216797
ell 639, elapsed: 0.00031185150146484375
ell 638, elapsed: 0.0002980232238769531
ell 637, elapsed: 0.00030803680419921875
ell 636, elapsed: 0.00030303001403808594
ell 635, elapsed: 0.0003139972686767578
ell 634, elapsed: 0.0002999305725097656
ell 633, elapsed: 0.0002980232238769531
ell 632, elapsed: 0.00031495094299316406
ell 631, elapsed: 0.0003311634063720703
ell 630, elapsed: 0.0003209114074707031
ell 629, elapsed: 0.00030612945556640625
ell 628, elapsed: 0.0003020763397216797
ell 627, elapsed: 0.0003161430358886719
ell 626, elapsed: 0.0003120899200439453
ell 625, elapsed: 0.0003161430358886719
ell 624, elapsed: 0.0003039836883544922
ell 623, elapsed: 0.00030303001403808594
ell 622, elapsed: 0.0003190040588378906
ell 621, elapsed: 0.0003020763397216797
ell 620, elapsed: 0.000308990478515625
ell 619, elapsed: 0.00030517578125
ell 618, elapsed: 0.00031185150146484375
ell 617, elapsed: 0.00030803680419921875
ell 616, elapsed: 0.0002999305725097656
ell 615, elapsed: 0.0003120899200439453
ell 614, elapsed: 0.00030303001403808594
ell 613, elapsed: 0.0002989768981933594
ell 612, elapsed: 0.000308990478515625
ell 611, elapsed: 0.0003008842468261719
ell 610, elapsed: 0.0003101825714111328
ell 609, elapsed: 0.0003008842468261719
ell 608, elapsed: 0.00030303001403808594
ell 607, elapsed: 0.0003190040588378906
ell 606, elapsed: 0.0003380775451660156
ell 605, elapsed: 0.0003190040588378906
ell 604, elapsed: 0.00030493736267089844
ell 603, elapsed: 0.0003249645233154297
ell 602, elapsed: 0.0002970695495605469
ell 601, elapsed: 0.00030493736267089844
ell 600, elapsed: 0.00030517578125
ell 599, elapsed: 0.00031185150146484375
ell 598, elapsed: 0.0003180503845214844
ell 597, elapsed: 0.00030303001403808594
ell 596, elapsed: 0.0002989768981933594
ell 595, elapsed: 0.000308990478515625
ell 594, elapsed: 0.00032401084899902344
ell 593, elapsed: 0.00030803680419921875
ell 592, elapsed: 0.0002980232238769531
ell 591, elapsed: 0.00030493736267089844
ell 590, elapsed: 0.000308990478515625
ell 589, elapsed: 0.0003039836883544922
ell 588, elapsed: 0.00030493736267089844
ell 587, elapsed: 0.0003020763397216797
ell 586, elapsed: 0.0002989768981933594
ell 585, elapsed: 0.0003070831298828125
ell 584, elapsed: 0.0002989768981933594
ell 583, elapsed: 0.0003120899200439453
ell 582, elapsed: 0.00038695335388183594
ell 581, elapsed: 0.00030994415283203125
ell 580, elapsed: 0.000308990478515625
ell 579, elapsed: 0.0002970695495605469
ell 578, elapsed: 0.0003070831298828125
ell 577, elapsed: 0.00030303001403808594
ell 576, elapsed: 0.00031113624572753906
ell 575, elapsed: 0.0002989768981933594
ell 574, elapsed: 0.00030803680419921875
ell 573, elapsed: 0.00031304359436035156
ell 572, elapsed: 0.00030803680419921875
ell 571, elapsed: 0.00030803680419921875
ell 570, elapsed: 0.0003349781036376953
ell 569, elapsed: 0.0003058910369873047
ell 568, elapsed: 0.00031185150146484375
ell 567, elapsed: 0.0003001689910888672
ell 566, elapsed: 0.00030303001403808594
ell 565, elapsed: 0.0003018379211425781
ell 564, elapsed: 0.0003070831298828125
ell 563, elapsed: 0.00030994415283203125
ell 562, elapsed: 0.00030493736267089844
ell 561, elapsed: 0.00030803680419921875
ell 560, elapsed: 0.0003008842468261719
ell 559, elapsed: 0.0002999305725097656
ell 558, elapsed: 0.0003108978271484375
ell 557, elapsed: 0.0003299713134765625
ell 556, elapsed: 0.00030994415283203125
ell 555, elapsed: 0.0003070831298828125
ell 554, elapsed: 0.00030803680419921875
ell 553, elapsed: 0.0003170967102050781
ell 552, elapsed: 0.0003070831298828125
ell 551, elapsed: 0.0003120899200439453
ell 550, elapsed: 0.0003039836883544922
ell 549, elapsed: 0.0003101825714111328
ell 548, elapsed: 0.0003139972686767578
ell 547, elapsed: 0.00030517578125
ell 546, elapsed: 0.00030994415283203125
ell 545, elapsed: 0.0003509521484375
ell 544, elapsed: 0.00031304359436035156
ell 543, elapsed: 0.00030994415283203125
ell 542, elapsed: 0.00030303001403808594
ell 541, elapsed: 0.00031304359436035156
ell 540, elapsed: 0.00030493736267089844
ell 539, elapsed: 0.00031185150146484375
ell 538, elapsed: 0.0003008842468261719
ell 537, elapsed: 0.00030612945556640625
ell 536, elapsed: 0.0003209114074707031
ell 535, elapsed: 0.0003161430358886719
ell 534, elapsed: 0.00032806396484375
ell 533, elapsed: 0.0003399848937988281
ell 532, elapsed: 0.00030684471130371094
ell 531, elapsed: 0.0003159046173095703
ell 530, elapsed: 0.000308990478515625
ell 529, elapsed: 0.000308990478515625
ell 528, elapsed: 0.00030303001403808594
ell 527, elapsed: 0.00030684471130371094
ell 526, elapsed: 0.0003139972686767578
ell 525, elapsed: 0.00030684471130371094
ell 524, elapsed: 0.000308990478515625
ell 523, elapsed: 0.0003039836883544922
ell 522, elapsed: 0.00030684471130371094
ell 521, elapsed: 0.00036907196044921875
ell 520, elapsed: 0.0003178119659423828
ell 519, elapsed: 0.0003161430358886719
ell 518, elapsed: 0.0002911090850830078
ell 517, elapsed: 0.0002892017364501953
ell 516, elapsed: 0.00030303001403808594
ell 515, elapsed: 0.0002911090850830078
ell 514, elapsed: 0.0002999305725097656
ell 513, elapsed: 0.00029087066650390625
ell 512, elapsed: 0.0002968311309814453
ell 511, elapsed: 0.0002899169921875
ell 510, elapsed: 0.0002980232238769531
ell 509, elapsed: 0.0002951622009277344
ell 508, elapsed: 0.00032901763916015625
ell 507, elapsed: 0.0003178119659423828
ell 506, elapsed: 0.00030612945556640625
ell 505, elapsed: 0.0003039836883544922
ell 504, elapsed: 0.00032401084899902344
ell 503, elapsed: 0.000308990478515625
ell 502, elapsed: 0.0003159046173095703
ell 501, elapsed: 0.0003018379211425781
ell 500, elapsed: 0.00030303001403808594
ell 499, elapsed: 0.0003070831298828125
ell 498, elapsed: 0.00031113624572753906
ell 497, elapsed: 0.00031304359436035156
ell 496, elapsed: 0.00030803680419921875
ell 495, elapsed: 0.00031304359436035156
ell 494, elapsed: 0.0003209114074707031
ell 493, elapsed: 0.000308990478515625
ell 492, elapsed: 0.0003178119659423828
ell 491, elapsed: 0.00030994415283203125
ell 490, elapsed: 0.00030803680419921875
ell 489, elapsed: 0.00031304359436035156
ell 488, elapsed: 0.0003077983856201172
ell 487, elapsed: 0.00030922889709472656
ell 486, elapsed: 0.00031113624572753906
ell 485, elapsed: 0.0003039836883544922
ell 484, elapsed: 0.0003139972686767578
ell 483, elapsed: 0.00030493736267089844
ell 482, elapsed: 0.0003101825714111328
ell 481, elapsed: 0.00030303001403808594
ell 480, elapsed: 0.0003139972686767578
ell 479, elapsed: 0.00030493736267089844
ell 478, elapsed: 0.00030493736267089844
ell 477, elapsed: 0.00031185150146484375
ell 476, elapsed: 0.0003058910369873047
ell 475, elapsed: 0.00030803680419921875
ell 474, elapsed: 0.00030612945556640625
ell 473, elapsed: 0.00030303001403808594
ell 472, elapsed: 0.00033593177795410156
ell 471, elapsed: 0.0003058910369873047
ell 470, elapsed: 0.00030803680419921875
ell 469, elapsed: 0.0003001689910888672
ell 468, elapsed: 0.00030493736267089844
ell 467, elapsed: 0.00030684471130371094
ell 466, elapsed: 0.0003058910369873047
ell 465, elapsed: 0.000308990478515625
ell 464, elapsed: 0.0003001689910888672
ell 463, elapsed: 0.00030303001403808594
ell 462, elapsed: 0.0003058910369873047
ell 461, elapsed: 0.00032210350036621094
ell 460, elapsed: 0.00033283233642578125
ell 459, elapsed: 0.00030994415283203125
ell 458, elapsed: 0.00030303001403808594
ell 457, elapsed: 0.00030684471130371094
ell 456, elapsed: 0.0002989768981933594
ell 455, elapsed: 0.0003161430358886719
ell 454, elapsed: 0.00030112266540527344
ell 453, elapsed: 0.0003070831298828125
ell 452, elapsed: 0.00030612945556640625
ell 451, elapsed: 0.00030493736267089844
ell 450, elapsed: 0.0003178119659423828
ell 449, elapsed: 0.0003058910369873047
ell 448, elapsed: 0.0003581047058105469
ell 447, elapsed: 0.000308990478515625
ell 446, elapsed: 0.00030303001403808594
ell 445, elapsed: 0.0003058910369873047
ell 444, elapsed: 0.0003039836883544922
ell 443, elapsed: 0.00030994415283203125
ell 442, elapsed: 0.00030612945556640625
ell 441, elapsed: 0.00030803680419921875
ell 440, elapsed: 0.0003151893615722656
ell 439, elapsed: 0.0003018379211425781
ell 438, elapsed: 0.0003120899200439453
ell 437, elapsed: 0.00030303001403808594
ell 436, elapsed: 0.0003349781036376953
ell 435, elapsed: 0.0003039836883544922
ell 434, elapsed: 0.00030303001403808594
ell 433, elapsed: 0.000308990478515625
ell 432, elapsed: 0.00030612945556640625
ell 431, elapsed: 0.00031304359436035156
ell 430, elapsed: 0.00031495094299316406
ell 429, elapsed: 0.00030612945556640625
ell 428, elapsed: 0.00031113624572753906
ell 427, elapsed: 0.00030493736267089844
ell 426, elapsed: 0.0003101825714111328
ell 425, elapsed: 0.0003020763397216797
ell 424, elapsed: 0.00039505958557128906
ell 423, elapsed: 0.00031280517578125
ell 422, elapsed: 0.0003058910369873047
ell 421, elapsed: 0.0003070831298828125
ell 420, elapsed: 0.0003058910369873047
ell 419, elapsed: 0.0003020763397216797
ell 418, elapsed: 0.0003101825714111328
ell 417, elapsed: 0.00030112266540527344
ell 416, elapsed: 0.00030612945556640625
ell 415, elapsed: 0.000308990478515625
ell 414, elapsed: 0.00030303001403808594
ell 413, elapsed: 0.0003077983856201172
ell 412, elapsed: 0.0003299713134765625
ell 411, elapsed: 0.000308990478515625
ell 410, elapsed: 0.00030112266540527344
ell 409, elapsed: 0.00030303001403808594
ell 408, elapsed: 0.0003108978271484375
ell 407, elapsed: 0.0003039836883544922
ell 406, elapsed: 0.0003120899200439453
ell 405, elapsed: 0.00030684471130371094
ell 404, elapsed: 0.00030493736267089844
ell 403, elapsed: 0.0003070831298828125
ell 402, elapsed: 0.00030303001403808594
ell 401, elapsed: 0.00030803680419921875
ell 400, elapsed: 0.00030517578125
ell 399, elapsed: 0.0003421306610107422
ell 398, elapsed: 0.00031304359436035156
ell 397, elapsed: 0.00030684471130371094
ell 396, elapsed: 0.0003058910369873047
ell 395, elapsed: 0.00030493736267089844
ell 394, elapsed: 0.00031304359436035156
ell 393, elapsed: 0.0003039836883544922
ell 392, elapsed: 0.00030612945556640625
ell 391, elapsed: 0.0003101825714111328
ell 390, elapsed: 0.0003070831298828125
ell 389, elapsed: 0.00031304359436035156
ell 388, elapsed: 0.000308990478515625
ell 387, elapsed: 0.00034689903259277344
ell 386, elapsed: 0.0003261566162109375
ell 385, elapsed: 0.0003139972686767578
ell 384, elapsed: 0.0003178119659423828
ell 383, elapsed: 0.000308990478515625
ell 382, elapsed: 0.0003161430358886719
ell 381, elapsed: 0.0003180503845214844
ell 380, elapsed: 0.0003190040588378906
ell 379, elapsed: 0.00031495094299316406
ell 378, elapsed: 0.00031495094299316406
ell 377, elapsed: 0.0003139972686767578
ell 376, elapsed: 0.0003199577331542969
ell 375, elapsed: 0.0003178119659423828
ell 374, elapsed: 0.00031113624572753906
ell 373, elapsed: 0.0002968311309814453
ell 372, elapsed: 0.0002989768981933594
ell 371, elapsed: 0.0003020763397216797
ell 370, elapsed: 0.0003008842468261719
ell 369, elapsed: 0.0003218650817871094
ell 368, elapsed: 0.00030493736267089844
ell 367, elapsed: 0.0003001689910888672
ell 366, elapsed: 0.0002989768981933594
ell 365, elapsed: 0.0002968311309814453
ell 364, elapsed: 0.0003008842468261719
ell 363, elapsed: 0.0003199577331542969
ell 362, elapsed: 0.0003039836883544922
ell 361, elapsed: 0.0002980232238769531
ell 360, elapsed: 0.0002999305725097656
ell 359, elapsed: 0.00030493736267089844
ell 358, elapsed: 0.0003058910369873047
ell 357, elapsed: 0.0002989768981933594
ell 356, elapsed: 0.00029206275939941406
ell 355, elapsed: 0.0002949237823486328
ell 354, elapsed: 0.00029587745666503906
ell 353, elapsed: 0.00029397010803222656
ell 352, elapsed: 0.0002970695495605469
ell 351, elapsed: 0.0003540515899658203
ell 350, elapsed: 0.0002970695495605469
ell 349, elapsed: 0.00030303001403808594
ell 348, elapsed: 0.00029397010803222656
ell 347, elapsed: 0.00030303001403808594
ell 346, elapsed: 0.0002980232238769531
ell 345, elapsed: 0.0002970695495605469
ell 344, elapsed: 0.0002961158752441406
ell 343, elapsed: 0.00029397010803222656
ell 342, elapsed: 0.0003039836883544922
ell 341, elapsed: 0.00029206275939941406
ell 340, elapsed: 0.0002949237823486328
ell 339, elapsed: 0.0003120899200439453
ell 338, elapsed: 0.00033402442932128906
ell 337, elapsed: 0.00030493736267089844
ell 336, elapsed: 0.00031113624572753906
ell 335, elapsed: 0.00030493736267089844
ell 334, elapsed: 0.00030112266540527344
ell 333, elapsed: 0.0002999305725097656
ell 332, elapsed: 0.0003008842468261719
ell 331, elapsed: 0.0003001689910888672
ell 330, elapsed: 0.0003070831298828125
ell 329, elapsed: 0.0002989768981933594
ell 328, elapsed: 0.0002980232238769531
ell 327, elapsed: 0.00031685829162597656
ell 326, elapsed: 0.00034308433532714844
ell 325, elapsed: 0.000308990478515625
ell 324, elapsed: 0.0002999305725097656
ell 323, elapsed: 0.00030303001403808594
ell 322, elapsed: 0.00030803680419921875
ell 321, elapsed: 0.0003008842468261719
ell 320, elapsed: 0.0003070831298828125
ell 319, elapsed: 0.0003018379211425781
ell 318, elapsed: 0.0003077983856201172
ell 317, elapsed: 0.00031304359436035156
ell 316, elapsed: 0.00030493736267089844
ell 315, elapsed: 0.0003108978271484375
ell 314, elapsed: 0.00034499168395996094
ell 313, elapsed: 0.0003039836883544922
ell 312, elapsed: 0.0003108978271484375
ell 311, elapsed: 0.00030493736267089844
ell 310, elapsed: 0.00030803680419921875
ell 309, elapsed: 0.0003020763397216797
ell 308, elapsed: 0.0003058910369873047
ell 307, elapsed: 0.00030994415283203125
ell 306, elapsed: 0.000308990478515625
ell 305, elapsed: 0.0003058910369873047
ell 304, elapsed: 0.00030493736267089844
ell 303, elapsed: 0.000308990478515625
ell 302, elapsed: 0.00030493736267089844
ell 301, elapsed: 0.0003368854522705078
ell 300, elapsed: 0.0003139972686767578
ell 299, elapsed: 0.00030112266540527344
ell 298, elapsed: 0.00031185150146484375
ell 297, elapsed: 0.0003058910369873047
ell 296, elapsed: 0.00030803680419921875
ell 295, elapsed: 0.00030517578125
ell 294, elapsed: 0.00030684471130371094
ell 293, elapsed: 0.0003039836883544922
ell 292, elapsed: 0.0002970695495605469
ell 291, elapsed: 0.00030112266540527344
ell 290, elapsed: 0.0003180503845214844
ell 289, elapsed: 0.0003669261932373047
ell 288, elapsed: 0.0003120899200439453
ell 287, elapsed: 0.00030994415283203125
ell 286, elapsed: 0.0003039836883544922
ell 285, elapsed: 0.00030994415283203125
ell 284, elapsed: 0.0003161430358886719
ell 283, elapsed: 0.0003170967102050781
ell 282, elapsed: 0.0003120899200439453
ell 281, elapsed: 0.00030803680419921875
ell 280, elapsed: 0.00030994415283203125
ell 279, elapsed: 0.00031185150146484375
ell 278, elapsed: 0.0003139972686767578
ell 277, elapsed: 0.0003490447998046875
ell 276, elapsed: 0.0002999305725097656
ell 275, elapsed: 0.0003008842468261719
ell 274, elapsed: 0.0002999305725097656
ell 273, elapsed: 0.0002999305725097656
ell 272, elapsed: 0.000308990478515625
ell 271, elapsed: 0.00030517578125
ell 270, elapsed: 0.0003039836883544922
ell 269, elapsed: 0.00030684471130371094
ell 268, elapsed: 0.00030612945556640625
ell 267, elapsed: 0.0003070831298828125
ell 266, elapsed: 0.0003058910369873047
ell 265, elapsed: 0.00033092498779296875
ell 264, elapsed: 0.00030612945556640625
ell 263, elapsed: 0.00030612945556640625
ell 262, elapsed: 0.0002989768981933594
ell 261, elapsed: 0.00030803680419921875
ell 260, elapsed: 0.0003058910369873047
ell 259, elapsed: 0.00030303001403808594
ell 258, elapsed: 0.0003018379211425781
ell 257, elapsed: 0.0002999305725097656
ell 256, elapsed: 0.00030422210693359375
ell 255, elapsed: 0.0002989768981933594
ell 254, elapsed: 0.0002980232238769531
ell 253, elapsed: 0.0003540515899658203
ell 252, elapsed: 0.00030303001403808594
ell 251, elapsed: 0.0002980232238769531
ell 250, elapsed: 0.00030493736267089844
ell 249, elapsed: 0.0003008842468261719
ell 248, elapsed: 0.00031495094299316406
ell 247, elapsed: 0.00030493736267089844
ell 246, elapsed: 0.0003070831298828125
ell 245, elapsed: 0.0003008842468261719
ell 244, elapsed: 0.00030994415283203125
ell 243, elapsed: 0.0003058910369873047
ell 242, elapsed: 0.0003039836883544922
ell 241, elapsed: 0.0003070831298828125
ell 240, elapsed: 0.0003387928009033203
ell 239, elapsed: 0.0003159046173095703
ell 238, elapsed: 0.0003101825714111328
ell 237, elapsed: 0.00030803680419921875
ell 236, elapsed: 0.00030994415283203125
ell 235, elapsed: 0.0002980232238769531
ell 234, elapsed: 0.000308990478515625
ell 233, elapsed: 0.0003008842468261719
ell 232, elapsed: 0.0003039836883544922
ell 231, elapsed: 0.00030803680419921875
ell 230, elapsed: 0.000308990478515625
ell 229, elapsed: 0.0003058910369873047
ell 228, elapsed: 0.0003371238708496094
ell 227, elapsed: 0.0003018379211425781
ell 226, elapsed: 0.00031304359436035156
ell 225, elapsed: 0.0003001689910888672
ell 224, elapsed: 0.00030493736267089844
ell 223, elapsed: 0.0003039836883544922
ell 222, elapsed: 0.000308990478515625
ell 221, elapsed: 0.000308990478515625
ell 220, elapsed: 0.0003058910369873047
ell 219, elapsed: 0.00030493736267089844
ell 218, elapsed: 0.00030517578125
ell 217, elapsed: 0.00030493736267089844
ell 216, elapsed: 0.00036597251892089844
ell 215, elapsed: 0.0003039836883544922
ell 214, elapsed: 0.0003070831298828125
ell 213, elapsed: 0.000308990478515625
ell 212, elapsed: 0.000308990478515625
ell 211, elapsed: 0.00030303001403808594
ell 210, elapsed: 0.0003039836883544922
ell 209, elapsed: 0.0003070831298828125
ell 208, elapsed: 0.0003039836883544922
ell 207, elapsed: 0.0003020763397216797
ell 206, elapsed: 0.0003020763397216797
ell 205, elapsed: 0.000308990478515625
ell 204, elapsed: 0.0003790855407714844
ell 203, elapsed: 0.000308990478515625
ell 202, elapsed: 0.000308990478515625
ell 201, elapsed: 0.0003008842468261719
ell 200, elapsed: 0.0002999305725097656
ell 199, elapsed: 0.00032019615173339844
ell 198, elapsed: 0.0003039836883544922
ell 197, elapsed: 0.00031280517578125
ell 196, elapsed: 0.00030994415283203125
ell 195, elapsed: 0.00030684471130371094
ell 194, elapsed: 0.00031495094299316406
ell 193, elapsed: 0.000308990478515625
ell 192, elapsed: 0.00034999847412109375
ell 191, elapsed: 0.00030303001403808594
ell 190, elapsed: 0.00030493736267089844
ell 189, elapsed: 0.00030612945556640625
ell 188, elapsed: 0.00030112266540527344
ell 187, elapsed: 0.0003070831298828125
ell 186, elapsed: 0.0003039836883544922
ell 185, elapsed: 0.00030994415283203125
ell 184, elapsed: 0.0003170967102050781
ell 183, elapsed: 0.0003077983856201172
ell 182, elapsed: 0.00031113624572753906
ell 181, elapsed: 0.0003070831298828125
ell 180, elapsed: 0.0003559589385986328
ell 179, elapsed: 0.00030684471130371094
ell 178, elapsed: 0.00030493736267089844
ell 177, elapsed: 0.0003058910369873047
ell 176, elapsed: 0.00030303001403808594
ell 175, elapsed: 0.00030612945556640625
ell 174, elapsed: 0.00030612945556640625
ell 173, elapsed: 0.0002999305725097656
ell 172, elapsed: 0.00030612945556640625
ell 171, elapsed: 0.0002999305725097656
ell 170, elapsed: 0.0003058910369873047
ell 169, elapsed: 0.0003058910369873047
ell 168, elapsed: 0.0003020763397216797
ell 167, elapsed: 0.00032901763916015625
ell 166, elapsed: 0.0003020763397216797
ell 165, elapsed: 0.00030493736267089844
ell 164, elapsed: 0.0002989768981933594
ell 163, elapsed: 0.00030612945556640625
ell 162, elapsed: 0.0003039836883544922
ell 161, elapsed: 0.0003039836883544922
ell 160, elapsed: 0.00030303001403808594
ell 159, elapsed: 0.00030303001403808594
ell 158, elapsed: 0.0003001689910888672
ell 157, elapsed: 0.0003070831298828125
ell 156, elapsed: 0.00030303001403808594
ell 155, elapsed: 0.0003299713134765625
ell 154, elapsed: 0.0003008842468261719
ell 153, elapsed: 0.00030803680419921875
ell 152, elapsed: 0.0003018379211425781
ell 151, elapsed: 0.0002968311309814453
ell 150, elapsed: 0.00031495094299316406
ell 149, elapsed: 0.0003020763397216797
ell 148, elapsed: 0.0003070831298828125
ell 147, elapsed: 0.00030493736267089844
ell 146, elapsed: 0.00029921531677246094
ell 145, elapsed: 0.00030422210693359375
ell 144, elapsed: 0.00030493736267089844
ell 143, elapsed: 0.00037407875061035156
ell 142, elapsed: 0.0002989768981933594
ell 141, elapsed: 0.0003039836883544922
ell 140, elapsed: 0.0002999305725097656
ell 139, elapsed: 0.0002980232238769531
ell 138, elapsed: 0.00030994415283203125
ell 137, elapsed: 0.0003008842468261719
ell 136, elapsed: 0.0003001689910888672
ell 135, elapsed: 0.0003070831298828125
ell 134, elapsed: 0.0002980232238769531
ell 133, elapsed: 0.00030517578125
ell 132, elapsed: 0.00030303001403808594
ell 131, elapsed: 0.0002989768981933594
ell 130, elapsed: 0.0003070831298828125
ell 129, elapsed: 0.0002989768981933594
ell 128, elapsed: 0.000308990478515625
ell 127, elapsed: 0.0002999305725097656
ell 126, elapsed: 0.000308990478515625
ell 125, elapsed: 0.0003018379211425781
ell 124, elapsed: 0.0002999305725097656
ell 123, elapsed: 0.00030303001403808594
ell 122, elapsed: 0.00029921531677246094
ell 121, elapsed: 0.0003039836883544922
ell 120, elapsed: 0.00030112266540527344
ell 119, elapsed: 0.00030493736267089844
ell 118, elapsed: 0.0003490447998046875
ell 117, elapsed: 0.0003039836883544922
ell 116, elapsed: 0.0003070831298828125
ell 115, elapsed: 0.0003027915954589844
ell 114, elapsed: 0.00030303001403808594
ell 113, elapsed: 0.00030684471130371094
ell 112, elapsed: 0.0003039836883544922
ell 111, elapsed: 0.0003108978271484375
ell 110, elapsed: 0.00030803680419921875
ell 109, elapsed: 0.00030684471130371094
ell 108, elapsed: 0.000308990478515625
ell 107, elapsed: 0.00030493736267089844
ell 106, elapsed: 0.0003418922424316406
ell 105, elapsed: 0.00030517578125
ell 104, elapsed: 0.00030112266540527344
ell 103, elapsed: 0.00031304359436035156
ell 102, elapsed: 0.00030612945556640625
ell 101, elapsed: 0.000308990478515625
ell 100, elapsed: 0.00030493736267089844
ell 99, elapsed: 0.00030493736267089844
ell 98, elapsed: 0.00030422210693359375
ell 97, elapsed: 0.0002999305725097656
ell 96, elapsed: 0.0003077983856201172
ell 95, elapsed: 0.0003039836883544922
ell 94, elapsed: 0.0003478527069091797
ell 93, elapsed: 0.0003058910369873047
ell 92, elapsed: 0.0002989768981933594
ell 91, elapsed: 0.00030994415283203125
ell 90, elapsed: 0.0003001689910888672
ell 89, elapsed: 0.0003070831298828125
ell 88, elapsed: 0.00032019615173339844
ell 87, elapsed: 0.0003020763397216797
ell 86, elapsed: 0.00030994415283203125
ell 85, elapsed: 0.00029587745666503906
ell 84, elapsed: 0.00030493736267089844
ell 83, elapsed: 0.00030994415283203125
ell 82, elapsed: 0.00030303001403808594
ell 81, elapsed: 0.00030612945556640625
ell 80, elapsed: 0.0003001689910888672
ell 79, elapsed: 0.00030303001403808594
ell 78, elapsed: 0.00030112266540527344
ell 77, elapsed: 0.0003001689910888672
ell 76, elapsed: 0.0003039836883544922
ell 75, elapsed: 0.000308990478515625
ell 74, elapsed: 0.0003039836883544922
ell 73, elapsed: 0.0003120899200439453
ell 72, elapsed: 0.00030303001403808594
ell 71, elapsed: 0.00030493736267089844
ell 70, elapsed: 0.0002999305725097656
ell 69, elapsed: 0.0004100799560546875
ell 68, elapsed: 0.000308990478515625
ell 67, elapsed: 0.0002989768981933594
ell 66, elapsed: 0.00030684471130371094
ell 65, elapsed: 0.00030303001403808594
ell 64, elapsed: 0.0003139972686767578
ell 63, elapsed: 0.00030303001403808594
ell 62, elapsed: 0.00031113624572753906
ell 61, elapsed: 0.00030112266540527344
ell 60, elapsed: 0.0002999305725097656
ell 59, elapsed: 0.00031495094299316406
ell 58, elapsed: 0.0003070831298828125
ell 57, elapsed: 0.0003421306610107422
ell 56, elapsed: 0.0003020763397216797
ell 55, elapsed: 0.0002989768981933594
ell 54, elapsed: 0.0003058910369873047
ell 53, elapsed: 0.00030493736267089844
ell 52, elapsed: 0.0003139972686767578
ell 51, elapsed: 0.00030517578125
ell 50, elapsed: 0.00030612945556640625
ell 49, elapsed: 0.0003190040588378906
ell 48, elapsed: 0.0003039836883544922
ell 47, elapsed: 0.00030994415283203125
ell 46, elapsed: 0.00030493736267089844
ell 45, elapsed: 0.0003330707550048828
ell 44, elapsed: 0.0003180503845214844
ell 43, elapsed: 0.00030803680419921875
ell 42, elapsed: 0.0003249645233154297
ell 41, elapsed: 0.00030303001403808594
ell 40, elapsed: 0.000308990478515625
ell 39, elapsed: 0.0003151893615722656
ell 38, elapsed: 0.00030112266540527344
ell 37, elapsed: 0.0003070831298828125
ell 36, elapsed: 0.00030684471130371094
ell 35, elapsed: 0.00030994415283203125
ell 34, elapsed: 0.00030803680419921875
ell 33, elapsed: 0.0003540515899658203
ell 32, elapsed: 0.00030994415283203125
ell 31, elapsed: 0.0003020763397216797
ell 30, elapsed: 0.00031113624572753906
ell 29, elapsed: 0.0003108978271484375
ell 28, elapsed: 0.0003180503845214844
ell 27, elapsed: 0.0003120899200439453
ell 26, elapsed: 0.00030493736267089844
ell 25, elapsed: 0.0003178119659423828
ell 24, elapsed: 0.00030112266540527344
ell 23, elapsed: 0.0003018379211425781
ell 22, elapsed: 0.0003139972686767578
ell 21, elapsed: 0.00033402442932128906
ell 20, elapsed: 0.00030803680419921875
ell 19, elapsed: 0.0003058910369873047
ell 18, elapsed: 0.0002989768981933594
ell 17, elapsed: 0.00030684471130371094
ell 16, elapsed: 0.00030112266540527344
ell 15, elapsed: 0.00030994415283203125
ell 14, elapsed: 0.0002989768981933594
ell 13, elapsed: 0.0003008842468261719
ell 12, elapsed: 0.00030803680419921875
ell 11, elapsed: 0.0003058910369873047
ell 10, elapsed: 0.0003070831298828125
ell 9, elapsed: 0.00034117698669433594
ell 8, elapsed: 0.0003039836883544922
ell 7, elapsed: 0.0003101825714111328
ell 6, elapsed: 0.0003027915954589844
ell 5, elapsed: 0.0003190040588378906
ell 4, elapsed: 0.00030303001403808594
ell 3, elapsed: 0.00030612945556640625
ell 2, elapsed: 0.0003039836883544922
ell 1, elapsed: 0.0003039836883544922
ell 0, elapsed: 0.00030803680419921875
  0.425888 seconds (46.03 k allocations: 3.091 MiB, 6.91% compilation time)
elapsed: 0.00039505958557128906
step:          0.048982 sec (0 allocations: 0 byte, 0.0% gc time)
swapping:      0.000383 sec (0 allocations: 0 byte, 0.0% gc time)
calc_Mellell!: 0.006067 sec (0 allocations: 0 byte, 0.0% gc time)
  t0 :  0.001381 sec (0 allocations: 0 byte, 0.0% gc time)
  tm2 : 0.071538 sec (0 allocations: 0 byte, 0.0% gc time)
  tm2s: 0.00148 sec (0 allocations: 0 byte, 0.0% gc time)
  tm4 : 0.170564 sec (0 allocations: 0 byte, 0.0% gc time)
  tp2 : 0.0 sec (0 allocations: 0 byte, 0.0% gc time)
  tp2s: 0.0 sec (0 allocations: 0 byte, 0.0% gc time)
  tp4 : 0.0 sec (0 allocations: 0 byte, 0.0% gc time)
calc_wtdll!:   0.277364 sec (9.9 k allocations: 1.047 MB, 0.0% gc time)
calc_wljj!:    0.023875 sec (689 allocations: 10.766 KB, 0.0% gc time)
mult_prefac!:  0.0 sec (0 allocations: 0 byte, 0.0% gc time)
convert:       0.0 sec (0 allocations: 0 byte, 0.0% gc time)
write:         0.028762 sec (0 allocations: 0 byte, 0.0% gc time)
test_rand_2f1: 0.0 sec (0 allocations: 0 byte, 0.0% gc time)
Closing outfile out/Ml21-cache.bin...   0.000008 seconds
  0.000452 seconds (36 allocations: 27.953 KiB)
make_phi():   0.001485 seconds (8.18 k allocations: 237.844 KiB)
  0.116438 seconds (141.90 k allocations: 3.483 MiB)
tskip:       0.00063 sec (0 allocations: 0 byte, 0.0% gc time)
tread:       0.020725 sec (17 allocations: 10.641 KB, 0.0% gc time)
tmultphi:    0.008722 sec (0 allocations: 0 byte, 0.0% gc time)
tbrfft:      0.031199 sec (0 allocations: 0 byte, 0.0% gc time)
tmultprefac: 0.016009 sec (0 allocations: 0 byte, 0.0% gc time)
toutfunc:    0.035742 sec (127.507 k allocations: 2.312 MB, 0.0% gc time)
Testing R=1.0 ... passed
Calculating fmax: 
  dlrec    = 4
  dlrecRg1 = -4
  q=1.1, R=0.9:	  0.270425 seconds (105.72 k allocations: 15.273 MiB, 6.52% gc time)

  0.270725 seconds (105.78 k allocations: 15.307 MiB, 6.51% gc time)
ℓ = 1202
Δℓ = 4
ΔℓRg1 = -4
N = 1600
q = 1.1
kmin = 1.0e-5
kmax = 100000.00000000004
χ0 = 0.023029999999999995
RR = RR.tsv
ℓmax = ℓmax.bin
f21 = f21.bin
kmin = 1.0e-5
kmax = 100000.0
dlrec    = 4
dlrecRg1 = -4
Output size: 5741568 bytes = 0.005347251892089844 GiB
Output size: 51264 bytes = 4.774332046508789e-5 GiB
Reading 'out/F21EllCache'...   0.001075 seconds (197 allocations: 84.203 KiB)
ellmax: 1202
lmaxcache: 1202
fell[:,1,1] = ComplexF64[1.3482014726274674e-57 - 3.302141236118086e-73im, 1.357860004724329e-57 - 3.3257978169518355e-73im]
ell 1202, elapsed: 2.5987625122070312e-5
ell 1201, elapsed: 0.0003020763397216797
ell 1200, elapsed: 0.0003178119659423828
ell 1199, elapsed: 0.0002741813659667969
ell 1198, elapsed: 0.0002589225769042969
ell 1002, elapsed: 0.00830388069152832
ell 1001, elapsed: 0.0002899169921875
ell 1000, elapsed: 0.00027298927307128906
ell 999, elapsed: 0.0002720355987548828
ell 998, elapsed: 0.00026798248291015625
ell 902, elapsed: 0.004531145095825195
ell 901, elapsed: 0.00028896331787109375
ell 900, elapsed: 0.00026988983154296875
ell 899, elapsed: 0.0002770423889160156
ell 898, elapsed: 0.00026607513427734375
ell 802, elapsed: 0.004373073577880859
ell 801, elapsed: 0.00028514862060546875
ell 800, elapsed: 0.0002651214599609375
ell 799, elapsed: 0.00026988983154296875
ell 798, elapsed: 0.00026798248291015625
ell 702, elapsed: 0.004282951354980469
ell 701, elapsed: 0.0002949237823486328
ell 700, elapsed: 0.00027179718017578125
ell 699, elapsed: 0.00027108192443847656
ell 698, elapsed: 0.0002701282501220703
ell 602, elapsed: 0.004331111907958984
ell 601, elapsed: 0.00028896331787109375
ell 600, elapsed: 0.0003180503845214844
ell 599, elapsed: 0.00027179718017578125
ell 598, elapsed: 0.0002689361572265625
ell 502, elapsed: 0.004315853118896484
ell 501, elapsed: 0.0002789497375488281
ell 500, elapsed: 0.00026416778564453125
ell 499, elapsed: 0.00026917457580566406
ell 498, elapsed: 0.00027108192443847656
ell 402, elapsed: 0.0042591094970703125
ell 401, elapsed: 0.0002810955047607422
ell 400, elapsed: 0.0002732276916503906
ell 399, elapsed: 0.0002741813659667969
ell 398, elapsed: 0.0002701282501220703
ell 302, elapsed: 0.004326820373535156
ell 301, elapsed: 0.0002789497375488281
ell 300, elapsed: 0.00026798248291015625
ell 299, elapsed: 0.0002658367156982422
ell 298, elapsed: 0.0002701282501220703
ell 202, elapsed: 0.004330873489379883
ell 201, elapsed: 0.00028395652770996094
ell 200, elapsed: 0.00026702880859375
ell 199, elapsed: 0.00027298927307128906
ell 198, elapsed: 0.0002739429473876953
ell 152, elapsed: 0.0022881031036376953
ell 151, elapsed: 0.0002720355987548828
ell 150, elapsed: 0.00026988983154296875
ell 149, elapsed: 0.0002720355987548828
ell 148, elapsed: 0.0002720355987548828
ell 127, elapsed: 0.0011680126190185547
ell 126, elapsed: 0.0002779960632324219
ell 125, elapsed: 0.0003020763397216797
ell 124, elapsed: 0.0002620220184326172
ell 123, elapsed: 0.000263214111328125
ell 114, elapsed: 0.0006299018859863281
ell 113, elapsed: 0.0002548694610595703
ell 112, elapsed: 0.0002529621124267578
ell 111, elapsed: 0.0002551078796386719
ell 110, elapsed: 0.0002551078796386719
ell 102, elapsed: 0.0006000995635986328
ell 101, elapsed: 0.0002720355987548828
ell 100, elapsed: 0.0002739429473876953
ell 99, elapsed: 0.00026798248291015625
ell 98, elapsed: 0.00036406517028808594
ell 97, elapsed: 0.0003190040588378906
ell 96, elapsed: 0.0003039836883544922
ell 95, elapsed: 0.00030493736267089844
ell 94, elapsed: 0.00030684471130371094
ell 93, elapsed: 0.00031495094299316406
ell 92, elapsed: 0.00030994415283203125
ell 91, elapsed: 0.0003120899200439453
ell 90, elapsed: 0.0003139972686767578
ell 89, elapsed: 0.00030994415283203125
ell 88, elapsed: 0.00031495094299316406
ell 87, elapsed: 0.000308990478515625
ell 86, elapsed: 0.0003590583801269531
ell 85, elapsed: 0.00033092498779296875
ell 84, elapsed: 0.0003018379211425781
ell 83, elapsed: 0.00030612945556640625
ell 82, elapsed: 0.00030803680419921875
ell 81, elapsed: 0.0003039836883544922
ell 80, elapsed: 0.00031113624572753906
ell 79, elapsed: 0.00030112266540527344
ell 78, elapsed: 0.0003108978271484375
ell 77, elapsed: 0.0003008842468261719
ell 76, elapsed: 0.00030803680419921875
ell 75, elapsed: 0.00030803680419921875
ell 74, elapsed: 0.00034308433532714844
ell 73, elapsed: 0.0003139972686767578
ell 72, elapsed: 0.0003039836883544922
ell 71, elapsed: 0.00030493736267089844
ell 70, elapsed: 0.0003159046173095703
ell 69, elapsed: 0.0003058910369873047
ell 68, elapsed: 0.00030684471130371094
ell 67, elapsed: 0.0002980232238769531
ell 66, elapsed: 0.00030803680419921875
ell 65, elapsed: 0.00030803680419921875
ell 64, elapsed: 0.00030803680419921875
ell 63, elapsed: 0.0003139972686767578
ell 62, elapsed: 0.0003631114959716797
ell 61, elapsed: 0.0003139972686767578
ell 60, elapsed: 0.00031280517578125
ell 59, elapsed: 0.0003108978271484375
ell 58, elapsed: 0.0003120899200439453
ell 57, elapsed: 0.00030922889709472656
ell 56, elapsed: 0.0003161430358886719
ell 55, elapsed: 0.00031113624572753906
ell 54, elapsed: 0.0003108978271484375
ell 53, elapsed: 0.00031185150146484375
ell 52, elapsed: 0.0003058910369873047
ell 51, elapsed: 0.00030803680419921875
ell 50, elapsed: 0.0003399848937988281
ell 49, elapsed: 0.00031304359436035156
ell 48, elapsed: 0.00031113624572753906
ell 47, elapsed: 0.00030303001403808594
ell 46, elapsed: 0.0003039836883544922
ell 45, elapsed: 0.0003120899200439453
ell 44, elapsed: 0.00031185150146484375
ell 43, elapsed: 0.00030994415283203125
ell 42, elapsed: 0.00030612945556640625
ell 41, elapsed: 0.00031304359436035156
ell 40, elapsed: 0.00031304359436035156
ell 39, elapsed: 0.00031495094299316406
ell 38, elapsed: 0.0004267692565917969
ell 37, elapsed: 0.00031495094299316406
ell 36, elapsed: 0.0003108978271484375
ell 35, elapsed: 0.0003039836883544922
ell 34, elapsed: 0.00030517578125
ell 33, elapsed: 0.00031113624572753906
ell 32, elapsed: 0.0003101825714111328
ell 31, elapsed: 0.0003139972686767578
ell 30, elapsed: 0.000308990478515625
ell 29, elapsed: 0.00030493736267089844
ell 28, elapsed: 0.00030303001403808594
ell 27, elapsed: 0.0002999305725097656
ell 26, elapsed: 0.000347137451171875
ell 25, elapsed: 0.00030803680419921875
ell 24, elapsed: 0.0003120899200439453
ell 23, elapsed: 0.0003180503845214844
ell 22, elapsed: 0.00031685829162597656
ell 21, elapsed: 0.00031685829162597656
ell 20, elapsed: 0.0003159046173095703
ell 19, elapsed: 0.00031185150146484375
ell 18, elapsed: 0.0003161430358886719
ell 17, elapsed: 0.00031185150146484375
ell 16, elapsed: 0.0003159046173095703
ell 15, elapsed: 0.00030803680419921875
ell 14, elapsed: 0.0003428459167480469
ell 13, elapsed: 0.000308990478515625
ell 12, elapsed: 0.0003039836883544922
ell 11, elapsed: 0.000308990478515625
ell 10, elapsed: 0.0002999305725097656
ell 9, elapsed: 0.00030517578125
ell 8, elapsed: 0.0003178119659423828
ell 7, elapsed: 0.0003139972686767578
ell 6, elapsed: 0.00031495094299316406
ell 5, elapsed: 0.00030612945556640625
ell 4, elapsed: 0.00031495094299316406
ell 3, elapsed: 0.00030493736267089844
ell 2, elapsed: 0.00035309791564941406
ell 1, elapsed: 0.00030994415283203125
ell 0, elapsed: 0.0003108978271484375
  0.099437 seconds (11.51 k allocations: 719.594 KiB)
elapsed: 0.00038886070251464844
step:          0.048276 sec (0 allocations: 0 byte, 0.0% gc time)
swapping:      0.000326 sec (0 allocations: 0 byte, 0.0% gc time)
calc_Mellell!: 0.000851 sec (0 allocations: 0 byte, 0.0% gc time)
  t0 :  0.000235 sec (0 allocations: 0 byte, 0.0% gc time)
  tm2 : 0.009973 sec (0 allocations: 0 byte, 0.0% gc time)
  tm2s: 0.00025 sec (0 allocations: 0 byte, 0.0% gc time)
  tm4 : 0.024319 sec (0 allocations: 0 byte, 0.0% gc time)
  tp2 : 0.0 sec (0 allocations: 0 byte, 0.0% gc time)
  tp2s: 0.0 sec (0 allocations: 0 byte, 0.0% gc time)
  tp4 : 0.0 sec (0 allocations: 0 byte, 0.0% gc time)
calc_wtdll!:   0.035219 sec (1.344 k allocations: 147.0 KB, 0.0% gc time)
calc_wljj!:    0.00227 sec (6 allocations: 96 byte, 0.0% gc time)
mult_prefac!:  0.0 sec (0 allocations: 0 byte, 0.0% gc time)
convert:       0.0 sec (0 allocations: 0 byte, 0.0% gc time)
write:         0.002943 sec (0 allocations: 0 byte, 0.0% gc time)
test_rand_2f1: 0.0 sec (0 allocations: 0 byte, 0.0% gc time)
Closing outfile out/Ml21-cache.bin...   0.000008 seconds
  0.000541 seconds (36 allocations: 27.953 KiB)
make_phi():   0.001571 seconds (8.18 k allocations: 237.844 KiB)
  0.011016 seconds (11.65 k allocations: 308.688 KiB)
tskip:       1.9e-5 sec (0 allocations: 0 byte, 0.0% gc time)
tread:       0.00191 sec (17 allocations: 2.125 KB, 0.0% gc time)
tmultphi:    0.000868 sec (0 allocations: 0 byte, 0.0% gc time)
tbrfft:      0.003034 sec (0 allocations: 0 byte, 0.0% gc time)
tmultprefac: 0.001535 sec (0 allocations: 0 byte, 0.0% gc time)
toutfunc:    0.003348 sec (10.304 k allocations: 196.0 KB, 0.0% gc time)
Testing R=0.9 ... passed
Calculating fmax: 
  dlrec    = 4
  dlrecRg1 = -4
  q=1.1, R=0.8:	  0.198927 seconds (103.21 k allocations: 14.840 MiB)

  0.199095 seconds (103.26 k allocations: 14.874 MiB)
ℓ = 1202
Δℓ = 4
ΔℓRg1 = -4
N = 1600
q = 1.1
kmin = 1.0e-5
kmax = 100000.00000000004
χ0 = 0.023029999999999995
RR = RR.tsv
ℓmax = ℓmax.bin
f21 = f21.bin
kmin = 1.0e-5
kmax = 100000.0
dlrec    = 4
dlrecRg1 = -4
Output size: 5741568 bytes = 0.005347251892089844 GiB
Output size: 51264 bytes = 4.774332046508789e-5 GiB
Reading 'out/F21EllCache'...   0.000845 seconds (197 allocations: 84.203 KiB)
ellmax: 1202
lmaxcache: 1202
fell[:,1,1] = ComplexF64[7.519068145690986e-120 - 1.8416405474382574e-135im, 7.541664537386155e-120 - 1.847175067190611e-135im]
ell 1202, elapsed: 1.4066696166992188e-5
ell 1201, elapsed: 0.0003209114074707031
ell 1200, elapsed: 0.00028896331787109375
ell 1199, elapsed: 0.0002818107604980469
ell 1198, elapsed: 0.00028586387634277344
ell 1002, elapsed: 0.008400201797485352
ell 1001, elapsed: 0.0002760887145996094
ell 1000, elapsed: 0.00026798248291015625
ell 999, elapsed: 0.000263214111328125
ell 998, elapsed: 0.0002658367156982422
ell 902, elapsed: 0.004324913024902344
ell 901, elapsed: 0.0002779960632324219
ell 900, elapsed: 0.00026798248291015625
ell 899, elapsed: 0.00027298927307128906
ell 898, elapsed: 0.0002639293670654297
ell 802, elapsed: 0.004263877868652344
ell 801, elapsed: 0.0002758502960205078
ell 800, elapsed: 0.0002689361572265625
ell 799, elapsed: 0.00038886070251464844
ell 798, elapsed: 0.00026488304138183594
ell 702, elapsed: 0.004335165023803711
ell 701, elapsed: 0.0002770423889160156
ell 700, elapsed: 0.00026798248291015625
ell 699, elapsed: 0.000247955322265625
ell 698, elapsed: 0.0002770423889160156
ell 602, elapsed: 0.004357099533081055
ell 601, elapsed: 0.0002770423889160156
ell 600, elapsed: 0.00027108192443847656
ell 599, elapsed: 0.0002770423889160156
ell 598, elapsed: 0.00026988983154296875
ell 502, elapsed: 0.004297018051147461
ell 501, elapsed: 0.0003058910369873047
ell 500, elapsed: 0.0002689361572265625
ell 499, elapsed: 0.00026488304138183594
ell 498, elapsed: 0.00026702880859375
ell 402, elapsed: 0.0043070316314697266
ell 401, elapsed: 0.00026988983154296875
ell 400, elapsed: 0.00026297569274902344
ell 399, elapsed: 0.0002601146697998047
ell 398, elapsed: 0.00026106834411621094
ell 302, elapsed: 0.004358053207397461
ell 301, elapsed: 0.0002779960632324219
ell 300, elapsed: 0.00026798248291015625
ell 299, elapsed: 0.0002720355987548828
ell 298, elapsed: 0.0002970695495605469
ell 202, elapsed: 0.004533052444458008
ell 201, elapsed: 0.0002760887145996094
ell 200, elapsed: 0.0002658367156982422
ell 199, elapsed: 0.00026607513427734375
ell 198, elapsed: 0.00026297569274902344
ell 152, elapsed: 0.0022478103637695312
ell 151, elapsed: 0.00026798248291015625
ell 150, elapsed: 0.002947092056274414
ell 149, elapsed: 0.00028204917907714844
ell 148, elapsed: 0.00029087066650390625
ell 127, elapsed: 0.0011551380157470703
ell 126, elapsed: 0.0002639293670654297
ell 125, elapsed: 0.00026917457580566406
ell 124, elapsed: 0.00027108192443847656
ell 123, elapsed: 0.00026607513427734375
ell 114, elapsed: 0.0006558895111083984
ell 113, elapsed: 0.00027108192443847656
ell 112, elapsed: 0.00026106834411621094
ell 111, elapsed: 0.00026607513427734375
ell 110, elapsed: 0.0003209114074707031
ell 102, elapsed: 0.0006048679351806641
ell 101, elapsed: 0.00026297569274902344
ell 100, elapsed: 0.00026607513427734375
ell 99, elapsed: 0.0002701282501220703
ell 98, elapsed: 0.0002639293670654297
ell 97, elapsed: 0.0003139972686767578
ell 96, elapsed: 0.0003159046173095703
ell 95, elapsed: 0.00031495094299316406
ell 94, elapsed: 0.00030517578125
ell 93, elapsed: 0.0003108978271484375
ell 92, elapsed: 0.00034999847412109375
ell 91, elapsed: 0.0003108978271484375
ell 90, elapsed: 0.00031685829162597656
ell 89, elapsed: 0.0003159046173095703
ell 88, elapsed: 0.00033092498779296875
ell 87, elapsed: 0.00030684471130371094
ell 86, elapsed: 0.0003249645233154297
ell 85, elapsed: 0.0003170967102050781
ell 84, elapsed: 0.0003170967102050781
ell 83, elapsed: 0.00031685829162597656
ell 82, elapsed: 0.00031685829162597656
ell 81, elapsed: 0.0003261566162109375
ell 80, elapsed: 0.00033593177795410156
ell 79, elapsed: 0.0003139972686767578
ell 78, elapsed: 0.00032401084899902344
ell 77, elapsed: 0.0003039836883544922
ell 76, elapsed: 0.0003139972686767578
ell 75, elapsed: 0.000308990478515625
ell 74, elapsed: 0.0003001689910888672
ell 73, elapsed: 0.0003139972686767578
ell 72, elapsed: 0.000308990478515625
ell 71, elapsed: 0.0003218650817871094
ell 70, elapsed: 0.0003070831298828125
ell 69, elapsed: 0.0003170967102050781
ell 68, elapsed: 0.0003688335418701172
ell 67, elapsed: 0.0003020763397216797
ell 66, elapsed: 0.0003159046173095703
ell 65, elapsed: 0.00030612945556640625
ell 64, elapsed: 0.0003070831298828125
ell 63, elapsed: 0.0003077983856201172
ell 62, elapsed: 0.00030684471130371094
ell 61, elapsed: 0.0003180503845214844
ell 60, elapsed: 0.0003120899200439453
ell 59, elapsed: 0.0003058910369873047
ell 58, elapsed: 0.00031185150146484375
ell 57, elapsed: 0.0002989768981933594
ell 56, elapsed: 0.0003299713134765625
[...]
ell 782, elapsed: 0.0008301734924316406
ell 781, elapsed: 0.0005249977111816406
ell 780, elapsed: 0.0005269050598144531
ell 779, elapsed: 0.0005190372467041016
ell 778, elapsed: 0.0005738735198974609
ell 772, elapsed: 0.0011360645294189453
ell 771, elapsed: 0.0005860328674316406
ell 770, elapsed: 0.0005929470062255859
ell 769, elapsed: 0.0005869865417480469
ell 768, elapsed: 0.0005998611450195312
ell 762, elapsed: 0.0011191368103027344
ell 761, elapsed: 0.0004868507385253906
ell 760, elapsed: 0.0004870891571044922
ell 759, elapsed: 0.0004930496215820312
ell 758, elapsed: 0.0004901885986328125
ell 752, elapsed: 0.0008530616760253906
ell 751, elapsed: 0.0005199909210205078
ell 750, elapsed: 0.000579833984375
ell 749, elapsed: 0.0005960464477539062
ell 748, elapsed: 0.0006079673767089844
ell 742, elapsed: 0.001085042953491211
ell 741, elapsed: 0.0006020069122314453
ell 740, elapsed: 0.0006251335144042969
ell 739, elapsed: 0.0006000995635986328
ell 738, elapsed: 0.0006129741668701172
ell 732, elapsed: 0.0011219978332519531
ell 731, elapsed: 0.0006010532379150391
ell 730, elapsed: 0.0006351470947265625
ell 729, elapsed: 0.0006020069122314453
ell 728, elapsed: 0.000598907470703125
ell 722, elapsed: 0.0011081695556640625
ell 721, elapsed: 0.0005970001220703125
ell 720, elapsed: 0.0006048679351806641
ell 719, elapsed: 0.0006558895111083984
ell 718, elapsed: 0.0006120204925537109
ell 712, elapsed: 0.0011250972747802734
ell 711, elapsed: 0.0006029605865478516
ell 710, elapsed: 0.0006091594696044922
ell 709, elapsed: 0.0006289482116699219
ell 708, elapsed: 0.0006108283996582031
ell 702, elapsed: 0.0011169910430908203
ell 701, elapsed: 0.0006029605865478516
ell 700, elapsed: 0.0006110668182373047
ell 699, elapsed: 0.0006511211395263672
ell 698, elapsed: 0.0006170272827148438
ell 692, elapsed: 0.0011131763458251953
ell 691, elapsed: 0.0006191730499267578
ell 690, elapsed: 0.0006120204925537109
ell 689, elapsed: 0.0006420612335205078
ell 688, elapsed: 0.0006170272827148438
ell 682, elapsed: 0.0011420249938964844
ell 681, elapsed: 0.0006020069122314453
ell 680, elapsed: 0.0006139278411865234
ell 679, elapsed: 0.0006220340728759766
ell 678, elapsed: 0.0006439685821533203
ell 672, elapsed: 0.0011451244354248047
ell 671, elapsed: 0.0006070137023925781
ell 670, elapsed: 0.0006210803985595703
ell 669, elapsed: 0.0006139278411865234
ell 668, elapsed: 0.0007061958312988281
ell 662, elapsed: 0.0011610984802246094
ell 661, elapsed: 0.0006067752838134766
ell 660, elapsed: 0.0006198883056640625
ell 659, elapsed: 0.0006160736083984375
ell 658, elapsed: 0.0006270408630371094
ell 652, elapsed: 0.001180887222290039
ell 651, elapsed: 0.0006098747253417969
ell 650, elapsed: 0.0006160736083984375
ell 649, elapsed: 0.0006198883056640625
ell 648, elapsed: 0.0006668567657470703
ell 642, elapsed: 0.0012619495391845703
ell 641, elapsed: 0.0006248950958251953
ell 640, elapsed: 0.0006260871887207031
ell 639, elapsed: 0.0006239414215087891
ell 638, elapsed: 0.0006189346313476562
ell 632, elapsed: 0.0009398460388183594
ell 631, elapsed: 0.0004909038543701172
ell 630, elapsed: 0.0004949569702148438
ell 629, elapsed: 0.0004899501800537109
ell 628, elapsed: 0.000492095947265625
ell 622, elapsed: 0.0009469985961914062
ell 621, elapsed: 0.0005230903625488281
ell 620, elapsed: 0.0005230903625488281
ell 619, elapsed: 0.0005199909210205078
ell 618, elapsed: 0.0005240440368652344
ell 612, elapsed: 0.0009222030639648438
ell 611, elapsed: 0.0004711151123046875
ell 610, elapsed: 0.0004780292510986328
ell 609, elapsed: 0.00045609474182128906
ell 608, elapsed: 0.0004608631134033203
ell 602, elapsed: 0.0007598400115966797
ell 601, elapsed: 0.0004508495330810547
ell 600, elapsed: 0.0004591941833496094
ell 599, elapsed: 0.00045180320739746094
ell 598, elapsed: 0.00045609474182128906
ell 592, elapsed: 0.0007801055908203125
ell 591, elapsed: 0.0004489421844482422
ell 590, elapsed: 0.000453948974609375
ell 589, elapsed: 0.00045108795166015625
ell 588, elapsed: 0.00044989585876464844
ell 582, elapsed: 0.0007541179656982422
ell 581, elapsed: 0.0004439353942871094
ell 580, elapsed: 0.0004909038543701172
ell 579, elapsed: 0.00044608116149902344
ell 578, elapsed: 0.0004508495330810547
ell 572, elapsed: 0.0007510185241699219
ell 571, elapsed: 0.0004439353942871094
ell 570, elapsed: 0.0004508495330810547
ell 569, elapsed: 0.0004420280456542969
ell 568, elapsed: 0.0004489421844482422
ell 562, elapsed: 0.0007641315460205078
ell 561, elapsed: 0.0004448890686035156
ell 560, elapsed: 0.00045299530029296875
ell 559, elapsed: 0.0004439353942871094
ell 558, elapsed: 0.0004489421844482422
ell 552, elapsed: 0.0007460117340087891
ell 551, elapsed: 0.0004420280456542969
ell 550, elapsed: 0.00044798851013183594
ell 549, elapsed: 0.0004680156707763672
ell 548, elapsed: 0.00044798851013183594
ell 542, elapsed: 0.0007328987121582031
ell 541, elapsed: 0.0004401206970214844
ell 540, elapsed: 0.0004420280456542969
ell 539, elapsed: 0.00043892860412597656
ell 538, elapsed: 0.0004398822784423828
ell 532, elapsed: 0.0007700920104980469
ell 531, elapsed: 0.0004949569702148438
ell 530, elapsed: 0.0004990100860595703
ell 529, elapsed: 0.0004940032958984375
ell 528, elapsed: 0.0005128383636474609
ell 522, elapsed: 0.0008080005645751953
ell 521, elapsed: 0.0005087852478027344
ell 520, elapsed: 0.0009801387786865234
ell 519, elapsed: 0.0004999637603759766
ell 518, elapsed: 0.0005300045013427734
ell 512, elapsed: 0.0009081363677978516
ell 511, elapsed: 0.0005049705505371094
ell 510, elapsed: 0.0004749298095703125
ell 509, elapsed: 0.00045418739318847656
ell 508, elapsed: 0.0004611015319824219
ell 502, elapsed: 0.0007860660552978516
ell 501, elapsed: 0.00044989585876464844
ell 500, elapsed: 0.0004630088806152344
ell 499, elapsed: 0.0004630088806152344
ell 498, elapsed: 0.0005180835723876953
ell 492, elapsed: 0.0007688999176025391
ell 491, elapsed: 0.00045418739318847656
ell 490, elapsed: 0.0004620552062988281
ell 489, elapsed: 0.0004589557647705078
ell 488, elapsed: 0.0004620552062988281
ell 482, elapsed: 0.0007929801940917969
ell 481, elapsed: 0.0005648136138916016
ell 480, elapsed: 0.0005049705505371094
ell 479, elapsed: 0.00047898292541503906
ell 478, elapsed: 0.0004849433898925781
ell 472, elapsed: 0.000843048095703125
ell 471, elapsed: 0.00047397613525390625
ell 470, elapsed: 0.0004780292510986328
ell 469, elapsed: 0.0005421638488769531
ell 468, elapsed: 0.0005328655242919922
ell 462, elapsed: 0.0009520053863525391
ell 461, elapsed: 0.0005319118499755859
ell 460, elapsed: 0.0005369186401367188
ell 459, elapsed: 0.0005359649658203125
ell 458, elapsed: 0.0005848407745361328
ell 452, elapsed: 0.0009338855743408203
ell 451, elapsed: 0.0005340576171875
ell 450, elapsed: 0.0005400180816650391
ell 449, elapsed: 0.0005338191986083984
ell 448, elapsed: 0.0005400180816650391
ell 442, elapsed: 0.008987188339233398
ell 441, elapsed: 0.0005791187286376953
ell 440, elapsed: 0.0005500316619873047
ell 439, elapsed: 0.0005438327789306641
ell 438, elapsed: 0.0005671977996826172
ell 432, elapsed: 0.0009570121765136719
ell 431, elapsed: 0.0010688304901123047
ell 430, elapsed: 0.000576019287109375
ell 429, elapsed: 0.0005939006805419922
ell 428, elapsed: 0.0006098747253417969
ell 422, elapsed: 0.0010640621185302734
ell 421, elapsed: 0.0005781650543212891
ell 420, elapsed: 0.0005979537963867188
ell 419, elapsed: 0.0005891323089599609
ell 418, elapsed: 0.0005769729614257812
ell 412, elapsed: 0.0010499954223632812
ell 411, elapsed: 0.000598907470703125
ell 410, elapsed: 0.0005950927734375
ell 409, elapsed: 0.0006010532379150391
ell 408, elapsed: 0.0005998611450195312
ell 402, elapsed: 0.0010371208190917969
ell 401, elapsed: 0.0005910396575927734
ell 400, elapsed: 0.0005891323089599609
ell 399, elapsed: 0.0006110668182373047
ell 398, elapsed: 0.0006020069122314453
ell 392, elapsed: 0.0010712146759033203
ell 391, elapsed: 0.0005939006805419922
ell 390, elapsed: 0.0005879402160644531
ell 389, elapsed: 0.0006039142608642578
ell 388, elapsed: 0.0006771087646484375
ell 382, elapsed: 0.0010981559753417969
ell 381, elapsed: 0.0006449222564697266
ell 380, elapsed: 0.0006160736083984375
ell 379, elapsed: 0.0006558895111083984
ell 378, elapsed: 0.0005631446838378906
ell 372, elapsed: 0.001024007797241211
ell 371, elapsed: 0.0006039142608642578
ell 370, elapsed: 0.0006010532379150391
ell 369, elapsed: 0.0006279945373535156
ell 368, elapsed: 0.0006091594696044922
ell 362, elapsed: 0.0010399818420410156
ell 361, elapsed: 0.0005979537963867188
ell 360, elapsed: 0.0006480216979980469
ell 359, elapsed: 0.0005619525909423828
ell 358, elapsed: 0.0005509853363037109
ell 352, elapsed: 0.0009539127349853516
ell 351, elapsed: 0.0005421638488769531
ell 350, elapsed: 0.0005550384521484375
ell 349, elapsed: 0.0005860328674316406
ell 348, elapsed: 0.00055694580078125
ell 342, elapsed: 0.0010001659393310547
ell 341, elapsed: 0.0005519390106201172
ell 340, elapsed: 0.00055694580078125
ell 339, elapsed: 0.0005369186401367188
ell 338, elapsed: 0.0005478858947753906
ell 332, elapsed: 0.0009970664978027344
ell 331, elapsed: 0.0005340576171875
ell 330, elapsed: 0.0005471706390380859
ell 329, elapsed: 0.0005400180816650391
ell 328, elapsed: 0.0005428791046142578
ell 322, elapsed: 0.0010869503021240234
ell 321, elapsed: 0.000553131103515625
ell 320, elapsed: 0.0005500316619873047
ell 319, elapsed: 0.0005459785461425781
ell 318, elapsed: 0.0005481243133544922
ell 312, elapsed: 0.0010089874267578125
ell 311, elapsed: 0.0005691051483154297
ell 310, elapsed: 0.0005469322204589844
ell 309, elapsed: 0.0005428791046142578
ell 308, elapsed: 0.0005609989166259766
ell 302, elapsed: 0.0009770393371582031
ell 301, elapsed: 0.0005450248718261719
ell 300, elapsed: 0.0005869865417480469
ell 299, elapsed: 0.00055694580078125
ell 298, elapsed: 0.000553131103515625
ell 292, elapsed: 0.0009799003601074219
ell 291, elapsed: 0.0005497932434082031
ell 290, elapsed: 0.0005478858947753906
ell 289, elapsed: 0.0005459785461425781
ell 288, elapsed: 0.0005900859832763672
ell 282, elapsed: 0.0009839534759521484
ell 281, elapsed: 0.0005538463592529297
ell 280, elapsed: 0.0005640983581542969
ell 279, elapsed: 0.0005538463592529297
ell 278, elapsed: 0.000553131103515625
ell 272, elapsed: 0.0010221004486083984
ell 271, elapsed: 0.0005609989166259766
ell 270, elapsed: 0.0005679130554199219
ell 269, elapsed: 0.0005571842193603516
ell 268, elapsed: 0.0005590915679931641
ell 262, elapsed: 0.0011000633239746094
ell 261, elapsed: 0.0005540847778320312
ell 260, elapsed: 0.0005679130554199219
ell 259, elapsed: 0.0005550384521484375
ell 258, elapsed: 0.0005578994750976562
ell 252, elapsed: 0.0009999275207519531
ell 251, elapsed: 0.0005719661712646484
ell 250, elapsed: 0.0005590915679931641
ell 249, elapsed: 0.0005538463592529297
ell 248, elapsed: 0.0005581378936767578
ell 242, elapsed: 0.0009999275207519531
ell 241, elapsed: 0.0005550384521484375
ell 240, elapsed: 0.0006051063537597656
ell 239, elapsed: 0.0005640983581542969
ell 238, elapsed: 0.0005559921264648438
ell 232, elapsed: 0.000993967056274414
ell 231, elapsed: 0.0005600452423095703
ell 230, elapsed: 0.0005519390106201172
ell 229, elapsed: 0.0005748271942138672
ell 228, elapsed: 0.0005359649658203125
ell 222, elapsed: 0.0010199546813964844
ell 221, elapsed: 0.0005519390106201172
ell 220, elapsed: 0.0005950927734375
ell 219, elapsed: 0.0005891323089599609
ell 218, elapsed: 0.0005850791931152344
ell 212, elapsed: 0.0008931159973144531
ell 211, elapsed: 0.0004889965057373047
ell 210, elapsed: 0.0004999637603759766
ell 209, elapsed: 0.00048804283142089844
ell 208, elapsed: 0.0004849433898925781
ell 202, elapsed: 0.0008330345153808594
ell 201, elapsed: 0.0005331039428710938
ell 200, elapsed: 0.00048613548278808594
ell 199, elapsed: 0.0004870891571044922
ell 198, elapsed: 0.0004889965057373047
ell 192, elapsed: 0.0008640289306640625
ell 191, elapsed: 0.0004839897155761719
ell 190, elapsed: 0.00049591064453125
ell 189, elapsed: 0.0006258487701416016
ell 188, elapsed: 0.000579833984375
ell 182, elapsed: 0.0011050701141357422
ell 181, elapsed: 0.0005810260772705078
ell 180, elapsed: 0.0005769729614257812
ell 179, elapsed: 0.0006029605865478516
ell 178, elapsed: 0.0005929470062255859
ell 172, elapsed: 0.0010328292846679688
ell 171, elapsed: 0.0005881786346435547
ell 170, elapsed: 0.0005698204040527344
ell 169, elapsed: 0.0005691051483154297
ell 168, elapsed: 0.0006041526794433594
ell 162, elapsed: 0.0010120868682861328
ell 161, elapsed: 0.0005707740783691406
ell 160, elapsed: 0.0005631446838378906
ell 159, elapsed: 0.0005619525909423828
ell 158, elapsed: 0.0005660057067871094
ell 152, elapsed: 0.0010418891906738281
ell 151, elapsed: 0.0005791187286376953
ell 150, elapsed: 0.0005860328674316406
ell 149, elapsed: 0.0005619525909423828
ell 148, elapsed: 0.0005710124969482422
ell 142, elapsed: 0.0010509490966796875
ell 141, elapsed: 0.0005738735198974609
ell 140, elapsed: 0.0005669593811035156
ell 139, elapsed: 0.0005619525909423828
ell 138, elapsed: 0.0005640983581542969
ell 132, elapsed: 0.001007080078125
ell 131, elapsed: 0.0006060600280761719
ell 130, elapsed: 0.0005619525909423828
ell 129, elapsed: 0.0005660057067871094
ell 128, elapsed: 0.0005750656127929688
ell 122, elapsed: 0.0010199546813964844
ell 121, elapsed: 0.0005590915679931641
ell 120, elapsed: 0.0006611347198486328
ell 119, elapsed: 0.0005660057067871094
ell 118, elapsed: 0.0005781650543212891
ell 112, elapsed: 0.0010480880737304688
ell 111, elapsed: 0.00055694580078125
ell 110, elapsed: 0.0005650520324707031
ell 109, elapsed: 0.0005929470062255859
ell 108, elapsed: 0.0005688667297363281
ell 102, elapsed: 0.0010170936584472656
ell 101, elapsed: 0.003983974456787109
ell 100, elapsed: 0.002429962158203125
ell 99, elapsed: 0.0024089813232421875
ell 98, elapsed: 0.0024001598358154297
ell 92, elapsed: 0.0046350955963134766
ell 91, elapsed: 0.0024411678314208984
ell 90, elapsed: 0.00238800048828125
ell 89, elapsed: 0.0024759769439697266
ell 88, elapsed: 0.0023729801177978516
ell 82, elapsed: 0.004621982574462891
ell 81, elapsed: 0.002379894256591797
ell 80, elapsed: 0.002422809600830078
ell 79, elapsed: 0.002390146255493164
ell 78, elapsed: 0.0023992061614990234
ell 72, elapsed: 0.004589080810546875
ell 71, elapsed: 0.0024530887603759766
ell 70, elapsed: 0.0023610591888427734
ell 69, elapsed: 0.0023870468139648438
ell 68, elapsed: 0.0023720264434814453
ell 62, elapsed: 0.004559993743896484
ell 61, elapsed: 0.002357006072998047
ell 60, elapsed: 0.0023741722106933594
ell 59, elapsed: 0.002393960952758789
ell 58, elapsed: 0.0023620128631591797
ell 52, elapsed: 0.004647016525268555
ell 51, elapsed: 0.002424955368041992
ell 50, elapsed: 0.0024390220642089844
ell 49, elapsed: 0.0024089813232421875
ell 48, elapsed: 0.0024161338806152344
ell 42, elapsed: 0.004583835601806641
ell 41, elapsed: 0.0024709701538085938
ell 40, elapsed: 0.002395153045654297
ell 39, elapsed: 0.0024518966674804688
ell 38, elapsed: 0.0023908615112304688
ell 32, elapsed: 0.0046100616455078125
ell 31, elapsed: 0.0023801326751708984
ell 30, elapsed: 0.0024089813232421875
ell 29, elapsed: 0.0023679733276367188
ell 28, elapsed: 0.00238800048828125
ell 22, elapsed: 0.0046231746673583984
ell 21, elapsed: 0.0024361610412597656
ell 20, elapsed: 0.0023970603942871094
ell 19, elapsed: 0.0024671554565429688
ell 18, elapsed: 0.0024650096893310547
ell 12, elapsed: 0.00572514533996582
ell 11, elapsed: 0.0034132003784179688
ell 10, elapsed: 0.002629995346069336
ell 9, elapsed: 0.0045318603515625
ell 8, elapsed: 0.005244016647338867
  0.533642 seconds (68.56 k allocations: 12.176 MiB)
elapsed: 0.0033690929412841797
step:          0.046186 sec (0 allocations: 0 byte, 0.0% gc time)
swapping:      0.000436 sec (0 allocations: 0 byte, 0.0% gc time)
calc_Mellell!: 0.018718 sec (0 allocations: 0 byte, 0.0% gc time)
  t0 :  0.006451 sec (0 allocations: 0 byte, 0.0% gc time)
  tm2 : 0.050516 sec (0 allocations: 0 byte, 0.0% gc time)
  tm2s: 0.006705 sec (0 allocations: 0 byte, 0.0% gc time)
  tm4 : 0.118445 sec (0 allocations: 0 byte, 0.0% gc time)
  tp2 : 0.0 sec (0 allocations: 0 byte, 0.0% gc time)
  tp2s: 0.0 sec (0 allocations: 0 byte, 0.0% gc time)
  tp4 : 0.0 sec (0 allocations: 0 byte, 0.0% gc time)
calc_wtdll!:   0.369794 sec (48.6 k allocations: 11.096 MB, 0.0% gc time)
calc_wljj!:    0.020018 sec (69 allocations: 1.078 KB, 0.0% gc time)
mult_prefac!:  0.0 sec (0 allocations: 0 byte, 0.0% gc time)
convert:       0.0 sec (0 allocations: 0 byte, 0.0% gc time)
write:         0.024692 sec (0 allocations: 0 byte, 0.0% gc time)
test_rand_2f1: 0.0 sec (0 allocations: 0 byte, 0.0% gc time)
Closing outfile out/MlCache/MlCache.bin...   0.000010 seconds
xi, l=0, nu=0:   0.280259 seconds (603.17 k allocations: 32.988 MiB, 99.34% compilation time)
xi, l=0, nu=-2:  0.001607 seconds (114 allocations: 148.969 KiB)
Created 'out/xi.tsv'.
  q=1.1, R=0.6:	  0.397439 seconds (264.58 k allocations: 38.109 MiB)
  q=1.1, R=0.7:	  0.487274 seconds (276.43 k allocations: 40.113 MiB, 3.68% gc time)
  q=1.1, R=0.8:	  0.502824 seconds (271.87 k allocations: 39.334 MiB, 2.57% gc time)
  q=1.1, R=0.9:	  0.564743 seconds (266.68 k allocations: 38.464 MiB, 1.69% gc time)
  q=1.1, R=0.998:	 14.667318 seconds (114.96 k allocations: 7.588 MiB)
  q=1.1, R=1.0:	  0.003333 seconds (8.20 k allocations: 704.344 KiB)

ℓ = 1000
Δℓ = 4
ΔℓRg1 = -4
N = 4096
q = 1.1
kmin = 1.0e-5
kmax = 1000.0
χ0 = 0.001
RR = RR.tsv
ℓmax = ℓmax.bin
f21 = f21.bin
kmin = 1.0e-5
kmax = 1000.0
dlrec    = 4
dlrecRg1 = -4
Output size: 1573632 bytes = 0.0014655590057373047 GiB
Output size: 786816 bytes = 0.0007327795028686523 GiB
Reading 'out/F21EllCache'...   0.001085 seconds (198 allocations: 533.078 KiB)
ellmax: 1002
lmaxcache: 1000
fell[:,1,1] = ComplexF64[1.726292812820208e-224 - 4.2281979352226965e-240im, 1.7282693092099638e-224 - 4.233038955177178e-240im]
ell 1002, elapsed: 2.288818359375e-5
ell 1001, elapsed: 0.0007059574127197266
ell 1000, elapsed: 0.0008420944213867188
ell 999, elapsed: 0.004206180572509766
ell 998, elapsed: 0.004235029220581055
ell 44, elapsed: 0.599816083908081
ell 43, elapsed: 0.004027843475341797
ell 42, elapsed: 0.0040509700775146484
ell 41, elapsed: 0.0040209293365478516
ell 40, elapsed: 0.004080057144165039
  0.630997 seconds (4.59 k allocations: 322.266 KiB)
elapsed: 0.004782915115356445
step:          0.598059 sec (0 allocations: 0 byte, 0.0% gc time)
swapping:      0.000296 sec (0 allocations: 0 byte, 0.0% gc time)
calc_Mellell!: 0.000869 sec (0 allocations: 0 byte, 0.0% gc time)
  t0 :  0.00049 sec (0 allocations: 0 byte, 0.0% gc time)
  tm2 : 0.00761 sec (0 allocations: 0 byte, 0.0% gc time)
  tm2s: 0.000505 sec (0 allocations: 0 byte, 0.0% gc time)
  tm4 : 0.019289 sec (0 allocations: 0 byte, 0.0% gc time)
  tp2 : 0.0 sec (0 allocations: 0 byte, 0.0% gc time)
  tp2s: 0.0 sec (0 allocations: 0 byte, 0.0% gc time)
  tp4 : 0.0 sec (0 allocations: 0 byte, 0.0% gc time)
calc_wtdll!:   0.028047 sec (480 allocations: 52.5 KB, 0.0% gc time)
calc_wljj!:    0.000982 sec (1 allocations: 16 byte, 0.0% gc time)
mult_prefac!:  0.0 sec (0 allocations: 0 byte, 0.0% gc time)
convert:       0.0 sec (0 allocations: 0 byte, 0.0% gc time)
write:         0.000622 sec (0 allocations: 0 byte, 0.0% gc time)
test_rand_2f1: 0.0 sec (0 allocations: 0 byte, 0.0% gc time)
Closing outfile out/MlCache/MlCache.bin...   0.000004 seconds
  0.342215 seconds (38 allocations: 66.859 KiB)
make_phi():   0.006318 seconds (65 allocations: 275.984 KiB)
  0.038290 seconds (11.42 k allocations: 711.960 KiB, 89.78% compilation time)
tskip:       0.0 sec (0 allocations: 0 byte, 0.0% gc time)
tread:       0.000682 sec (17 allocations: 1.266 KB, 0.0% gc time)
tmultphi:    0.000243 sec (0 allocations: 0 byte, 0.0% gc time)
tbrfft:      0.001098 sec (0 allocations: 0 byte, 0.0% gc time)
tmultprefac: 0.000574 sec (0 allocations: 0 byte, 0.0% gc time)
toutfunc:    0.000167 sec (0 allocations: 0 byte, 0.0% gc time)
Created 'out/wl42_jj00.tsv'.
Created 'out/wl42_jj02.tsv'.
    Testing TwoFAST tests passed 
