Julia Version 1.6.0-DEV.961
Commit 73413fc2b2 (2020-09-17 22:47 UTC)
Platform Info:
  OS: Linux (x86_64-pc-linux-gnu)
  CPU: Intel(R) Xeon(R) Silver 4114 CPU @ 2.20GHz
  WORD_SIZE: 64
  LIBM: libopenlibm
  LLVM: libLLVM-9.0.1 (ORCJIT, skylake-avx512)
Environment:
  JULIA_DEPOT_PATH = ::/usr/local/share/julia
  JULIA_NUM_THREADS = 2

  Resolving package versions...
[ Info: LEGAL NOTICE: package operations send anonymous data about your system to https://pkg.julialang.org (your current package server), including the operating system and Julia versions you are using, and a random client UUID. Running `Pkg.telemetryinfo()` will show exactly what data is sent. See https://julialang.org/legal/data/ for more details about what this data is used for, how long it is retained, and how to opt out of sending it.
  Installed MKL_jll ────────────────────── v2020.2.254+0
  Installed CompilerSupportLibraries_jll ─ v0.3.3+0
  Installed FFTW_jll ───────────────────── v3.3.9+5
  Installed OpenSpecFun_jll ────────────── v0.5.3+3
  Installed GenericSVD ─────────────────── v0.3.0
  Installed SpecialFunctions ───────────── v0.10.3
  Installed FFTW ───────────────────────── v1.2.4
  Installed Reexport ───────────────────── v0.2.0
  Installed Readables ──────────────────── v0.3.3
  Installed BinaryProvider ─────────────── v0.5.10
  Installed GenericSchur ───────────────── v0.4.0
  Installed IntelOpenMP_jll ────────────── v2018.0.3+0
  Installed AbstractFFTs ───────────────── v0.5.0
  Installed TwoFAST ────────────────────── v0.1.3
  Installed ArbNumerics ────────────────── v1.2.1
Updating `~/.julia/environments/v1.6/Project.toml`
  [0dd23c3e] + TwoFAST v0.1.3
Updating `~/.julia/environments/v1.6/Manifest.toml`
  [621f4979] + AbstractFFTs v0.5.0
  [7e558dbc] + ArbNumerics v1.2.1
  [b99e7846] + BinaryProvider v0.5.10
  [e66e0078] + CompilerSupportLibraries_jll v0.3.3+0
  [7a1cc6ca] + FFTW v1.2.4
  [f5851436] + FFTW_jll v3.3.9+5
  [01680d73] + GenericSVD v0.3.0
  [c145ed77] + GenericSchur v0.4.0
  [1d5cc7b8] + IntelOpenMP_jll v2018.0.3+0
  [856f044c] + MKL_jll v2020.2.254+0
  [efe28fd5] + OpenSpecFun_jll v0.5.3+3
  [0d4725de] + Readables v0.3.3
  [189a3867] + Reexport v0.2.0
  [276daf66] + SpecialFunctions v0.10.3
  [0dd23c3e] + TwoFAST v0.1.3
  [2a0f44e3] + Base64
  [ade2ca70] + Dates
  [8bb1440f] + DelimitedFiles
  [8ba89e20] + Distributed
  [b77e0a4c] + InteractiveUtils
  [76f85450] + LibGit2
  [8f399da3] + Libdl
  [37e2e46d] + LinearAlgebra
  [56ddb016] + Logging
  [d6f4376e] + Markdown
  [a63ad114] + Mmap
  [44cfe95a] + Pkg
  [de0858da] + Printf
  [3fa0cd96] + REPL
  [9a3f8284] + Random
  [ea8e919c] + SHA
  [9e88b42a] + Serialization
  [6462fe0b] + Sockets
  [fa267f1f] + TOML
  [8dfed614] + Test
  [cf7118a7] + UUIDs
  [4ec0a83e] + Unicode
   Building FFTW ───────→ `~/.julia/packages/FFTW/DMUbN/deps/build.log`
   Building ArbNumerics → `~/.julia/packages/ArbNumerics/joGFm/deps/build.log`
    Testing TwoFAST
Status `/tmp/jl_UE1z08/Project.toml`
  [7e558dbc] ArbNumerics v1.2.1
  [39dd38d3] Dierckx v0.5.0
  [7a1cc6ca] FFTW v1.2.4
  [276daf66] SpecialFunctions v0.10.3
  [0dd23c3e] TwoFAST v0.1.3
  [8bb1440f] DelimitedFiles
  [37e2e46d] LinearAlgebra
  [56ddb016] Logging
  [8dfed614] Test
Status `/tmp/jl_UE1z08/Manifest.toml`
  [621f4979] AbstractFFTs v0.5.0
  [7e558dbc] ArbNumerics v1.2.1
  [b99e7846] BinaryProvider v0.5.10
  [e66e0078] CompilerSupportLibraries_jll v0.3.3+0
  [39dd38d3] Dierckx v0.5.0
  [cd4c43a9] Dierckx_jll v0.0.1+0
  [7a1cc6ca] FFTW v1.2.4
  [f5851436] FFTW_jll v3.3.9+5
  [01680d73] GenericSVD v0.3.0
  [c145ed77] GenericSchur v0.4.0
  [1d5cc7b8] IntelOpenMP_jll v2018.0.3+0
  [856f044c] MKL_jll v2020.2.254+0
  [efe28fd5] OpenSpecFun_jll v0.5.3+3
  [0d4725de] Readables v0.3.3
  [189a3867] Reexport v0.2.0
  [276daf66] SpecialFunctions v0.10.3
  [0dd23c3e] TwoFAST v0.1.3
  [2a0f44e3] Base64
  [ade2ca70] Dates
  [8bb1440f] DelimitedFiles
  [8ba89e20] Distributed
  [b77e0a4c] InteractiveUtils
  [76f85450] LibGit2
  [8f399da3] Libdl
  [37e2e46d] LinearAlgebra
  [56ddb016] Logging
  [d6f4376e] Markdown
  [a63ad114] Mmap
  [44cfe95a] Pkg
  [de0858da] Printf
  [3fa0cd96] REPL
  [9a3f8284] Random
  [ea8e919c] SHA
  [9e88b42a] Serialization
  [6462fe0b] Sockets
  [fa267f1f] TOML
  [8dfed614] Test
  [cf7118a7] UUIDs
  [4ec0a83e] Unicode
    Testing Running tests...
WARNING: could not import Printf.ini_hex into ArbNumerics
WARNING: could not import Printf.ini_HEX into ArbNumerics
t = 0.0 sec (0 allocations: 0 byte, 0.0% gc time)
typeof(t) = NamedTuple{(:value, :time, :bytes, :gctime, :gcstats), Tuple{DataType, Float64, Int64, Float64, Base.GC_Diff}}
TwoFAST.PerformanceStats.TimedType = Union{NamedTuple{(:value, :time, :bytes, :gctime, :gcstats), Tuple{T, Float64, Int64, Float64, Base.GC_Diff}}, Tuple{Any, Float64, Int64, Float64, Base.GC_Diff}} where T
t = 0.0 sec (0 allocations: 0 byte, 0.0% gc time)
t: 0.0 sec (0 allocations: 0 byte, 0.0% gc time)
Testing ξ(r), ℓ=0, ν=-1 ... passed
Testing ξ(r), ℓ=0, ν=0 ... passed
Testing ξ(r), ℓ=0, ν=1 ... passed
Testing ξ(r), ℓ=0, ν=2 ... passed
Testing ξ(r), ℓ=0, ν=3 ... passed
Testing ξ(r), ℓ=1, ν=0 ... passed
Testing ξ(r), ℓ=1, ν=1 ... passed
Testing ξ(r), ℓ=1, ν=2 ... passed
Testing ξ(r), ℓ=1, ν=3 ... passed
Testing ξ(r), ℓ=2, ν=-1 ... passed
Testing ξ(r), ℓ=2, ν=0 ... passed
Testing ξ(r), ℓ=2, ν=1 ... passed
Testing ξ(r), ℓ=2, ν=2 ... passed
Testing ξ(r), ℓ=2, ν=3 ... passed
Testing ξ(r), ℓ=3, ν=-1 ... passed
Testing ξ(r), ℓ=3, ν=0 ... passed
Testing ξ(r), ℓ=3, ν=1 ... passed
Testing ξ(r), ℓ=3, ν=2 ... passed
Testing ξ(r), ℓ=3, ν=3 ... passed
Testing ξ(r), ℓ=4, ν=-1 ... passed
Testing ξ(r), ℓ=4, ν=0 ... passed
Testing ξ(r), ℓ=4, ν=1 ... passed
Testing ξ(r), ℓ=4, ν=2 ... passed
Testing ξ(r), ℓ=4, ν=3 ... passed
Testing ξ(r) ... passed
Testing ξ′(r) ... passed
Testing ξ″(r) ... passed
Calculating fmax: 
  dlrec    = 4
  dlrecRg1 = -4
  q=1.1, R=1.1:	  3.946094 seconds (831.75 k allocations: 53.208 MiB)

  3.961093 seconds (844.48 k allocations: 54.000 MiB)
ℓ = 1202
Δℓ = 4
ΔℓRg1 = -4
N = 1600
q = 1.1
kmin = 1.0e-5
kmax = 100000.00000000004
χ0 = 0.023029999999999995
RR = RR.tsv
ℓmax = ℓmax.bin
f21 = f21.bin
kmin = 1.0e-5
kmax = 100000.0
dlrec    = 4
dlrecRg1 = -4
Output size: 5741568 bytes = 0.005347251892089844 GiB
Output size: 51264 bytes = 4.774332046508789e-5 GiB
Reading 'out/F21EllCache'...   0.605450 seconds (395.23 k allocations: 23.203 MiB, 3.28% gc time)
ellmax: 1202
lmaxcache: 1202
fell[:,1,1] = ComplexF64[3.9583795592771634e-52 - 9.695233714158177e-68im, 3.990121772925759e-52 - 9.772979714843386e-68im]
ell 1202, elapsed: 3.600120544433594e-5
ell 1201, elapsed: 1.2903339862823486
ell 1200, elapsed: 0.0007719993591308594
ell 1199, elapsed: 0.0006971359252929688
ell 1198, elapsed: 0.0007679462432861328
ell 1002, elapsed: 0.010368824005126953
ell 1001, elapsed: 0.0007288455963134766
ell 1000, elapsed: 0.0007021427154541016
ell 999, elapsed: 0.0006861686706542969
ell 998, elapsed: 0.0006940364837646484
ell 902, elapsed: 0.005511045455932617
ell 901, elapsed: 0.0007259845733642578
ell 900, elapsed: 0.0007059574127197266
ell 899, elapsed: 0.0006821155548095703
ell 898, elapsed: 0.0006771087646484375
ell 802, elapsed: 0.005547046661376953
ell 801, elapsed: 0.0007109642028808594
ell 800, elapsed: 0.0006918907165527344
ell 799, elapsed: 0.0007309913635253906
ell 798, elapsed: 0.0006721019744873047
ell 702, elapsed: 0.005507946014404297
ell 701, elapsed: 0.000720977783203125
ell 700, elapsed: 0.0006589889526367188
ell 699, elapsed: 0.0006420612335205078
ell 698, elapsed: 0.0006611347198486328
ell 602, elapsed: 0.005506992340087891
ell 601, elapsed: 0.0006749629974365234
ell 600, elapsed: 0.0007200241088867188
ell 599, elapsed: 0.0006449222564697266
ell 598, elapsed: 0.0006439685821533203
ell 502, elapsed: 0.005494117736816406
ell 501, elapsed: 0.0007138252258300781
ell 500, elapsed: 0.0006539821624755859
ell 499, elapsed: 0.0006620883941650391
ell 498, elapsed: 0.0006201267242431641
ell 402, elapsed: 0.005661964416503906
ell 401, elapsed: 0.0007171630859375
ell 400, elapsed: 0.0006577968597412109
ell 399, elapsed: 0.0006411075592041016
ell 398, elapsed: 0.0006380081176757812
ell 302, elapsed: 0.005424022674560547
ell 301, elapsed: 0.0005991458892822266
ell 300, elapsed: 0.0005059242248535156
ell 299, elapsed: 0.0005080699920654297
ell 298, elapsed: 0.0005228519439697266
ell 202, elapsed: 0.005162954330444336
ell 201, elapsed: 0.0005090236663818359
ell 200, elapsed: 0.0004999637603759766
ell 199, elapsed: 0.00049591064453125
ell 198, elapsed: 0.0005002021789550781
ell 152, elapsed: 0.002774953842163086
ell 151, elapsed: 0.0005052089691162109
ell 150, elapsed: 0.0005738735198974609
ell 149, elapsed: 0.0004990100860595703
ell 148, elapsed: 0.0004911422729492188
ell 127, elapsed: 0.0015339851379394531
ell 126, elapsed: 0.0004949569702148438
ell 125, elapsed: 0.0004940032958984375
ell 124, elapsed: 0.0005140304565429688
ell 123, elapsed: 0.0004971027374267578
ell 114, elapsed: 0.0010340213775634766
ell 113, elapsed: 0.0005030632019042969
ell 112, elapsed: 0.0004940032958984375
ell 111, elapsed: 0.0004899501800537109
ell 110, elapsed: 0.0005121231079101562
ell 102, elapsed: 0.00092315673828125
ell 101, elapsed: 0.0005431175231933594
ell 100, elapsed: 0.0005311965942382812
ell 99, elapsed: 0.0004909038543701172
ell 98, elapsed: 0.0004909038543701172
ell 97, elapsed: 0.0006570816040039062
ell 96, elapsed: 0.0005650520324707031
ell 95, elapsed: 0.0005841255187988281
ell 94, elapsed: 0.0006241798400878906
ell 93, elapsed: 0.0005590915679931641
ell 92, elapsed: 0.0005769729614257812
ell 91, elapsed: 0.0006580352783203125
ell 90, elapsed: 0.0006220340728759766
ell 89, elapsed: 0.0005941390991210938
ell 88, elapsed: 0.0005869865417480469
ell 87, elapsed: 0.0006170272827148438
ell 86, elapsed: 0.0006139278411865234
ell 85, elapsed: 0.0006101131439208984
ell 84, elapsed: 0.0005550384521484375
ell 83, elapsed: 0.0005609989166259766
ell 82, elapsed: 0.0005619525909423828
ell 81, elapsed: 0.0005710124969482422
ell 80, elapsed: 0.0005631446838378906
ell 79, elapsed: 0.0005548000335693359
ell 78, elapsed: 0.0007319450378417969
ell 77, elapsed: 0.0006442070007324219
ell 76, elapsed: 0.0007379055023193359
ell 75, elapsed: 0.0007159709930419922
ell 74, elapsed: 0.0007100105285644531
ell 73, elapsed: 0.0007040500640869141
ell 72, elapsed: 0.0007109642028808594
ell 71, elapsed: 0.0007269382476806641
ell 70, elapsed: 0.0007100105285644531
ell 69, elapsed: 0.0007030963897705078
ell 68, elapsed: 0.0007140636444091797
ell 67, elapsed: 0.0007078647613525391
ell 66, elapsed: 0.0007250308990478516
ell 65, elapsed: 0.0007450580596923828
ell 64, elapsed: 0.0007238388061523438
ell 63, elapsed: 0.0005648136138916016
ell 62, elapsed: 0.0006108283996582031
ell 61, elapsed: 0.0006051063537597656
ell 60, elapsed: 0.0005981922149658203
ell 59, elapsed: 0.0006358623504638672
ell 58, elapsed: 0.0006170272827148438
ell 57, elapsed: 0.0006220340728759766
ell 56, elapsed: 0.0006079673767089844
ell 55, elapsed: 0.0006020069122314453
ell 54, elapsed: 0.0006108283996582031
ell 53, elapsed: 0.000637054443359375
ell 52, elapsed: 0.0006241798400878906
ell 51, elapsed: 0.0006818771362304688
ell 50, elapsed: 0.0006699562072753906
ell 49, elapsed: 0.000804901123046875
ell 48, elapsed: 0.0006771087646484375
ell 47, elapsed: 0.0006699562072753906
ell 46, elapsed: 0.0006721019744873047
ell 45, elapsed: 0.0007510185241699219
ell 44, elapsed: 0.0006709098815917969
ell 43, elapsed: 0.0006690025329589844
ell 42, elapsed: 0.0006899833679199219
ell 41, elapsed: 0.0007319450378417969
ell 40, elapsed: 0.0006659030914306641
ell 39, elapsed: 0.0006890296936035156
ell 38, elapsed: 0.0007240772247314453
ell 37, elapsed: 0.0007040500640869141
ell 36, elapsed: 0.0006699562072753906
ell 35, elapsed: 0.0006811618804931641
ell 34, elapsed: 0.0007579326629638672
ell 33, elapsed: 0.0006771087646484375
ell 32, elapsed: 0.0006630420684814453
ell 31, elapsed: 0.0006670951843261719
ell 30, elapsed: 0.0007560253143310547
ell 29, elapsed: 0.0007090568542480469
ell 28, elapsed: 0.000637054443359375
ell 27, elapsed: 0.0006380081176757812
ell 26, elapsed: 0.0006630420684814453
ell 25, elapsed: 0.0007030963897705078
ell 24, elapsed: 0.0006449222564697266
ell 23, elapsed: 0.0006430149078369141
ell 22, elapsed: 0.000637054443359375
ell 21, elapsed: 0.0007059574127197266
ell 20, elapsed: 0.0006859302520751953
ell 19, elapsed: 0.0006389617919921875
ell 18, elapsed: 0.0006439685821533203
ell 17, elapsed: 0.0006310939788818359
ell 16, elapsed: 0.0007429122924804688
ell 15, elapsed: 0.0006430149078369141
ell 14, elapsed: 0.0006320476531982422
ell 13, elapsed: 0.0006380081176757812
ell 12, elapsed: 0.0006358623504638672
ell 11, elapsed: 0.0007700920104980469
ell 10, elapsed: 0.0006449222564697266
ell 9, elapsed: 0.0007100105285644531
ell 8, elapsed: 0.0006320476531982422
ell 7, elapsed: 0.0007529258728027344
ell 6, elapsed: 0.0007169246673583984
ell 5, elapsed: 0.0007171630859375
ell 4, elapsed: 0.0007131099700927734
ell 3, elapsed: 0.0007290840148925781
ell 2, elapsed: 0.0007319450378417969
ell 1, elapsed: 0.0006539821624755859
ell 0, elapsed: 0.0006449222564697266
  1.991909 seconds (1.26 M allocations: 69.505 MiB, 3.25% gc time)
elapsed: 0.0016829967498779297
step:          0.362011 sec (303.505 k allocations: 16.465 MB, 12.1% gc time)
swapping:      0.000531 sec (0 allocations: 0 byte, 0.0% gc time)
calc_Mellell!: 0.141628 sec (131.11 k allocations: 7.129 MB, 0.0% gc time)
  t0 :  0.0 sec (0 allocations: 0 byte, 0.0% gc time)
  tm2 : 0.0 sec (0 allocations: 0 byte, 0.0% gc time)
  tm2s: 0.0 sec (0 allocations: 0 byte, 0.0% gc time)
  tm4 : 0.0 sec (0 allocations: 0 byte, 0.0% gc time)
  tp2 : 0.0 sec (0 allocations: 0 byte, 0.0% gc time)
  tp2s: 0.0 sec (0 allocations: 0 byte, 0.0% gc time)
  tp4 : 0.0 sec (0 allocations: 0 byte, 0.0% gc time)
calc_wtdll!:   0.916453 sec (510.816 k allocations: 28.24 MB, 0.0% gc time)
calc_wljj!:    0.003658 sec (6 allocations: 96 byte, 0.0% gc time)
mult_prefac!:  0.0 sec (0 allocations: 0 byte, 0.0% gc time)
convert:       0.0 sec (0 allocations: 0 byte, 0.0% gc time)
write:         0.004327 sec (0 allocations: 0 byte, 0.0% gc time)
test_rand_2f1: 0.0 sec (0 allocations: 0 byte, 0.0% gc time)
Closing outfile out/Ml21-cache.bin...   0.000025 seconds
  1.265894 seconds (348.09 k allocations: 21.171 MiB)
make_phi():   0.014978 seconds (9.47 k allocations: 257.875 KiB)
  0.280483 seconds (87.83 k allocations: 4.758 MiB, 8.39% gc time)
tskip:       3.0e-5 sec (0 allocations: 0 byte, 0.0% gc time)
tread:       0.003355 sec (17 allocations: 2.125 KB, 0.0% gc time)
tmultphi:    0.058693 sec (21.564 k allocations: 1.294 MB, 0.0% gc time)
tbrfft:      0.007467 sec (0 allocations: 0 byte, 0.0% gc time)
tmultprefac: 0.006872 sec (0 allocations: 0 byte, 0.0% gc time)
toutfunc:    0.165854 sec (64.602 k allocations: 3.333 MB, 14.2% gc time)
Testing R=1.1 ... passed
Calculating fmax: 
  dlrec    = 4
  dlrecRg1 = -4
  q=1.1, R=1.0:	  0.001694 seconds (3.20 k allocations: 275.344 KiB)

  0.001914 seconds (3.34 k allocations: 311.422 KiB)
ℓ = 1202
Δℓ = 4
ΔℓRg1 = -4
N = 1600
q = 1.1
kmin = 1.0e-5
kmax = 100000.00000000004
χ0 = 0.023029999999999995
RR = RR.tsv
ℓmax = ℓmax.bin
f21 = f21.bin
kmin = 1.0e-5
kmax = 100000.0
dlrec    = 4
dlrecRg1 = -4
Output size: 61465536 bytes = 0.05724424123764038 GiB
Output size: 51264 bytes = 4.774332046508789e-5 GiB
Reading 'out/F21EllCache'...   0.001127 seconds (197 allocations: 84.203 KiB)
ellmax: 1202
lmaxcache: 1202
fell[:,1,1] = ComplexF64[809.6031528389767 - 1.9829558194077161e-13im, 0.0 + 0.0im]
ell 1202, elapsed: 3.409385681152344e-5
ell 1201, elapsed: 0.014511823654174805
ell 1200, elapsed: 0.01530909538269043
ell 1199, elapsed: 0.00039505958557128906
ell 1198, elapsed: 0.00037598609924316406
ell 1197, elapsed: 0.0004730224609375
ell 1196, elapsed: 0.00045800209045410156
ell 1195, elapsed: 0.0004470348358154297
ell 1194, elapsed: 0.00044798851013183594
ell 1193, elapsed: 0.0004458427429199219
ell 1192, elapsed: 0.0005540847778320312
ell 1191, elapsed: 0.00044083595275878906
ell 1190, elapsed: 0.0004367828369140625
ell 1189, elapsed: 0.0004467964172363281
ell 1188, elapsed: 0.0004451274871826172
ell 1187, elapsed: 0.0004420280456542969
ell 1186, elapsed: 0.0004489421844482422
ell 1185, elapsed: 0.0004391670227050781
ell 1184, elapsed: 0.0005340576171875
ell 1183, elapsed: 0.00045108795166015625
ell 1182, elapsed: 0.0004379749298095703
ell 1181, elapsed: 0.0004489421844482422
ell 1180, elapsed: 0.0004429817199707031
ell 1179, elapsed: 0.00043702125549316406
ell 1178, elapsed: 0.00042700767517089844
ell 1177, elapsed: 0.0004410743713378906
ell 1176, elapsed: 0.0008559226989746094
ell 1175, elapsed: 0.0006921291351318359
ell 1174, elapsed: 0.0006928443908691406
ell 1173, elapsed: 0.0005209445953369141
ell 1172, elapsed: 0.0005230903625488281
ell 1171, elapsed: 0.0006799697875976562
ell 1170, elapsed: 0.0006668567657470703
ell 1169, elapsed: 0.0007188320159912109
ell 1168, elapsed: 0.0007128715515136719
ell 1167, elapsed: 0.0007381439208984375
ell 1166, elapsed: 0.0006680488586425781
ell 1165, elapsed: 0.0007331371307373047
ell 1164, elapsed: 0.0007431507110595703
ell 1163, elapsed: 0.0007309913635253906
ell 1162, elapsed: 0.0007369518280029297
ell 1161, elapsed: 0.0008950233459472656
ell 1160, elapsed: 0.0007278919219970703
ell 1159, elapsed: 0.0007328987121582031
ell 1158, elapsed: 0.0007240772247314453
ell 1157, elapsed: 0.0007419586181640625
ell 1156, elapsed: 0.0008420944213867188
ell 1155, elapsed: 0.0007300376892089844
ell 1154, elapsed: 0.0007340908050537109
ell 1153, elapsed: 0.0007250308990478516
ell 1152, elapsed: 0.00074005126953125
ell 1151, elapsed: 0.0007538795471191406
ell 1150, elapsed: 0.0007421970367431641
ell 1149, elapsed: 0.0007398128509521484
ell 1148, elapsed: 0.0007359981536865234
ell 1147, elapsed: 0.0007619857788085938
ell 1146, elapsed: 0.0007350444793701172
ell 1145, elapsed: 0.0007290840148925781
ell 1144, elapsed: 0.00074005126953125
ell 1143, elapsed: 0.0007240772247314453
ell 1142, elapsed: 0.0008318424224853516
ell 1141, elapsed: 0.0007331371307373047
ell 1140, elapsed: 0.0007259845733642578
ell 1139, elapsed: 0.0007309913635253906
ell 1138, elapsed: 0.0007281303405761719
ell 1137, elapsed: 0.0008649826049804688
ell 1136, elapsed: 0.0007381439208984375
ell 1135, elapsed: 0.0007331371307373047
ell 1134, elapsed: 0.0007410049438476562
ell 1133, elapsed: 0.0007271766662597656
ell 1132, elapsed: 0.000823974609375
ell 1131, elapsed: 0.0007300376892089844
ell 1130, elapsed: 0.0007290840148925781
ell 1129, elapsed: 0.0007350444793701172
ell 1128, elapsed: 0.0007309913635253906
ell 1127, elapsed: 0.0005099773406982422
ell 1126, elapsed: 0.00034880638122558594
ell 1125, elapsed: 0.0003540515899658203
ell 1124, elapsed: 0.0003418922424316406
ell 1123, elapsed: 0.0003440380096435547
ell 1122, elapsed: 0.0003399848937988281
ell 1121, elapsed: 0.00034308433532714844
ell 1120, elapsed: 0.0003428459167480469
ell 1119, elapsed: 0.0003349781036376953
ell 1118, elapsed: 0.00034999847412109375
ell 1117, elapsed: 0.0007419586181640625
ell 1116, elapsed: 0.0007371902465820312
ell 1115, elapsed: 0.0007419586181640625
ell 1114, elapsed: 0.0007300376892089844
ell 1113, elapsed: 0.000762939453125
ell 1112, elapsed: 0.0007450580596923828
ell 1111, elapsed: 0.0007359981536865234
ell 1110, elapsed: 0.0007369518280029297
ell 1109, elapsed: 0.0007350444793701172
ell 1108, elapsed: 0.0008258819580078125
ell 1107, elapsed: 0.0007278919219970703
ell 1106, elapsed: 0.0007250308990478516
ell 1105, elapsed: 0.0007340908050537109
ell 1104, elapsed: 0.000720977783203125
ell 1103, elapsed: 0.0008080005645751953
ell 1102, elapsed: 0.0007290840148925781
ell 1101, elapsed: 0.0007319450378417969
ell 1100, elapsed: 0.0007350444793701172
ell 1099, elapsed: 0.0007309913635253906
ell 1098, elapsed: 0.0007050037384033203
ell 1097, elapsed: 0.0007038116455078125
ell 1096, elapsed: 0.0007300376892089844
ell 1095, elapsed: 0.0007388591766357422
ell 1094, elapsed: 0.0007340908050537109
ell 1093, elapsed: 0.0007579326629638672
ell 1092, elapsed: 0.0007300376892089844
ell 1091, elapsed: 0.0007319450378417969
ell 1090, elapsed: 0.0007410049438476562
ell 1089, elapsed: 0.0007297992706298828
ell 1088, elapsed: 0.0007469654083251953
ell 1087, elapsed: 0.0007309913635253906
ell 1086, elapsed: 0.0007319450378417969
ell 1085, elapsed: 0.0007290840148925781
ell 1084, elapsed: 0.0007569789886474609
ell 1083, elapsed: 0.0007419586181640625
ell 1082, elapsed: 0.0007290840148925781
ell 1081, elapsed: 0.0007300376892089844
ell 1080, elapsed: 0.0007379055023193359
ell 1079, elapsed: 0.0007600784301757812
ell 1078, elapsed: 0.0007410049438476562
ell 1077, elapsed: 0.0007309913635253906
ell 1076, elapsed: 0.0007410049438476562
ell 1075, elapsed: 0.0007309913635253906
ell 1074, elapsed: 0.0007510185241699219
ell 1073, elapsed: 0.0007369518280029297
ell 1072, elapsed: 0.0007369518280029297
ell 1071, elapsed: 0.0007379055023193359
ell 1070, elapsed: 0.0007348060607910156
ell 1069, elapsed: 0.0007681846618652344
ell 1068, elapsed: 0.0007381439208984375
ell 1067, elapsed: 0.0007309913635253906
ell 1066, elapsed: 0.0007510185241699219
ell 1065, elapsed: 0.0007359981536865234
ell 1064, elapsed: 0.0007529258728027344
ell 1063, elapsed: 0.0007371902465820312
ell 1062, elapsed: 0.0007359981536865234
ell 1061, elapsed: 0.0007281303405761719
ell 1060, elapsed: 0.0008361339569091797
ell 1059, elapsed: 0.0005438327789306641
ell 1058, elapsed: 0.0004260540008544922
ell 1057, elapsed: 0.00042891502380371094
ell 1056, elapsed: 0.00042891502380371094
ell 1055, elapsed: 0.0004248619079589844
ell 1054, elapsed: 0.00042510032653808594
ell 1053, elapsed: 0.00043487548828125
ell 1052, elapsed: 0.0005080699920654297
ell 1051, elapsed: 0.0005061626434326172
ell 1050, elapsed: 0.0004200935363769531
ell 1049, elapsed: 0.0004210472106933594
ell 1048, elapsed: 0.0005490779876708984
ell 1047, elapsed: 0.0004558563232421875
ell 1046, elapsed: 0.0003838539123535156
ell 1045, elapsed: 0.0003528594970703125
ell 1044, elapsed: 0.00034618377685546875
ell 1043, elapsed: 0.0003521442413330078
ell 1042, elapsed: 0.00034308433532714844
ell 1041, elapsed: 0.0003578662872314453
ell 1040, elapsed: 0.00034117698669433594
ell 1039, elapsed: 0.0003979206085205078
ell 1038, elapsed: 0.0003609657287597656
ell 1037, elapsed: 0.00033783912658691406
ell 1036, elapsed: 0.0003418922424316406
ell 1035, elapsed: 0.00033593177795410156
ell 1034, elapsed: 0.0003380775451660156
ell 1033, elapsed: 0.00034618377685546875
ell 1032, elapsed: 0.00037097930908203125
ell 1031, elapsed: 0.0003399848937988281
ell 1030, elapsed: 0.00033593177795410156
ell 1029, elapsed: 0.0003330707550048828
ell 1028, elapsed: 0.0003399848937988281
ell 1027, elapsed: 0.0003352165222167969
ell 1026, elapsed: 0.0003380775451660156
ell 1025, elapsed: 0.0003349781036376953
ell 1024, elapsed: 0.00034308433532714844
ell 1023, elapsed: 0.0003509521484375
ell 1022, elapsed: 0.00033593177795410156
ell 1021, elapsed: 0.0003390312194824219
ell 1020, elapsed: 0.0003390312194824219
ell 1019, elapsed: 0.0003390312194824219
ell 1018, elapsed: 0.0003418922424316406
ell 1017, elapsed: 0.0003361701965332031
ell 1016, elapsed: 0.0003409385681152344
ell 1015, elapsed: 0.00033783912658691406
ell 1014, elapsed: 0.0003409385681152344
ell 1013, elapsed: 0.00034999847412109375
ell 1012, elapsed: 0.00034117698669433594
ell 1011, elapsed: 0.00034117698669433594
ell 1010, elapsed: 0.0004248619079589844
ell 1009, elapsed: 0.0004200935363769531
ell 1008, elapsed: 0.0003619194030761719
ell 1007, elapsed: 0.00034499168395996094
ell 1006, elapsed: 0.00035119056701660156
ell 1005, elapsed: 0.00035691261291503906
ell 1004, elapsed: 0.00034999847412109375
ell 1003, elapsed: 0.0003590583801269531
ell 1002, elapsed: 0.00036406517028808594
ell 1001, elapsed: 0.0003490447998046875
ell 1000, elapsed: 0.00034809112548828125
ell 999, elapsed: 0.0003559589385986328
ell 998, elapsed: 0.00036716461181640625
ell 997, elapsed: 0.00034499168395996094
ell 996, elapsed: 0.00034308433532714844
ell 995, elapsed: 0.00033211708068847656
ell 994, elapsed: 0.00033402442932128906
ell 993, elapsed: 0.00035190582275390625
ell 992, elapsed: 0.00035691261291503906
ell 991, elapsed: 0.0003879070281982422
ell 990, elapsed: 0.0003409385681152344
ell 989, elapsed: 0.00037598609924316406
ell 988, elapsed: 0.00033402442932128906
ell 987, elapsed: 0.00032806396484375
ell 986, elapsed: 0.0003409385681152344
ell 985, elapsed: 0.00036907196044921875
ell 984, elapsed: 0.0003409385681152344
ell 983, elapsed: 0.00035500526428222656
ell 982, elapsed: 0.0004279613494873047
ell 981, elapsed: 0.00033593177795410156
ell 980, elapsed: 0.00032591819763183594
ell 979, elapsed: 0.00033593177795410156
ell 978, elapsed: 0.00032591819763183594
ell 977, elapsed: 0.0003268718719482422
ell 976, elapsed: 0.0003459453582763672
ell 975, elapsed: 0.0005280971527099609
ell 974, elapsed: 0.00043702125549316406
ell 973, elapsed: 0.0003590583801269531
ell 972, elapsed: 0.00033402442932128906
ell 971, elapsed: 0.000347137451171875
ell 970, elapsed: 0.0003371238708496094
ell 969, elapsed: 0.00034308433532714844
ell 968, elapsed: 0.0003361701965332031
ell 967, elapsed: 0.0003719329833984375
ell 966, elapsed: 0.00033283233642578125
ell 965, elapsed: 0.00033211708068847656
ell 964, elapsed: 0.0003368854522705078
ell 963, elapsed: 0.00032901763916015625
ell 962, elapsed: 0.0004048347473144531
ell 961, elapsed: 0.0003299713134765625
ell 960, elapsed: 0.00033211708068847656
ell 959, elapsed: 0.00033593177795410156
ell 958, elapsed: 0.00032901763916015625
ell 957, elapsed: 0.0003521442413330078
ell 956, elapsed: 0.0004630088806152344
ell 955, elapsed: 0.00044989585876464844
ell 954, elapsed: 0.000453948974609375
ell 953, elapsed: 0.0004818439483642578
ell 952, elapsed: 0.0006291866302490234
ell 951, elapsed: 0.0004429817199707031
ell 950, elapsed: 0.00045609474182128906
ell 949, elapsed: 0.00045013427734375
ell 948, elapsed: 0.0005669593811035156
ell 947, elapsed: 0.0005071163177490234
ell 946, elapsed: 0.0004699230194091797
ell 945, elapsed: 0.0004417896270751953
ell 944, elapsed: 0.00043892860412597656
ell 943, elapsed: 0.0005700588226318359
ell 942, elapsed: 0.00047206878662109375
ell 941, elapsed: 0.0004448890686035156
ell 940, elapsed: 0.0004410743713378906
ell 939, elapsed: 0.0004439353942871094
ell 938, elapsed: 0.0004470348358154297
ell 937, elapsed: 0.0005948543548583984
ell 936, elapsed: 0.0005021095275878906
ell 935, elapsed: 0.0004458427429199219
ell 934, elapsed: 0.0004448890686035156
ell 933, elapsed: 0.0004420280456542969
ell 932, elapsed: 0.00044798851013183594
ell 931, elapsed: 0.00045800209045410156
ell 930, elapsed: 0.00044989585876464844
ell 929, elapsed: 0.0004401206970214844
ell 928, elapsed: 0.0004360675811767578
ell 927, elapsed: 0.0004398822784423828
ell 926, elapsed: 0.0005769729614257812
ell 925, elapsed: 0.00047206878662109375
ell 924, elapsed: 0.000431060791015625
ell 923, elapsed: 0.0004639625549316406
ell 922, elapsed: 0.0004489421844482422
ell 921, elapsed: 0.0004398822784423828
ell 920, elapsed: 0.0004439353942871094
ell 919, elapsed: 0.00044417381286621094
ell 918, elapsed: 0.00044798851013183594
ell 917, elapsed: 0.00045108795166015625
ell 916, elapsed: 0.0004439353942871094
ell 915, elapsed: 0.00046896934509277344
ell 914, elapsed: 0.00043702125549316406
ell 913, elapsed: 0.0004379749298095703
ell 912, elapsed: 0.0004410743713378906
ell 911, elapsed: 0.0004398822784423828
ell 910, elapsed: 0.0004467964172363281
ell 909, elapsed: 0.0004432201385498047
ell 908, elapsed: 0.00043892860412597656
ell 907, elapsed: 0.000469207763671875
ell 906, elapsed: 0.00044083595275878906
ell 905, elapsed: 0.0004470348358154297
ell 904, elapsed: 0.0004451274871826172
ell 903, elapsed: 0.00044989585876464844
ell 902, elapsed: 0.0004417896270751953
ell 901, elapsed: 0.00044608116149902344
ell 900, elapsed: 0.0004591941833496094
ell 899, elapsed: 0.0005218982696533203
ell 898, elapsed: 0.00045013427734375
ell 897, elapsed: 0.00044083595275878906
ell 896, elapsed: 0.0004410743713378906
ell 895, elapsed: 0.0004329681396484375
ell 894, elapsed: 0.00043010711669921875
ell 893, elapsed: 0.0003311634063720703
ell 892, elapsed: 0.0003268718719482422
ell 891, elapsed: 0.00032591819763183594
ell 890, elapsed: 0.0003948211669921875
ell 889, elapsed: 0.0003428459167480469
ell 888, elapsed: 0.0003459453582763672
ell 887, elapsed: 0.0003409385681152344
ell 886, elapsed: 0.0003409385681152344
ell 885, elapsed: 0.00035500526428222656
ell 884, elapsed: 0.0003371238708496094
ell 883, elapsed: 0.0003380775451660156
ell 882, elapsed: 0.0003380775451660156
ell 881, elapsed: 0.0003399848937988281
ell 880, elapsed: 0.0004889965057373047
ell 879, elapsed: 0.0005121231079101562
ell 878, elapsed: 0.0005249977111816406
ell 877, elapsed: 0.0005121231079101562
ell 876, elapsed: 0.0005218982696533203
ell 875, elapsed: 0.0005140304565429688
ell 874, elapsed: 0.000514984130859375
ell 873, elapsed: 0.0006198883056640625
ell 872, elapsed: 0.0005228519439697266
ell 871, elapsed: 0.0005221366882324219
ell 870, elapsed: 0.0005331039428710938
ell 869, elapsed: 0.0005218982696533203
ell 868, elapsed: 0.0005259513854980469
ell 867, elapsed: 0.0005190372467041016
ell 866, elapsed: 0.0007121562957763672
ell 865, elapsed: 0.0005271434783935547
ell 864, elapsed: 0.0005209445953369141
ell 863, elapsed: 0.0005328655242919922
ell 862, elapsed: 0.0005230903625488281
ell 861, elapsed: 0.0005259513854980469
ell 860, elapsed: 0.0006761550903320312
ell 859, elapsed: 0.0005290508270263672
ell 858, elapsed: 0.0005290508270263672
ell 857, elapsed: 0.0005300045013427734
ell 856, elapsed: 0.0005249977111816406
ell 855, elapsed: 0.0005209445953369141
ell 854, elapsed: 0.000514984130859375
ell 853, elapsed: 0.0006220340728759766
ell 852, elapsed: 0.0005140304565429688
ell 851, elapsed: 0.0005259513854980469
ell 850, elapsed: 0.000514984130859375
ell 849, elapsed: 0.0005180835723876953
ell 848, elapsed: 0.0005259513854980469
ell 847, elapsed: 0.0005209445953369141
ell 846, elapsed: 0.0005350112915039062
ell 845, elapsed: 0.0005249977111816406
ell 844, elapsed: 0.0005240440368652344
ell 843, elapsed: 0.000514984130859375
ell 842, elapsed: 0.0005071163177490234
ell 841, elapsed: 0.0005230903625488281
ell 840, elapsed: 0.0005040168762207031
ell 839, elapsed: 0.00045108795166015625
ell 838, elapsed: 0.00043392181396484375
ell 837, elapsed: 0.00044989585876464844
ell 836, elapsed: 0.0006799697875976562
ell 835, elapsed: 0.0005738735198974609
ell 834, elapsed: 0.0005850791931152344
ell 833, elapsed: 0.0005121231079101562
ell 832, elapsed: 0.0004379749298095703
ell 831, elapsed: 0.00044608116149902344
ell 830, elapsed: 0.0004410743713378906
ell 829, elapsed: 0.0005769729614257812
ell 828, elapsed: 0.0006232261657714844
ell 827, elapsed: 0.0005340576171875
ell 826, elapsed: 0.0006160736083984375
ell 825, elapsed: 0.0005109310150146484
ell 824, elapsed: 0.0005261898040771484
ell 823, elapsed: 0.0005130767822265625
ell 822, elapsed: 0.0005128383636474609
ell 821, elapsed: 0.0005140304565429688
ell 820, elapsed: 0.0005128383636474609
ell 819, elapsed: 0.0005290508270263672
ell 818, elapsed: 0.0005118846893310547
ell 817, elapsed: 0.0005080699920654297
ell 816, elapsed: 0.0005159378051757812
ell 815, elapsed: 0.0005080699920654297
ell 814, elapsed: 0.000518798828125
ell 813, elapsed: 0.0005090236663818359
ell 812, elapsed: 0.0005300045013427734
ell 811, elapsed: 0.00044608116149902344
ell 810, elapsed: 0.0004439353942871094
ell 809, elapsed: 0.0005729198455810547
ell 808, elapsed: 0.0005550384521484375
ell 807, elapsed: 0.0005211830139160156
ell 806, elapsed: 0.0006260871887207031
ell 805, elapsed: 0.00045490264892578125
ell 804, elapsed: 0.000453948974609375
ell 803, elapsed: 0.00045013427734375
ell 802, elapsed: 0.0004470348358154297
ell 801, elapsed: 0.0005581378936767578
ell 800, elapsed: 0.0006320476531982422
ell 799, elapsed: 0.0006279945373535156
ell 798, elapsed: 0.0006160736083984375
ell 797, elapsed: 0.0005221366882324219
ell 796, elapsed: 0.000553131103515625
ell 795, elapsed: 0.0005779266357421875
ell 794, elapsed: 0.0005681514739990234
ell 793, elapsed: 0.0005631446838378906
ell 792, elapsed: 0.0005168914794921875
ell 791, elapsed: 0.000698089599609375
ell 790, elapsed: 0.0006160736083984375
ell 789, elapsed: 0.0005521774291992188
ell 788, elapsed: 0.0005848407745361328
ell 787, elapsed: 0.0005538463592529297
ell 786, elapsed: 0.0006451606750488281
ell 785, elapsed: 0.0006968975067138672
ell 784, elapsed: 0.0005509853363037109
ell 783, elapsed: 0.0005791187286376953
ell 782, elapsed: 0.0005919933319091797
ell 781, elapsed: 0.0004410743713378906
ell 780, elapsed: 0.0004391670227050781
ell 779, elapsed: 0.0006968975067138672
ell 778, elapsed: 0.0005199909210205078
ell 777, elapsed: 0.0005998611450195312
ell 776, elapsed: 0.0005230903625488281
ell 775, elapsed: 0.0004451274871826172
ell 774, elapsed: 0.0006220340728759766
ell 773, elapsed: 0.0007190704345703125
ell 772, elapsed: 0.0006170272827148438
ell 771, elapsed: 0.0005788803100585938
ell 770, elapsed: 0.0006079673767089844
ell 769, elapsed: 0.0005288124084472656
ell 768, elapsed: 0.0005850791931152344
ell 767, elapsed: 0.0004382133483886719
ell 766, elapsed: 0.0005340576171875
ell 765, elapsed: 0.0004410743713378906
ell 764, elapsed: 0.00061798095703125
ell 763, elapsed: 0.0005440711975097656
ell 762, elapsed: 0.0006890296936035156
ell 761, elapsed: 0.0005888938903808594
ell 760, elapsed: 0.0007169246673583984
ell 759, elapsed: 0.0005400180816650391
ell 758, elapsed: 0.0005249977111816406
ell 757, elapsed: 0.0005929470062255859
ell 756, elapsed: 0.0005640983581542969
ell 755, elapsed: 0.000576019287109375
ell 754, elapsed: 0.0005848407745361328
ell 753, elapsed: 0.0006020069122314453
ell 752, elapsed: 0.0006840229034423828
ell 751, elapsed: 0.0006198883056640625
ell 750, elapsed: 0.0004570484161376953
ell 749, elapsed: 0.0005421638488769531
ell 748, elapsed: 0.0006041526794433594
ell 747, elapsed: 0.000637054443359375
ell 746, elapsed: 0.0006170272827148438
ell 745, elapsed: 0.0004420280456542969
ell 744, elapsed: 0.0004448890686035156
ell 743, elapsed: 0.0005898475646972656
ell 742, elapsed: 0.0005309581756591797
ell 741, elapsed: 0.0005970001220703125
ell 740, elapsed: 0.0005388259887695312
ell 739, elapsed: 0.00043892860412597656
ell 738, elapsed: 0.00043702125549316406
ell 737, elapsed: 0.0005419254302978516
ell 736, elapsed: 0.0005881786346435547
ell 735, elapsed: 0.0005300045013427734
ell 734, elapsed: 0.0006170272827148438
ell 733, elapsed: 0.0006241798400878906
ell 732, elapsed: 0.000579833984375
ell 731, elapsed: 0.0004420280456542969
ell 730, elapsed: 0.0004439353942871094
ell 729, elapsed: 0.0005919933319091797
ell 728, elapsed: 0.0007450580596923828
ell 727, elapsed: 0.0006110668182373047
ell 726, elapsed: 0.0005831718444824219
ell 725, elapsed: 0.0006117820739746094
ell 724, elapsed: 0.0004429817199707031
ell 723, elapsed: 0.0005829334259033203
ell 722, elapsed: 0.0005269050598144531
ell 721, elapsed: 0.0006258487701416016
ell 720, elapsed: 0.0006220340728759766
ell 719, elapsed: 0.0004398822784423828
ell 718, elapsed: 0.0004401206970214844
ell 717, elapsed: 0.0004379749298095703
ell 716, elapsed: 0.0004410743713378906
ell 715, elapsed: 0.0004398822784423828
ell 714, elapsed: 0.0005440711975097656
ell 713, elapsed: 0.0005090236663818359
ell 712, elapsed: 0.0005011558532714844
ell 711, elapsed: 0.000514984130859375
ell 710, elapsed: 0.0005068778991699219
ell 709, elapsed: 0.0005040168762207031
ell 708, elapsed: 0.0005130767822265625
ell 707, elapsed: 0.0005931854248046875
ell 706, elapsed: 0.0005540847778320312
ell 705, elapsed: 0.00043392181396484375
ell 704, elapsed: 0.00043582916259765625
ell 703, elapsed: 0.00043892860412597656
ell 702, elapsed: 0.00043392181396484375
ell 701, elapsed: 0.0004360675811767578
ell 700, elapsed: 0.0004379749298095703
ell 699, elapsed: 0.0005209445953369141
ell 698, elapsed: 0.0005168914794921875
ell 697, elapsed: 0.0004780292510986328
ell 696, elapsed: 0.0006268024444580078
ell 695, elapsed: 0.0006430149078369141
ell 694, elapsed: 0.0005130767822265625
ell 693, elapsed: 0.000514984130859375
ell 692, elapsed: 0.0005469322204589844
ell 691, elapsed: 0.0005640983581542969
ell 690, elapsed: 0.00042891502380371094
ell 689, elapsed: 0.0005040168762207031
ell 688, elapsed: 0.0006160736083984375
ell 687, elapsed: 0.0006189346313476562
ell 686, elapsed: 0.0006279945373535156
ell 685, elapsed: 0.0005002021789550781
ell 684, elapsed: 0.000514984130859375
ell 683, elapsed: 0.0005040168762207031
ell 682, elapsed: 0.0005109310150146484
ell 681, elapsed: 0.0005099773406982422
ell 680, elapsed: 0.00044989585876464844
ell 679, elapsed: 0.0005118846893310547
ell 678, elapsed: 0.0004401206970214844
ell 677, elapsed: 0.00043582916259765625
ell 676, elapsed: 0.0004458427429199219
ell 675, elapsed: 0.0004360675811767578
ell 674, elapsed: 0.0006351470947265625
ell 673, elapsed: 0.0005638599395751953
ell 672, elapsed: 0.0007109642028808594
ell 671, elapsed: 0.0005090236663818359
ell 670, elapsed: 0.0004990100860595703
ell 669, elapsed: 0.0005059242248535156
ell 668, elapsed: 0.00048804283142089844
ell 667, elapsed: 0.0004420280456542969
ell 666, elapsed: 0.00043582916259765625
ell 665, elapsed: 0.0007061958312988281
ell 664, elapsed: 0.0005447864532470703
ell 663, elapsed: 0.0005290508270263672
ell 662, elapsed: 0.0005259513854980469
ell 661, elapsed: 0.0005359649658203125
ell 660, elapsed: 0.0005249977111816406
ell 659, elapsed: 0.0005340576171875
ell 658, elapsed: 0.0005540847778320312
ell 657, elapsed: 0.0005340576171875
ell 656, elapsed: 0.0005311965942382812
ell 655, elapsed: 0.0005290508270263672
ell 654, elapsed: 0.0005331039428710938
ell 653, elapsed: 0.0005300045013427734
ell 652, elapsed: 0.0005390644073486328
ell 651, elapsed: 0.0005331039428710938
ell 650, elapsed: 0.000514984130859375
ell 649, elapsed: 0.0005319118499755859
ell 648, elapsed: 0.0005228519439697266
ell 647, elapsed: 0.0005309581756591797
ell 646, elapsed: 0.0005199909210205078
ell 645, elapsed: 0.0005300045013427734
ell 644, elapsed: 0.0005269050598144531
ell 643, elapsed: 0.0005199909210205078
ell 642, elapsed: 0.0005168914794921875
ell 641, elapsed: 0.0005209445953369141
ell 640, elapsed: 0.0005218982696533203
ell 639, elapsed: 0.000514984130859375
ell 638, elapsed: 0.0005331039428710938
ell 637, elapsed: 0.0005660057067871094
ell 636, elapsed: 0.0006771087646484375
ell 635, elapsed: 0.0006709098815917969
ell 634, elapsed: 0.0006749629974365234
ell 633, elapsed: 0.0006659030914306641
ell 632, elapsed: 0.0006821155548095703
ell 631, elapsed: 0.0006630420684814453
ell 630, elapsed: 0.0006618499755859375
ell 629, elapsed: 0.0006659030914306641
ell 628, elapsed: 0.0006740093231201172
ell 627, elapsed: 0.0005588531494140625
ell 626, elapsed: 0.0006108283996582031
ell 625, elapsed: 0.0006628036499023438
ell 624, elapsed: 0.0006680488586425781
ell 623, elapsed: 0.0006589889526367188
ell 622, elapsed: 0.0005559921264648438
ell 621, elapsed: 0.0006570816040039062
ell 620, elapsed: 0.0005390644073486328
ell 619, elapsed: 0.0005929470062255859
ell 618, elapsed: 0.0006818771362304688
ell 617, elapsed: 0.000701904296875
ell 616, elapsed: 0.0007359981536865234
ell 615, elapsed: 0.0006930828094482422
ell 614, elapsed: 0.0006971359252929688
ell 613, elapsed: 0.000675201416015625
ell 612, elapsed: 0.0006849765777587891
ell 611, elapsed: 0.0006849765777587891
ell 610, elapsed: 0.0007109642028808594
ell 609, elapsed: 0.0006830692291259766
ell 608, elapsed: 0.0006730556488037109
ell 607, elapsed: 0.0006880760192871094
ell 606, elapsed: 0.000698089599609375
ell 605, elapsed: 0.0007119178771972656
ell 604, elapsed: 0.0007040500640869141
ell 603, elapsed: 0.0006899833679199219
ell 602, elapsed: 0.0007028579711914062
ell 601, elapsed: 0.0007078647613525391
ell 600, elapsed: 0.0007090568542480469
ell 599, elapsed: 0.0007109642028808594
ell 598, elapsed: 0.000698089599609375
ell 597, elapsed: 0.0007061958312988281
ell 596, elapsed: 0.0006940364837646484
ell 595, elapsed: 0.0007281303405761719
ell 594, elapsed: 0.0007040500640869141
ell 593, elapsed: 0.0006852149963378906
ell 592, elapsed: 0.0006670951843261719
ell 591, elapsed: 0.0006630420684814453
ell 590, elapsed: 0.0006818771362304688
ell 589, elapsed: 0.0005991458892822266
ell 588, elapsed: 0.0006039142608642578
ell 587, elapsed: 0.0005159378051757812
ell 586, elapsed: 0.0006010532379150391
ell 585, elapsed: 0.0005619525909423828
ell 584, elapsed: 0.00043487548828125
ell 583, elapsed: 0.0004520416259765625
ell 582, elapsed: 0.0006511211395263672
ell 581, elapsed: 0.0004909038543701172
ell 580, elapsed: 0.0005359649658203125
ell 579, elapsed: 0.0006589889526367188
ell 578, elapsed: 0.0006601810455322266
ell 577, elapsed: 0.0006368160247802734
ell 576, elapsed: 0.0006630420684814453
ell 575, elapsed: 0.0006721019744873047
ell 574, elapsed: 0.0006668567657470703
ell 573, elapsed: 0.0006570816040039062
ell 572, elapsed: 0.0006759166717529297
ell 571, elapsed: 0.00048613548278808594
ell 570, elapsed: 0.0007419586181640625
ell 569, elapsed: 0.0006401538848876953
ell 568, elapsed: 0.0006198883056640625
ell 567, elapsed: 0.0004398822784423828
ell 566, elapsed: 0.0009860992431640625
ell 565, elapsed: 0.0006260871887207031
ell 564, elapsed: 0.0005788803100585938
ell 563, elapsed: 0.000698089599609375
ell 562, elapsed: 0.00044417381286621094
ell 561, elapsed: 0.0004432201385498047
ell 560, elapsed: 0.0005278587341308594
ell 559, elapsed: 0.0005919933319091797
ell 558, elapsed: 0.0004470348358154297
ell 557, elapsed: 0.0005707740783691406
ell 556, elapsed: 0.000537872314453125
ell 555, elapsed: 0.0004341602325439453
ell 554, elapsed: 0.0005171298980712891
ell 553, elapsed: 0.0004401206970214844
ell 552, elapsed: 0.00042819976806640625
ell 551, elapsed: 0.0005970001220703125
ell 550, elapsed: 0.0006148815155029297
ell 549, elapsed: 0.00043010711669921875
ell 548, elapsed: 0.0006079673767089844
ell 547, elapsed: 0.0005581378936767578
ell 546, elapsed: 0.00045299530029296875
ell 545, elapsed: 0.0005660057067871094
ell 544, elapsed: 0.0005459785461425781
ell 543, elapsed: 0.00043201446533203125
ell 542, elapsed: 0.0004360675811767578
ell 541, elapsed: 0.00043892860412597656
ell 540, elapsed: 0.0004329681396484375
ell 539, elapsed: 0.000701904296875
ell 538, elapsed: 0.0005261898040771484
ell 537, elapsed: 0.0005748271942138672
ell 536, elapsed: 0.0004298686981201172
ell 535, elapsed: 0.00043201446533203125
ell 534, elapsed: 0.0005600452423095703
ell 533, elapsed: 0.0008220672607421875
ell 532, elapsed: 0.0007040500640869141
ell 531, elapsed: 0.0006029605865478516
ell 530, elapsed: 0.000637054443359375
ell 529, elapsed: 0.0007009506225585938
ell 528, elapsed: 0.0005638599395751953
ell 527, elapsed: 0.0006098747253417969
ell 526, elapsed: 0.0005638599395751953
ell 525, elapsed: 0.0006878376007080078
ell 524, elapsed: 0.0006768703460693359
ell 523, elapsed: 0.0005040168762207031
ell 522, elapsed: 0.0004398822784423828
ell 521, elapsed: 0.0005550384521484375
ell 520, elapsed: 0.0006699562072753906
ell 519, elapsed: 0.0005741119384765625
ell 518, elapsed: 0.0005249977111816406
ell 517, elapsed: 0.0005738735198974609
ell 516, elapsed: 0.0005300045013427734
ell 515, elapsed: 0.0007710456848144531
ell 514, elapsed: 0.0005960464477539062
ell 513, elapsed: 0.0004379749298095703
ell 512, elapsed: 0.0005109310150146484
ell 511, elapsed: 0.0006089210510253906
ell 510, elapsed: 0.0006299018859863281
ell 509, elapsed: 0.0006911754608154297
ell 508, elapsed: 0.0006091594696044922
ell 507, elapsed: 0.000579833984375
ell 506, elapsed: 0.000598907470703125
ell 505, elapsed: 0.0006940364837646484
ell 504, elapsed: 0.0006029605865478516
ell 503, elapsed: 0.0005049705505371094
ell 502, elapsed: 0.0006389617919921875
ell 501, elapsed: 0.0004417896270751953
ell 500, elapsed: 0.0005481243133544922
ell 499, elapsed: 0.0006859302520751953
ell 498, elapsed: 0.0007009506225585938
ell 497, elapsed: 0.0006711483001708984
ell 496, elapsed: 0.0005011558532714844
ell 495, elapsed: 0.0005471706390380859
ell 494, elapsed: 0.0005779266357421875
ell 493, elapsed: 0.0006268024444580078
ell 492, elapsed: 0.0006678104400634766
ell 491, elapsed: 0.0005269050598144531
ell 490, elapsed: 0.0004458427429199219
ell 489, elapsed: 0.0006299018859863281
ell 488, elapsed: 0.00049591064453125
ell 487, elapsed: 0.0005660057067871094
ell 486, elapsed: 0.0005671977996826172
ell 485, elapsed: 0.0006549358367919922
ell 484, elapsed: 0.0006358623504638672
ell 483, elapsed: 0.0006241798400878906
ell 482, elapsed: 0.0006380081176757812
ell 481, elapsed: 0.0005390644073486328
ell 480, elapsed: 0.0006020069122314453
ell 479, elapsed: 0.0004608631134033203
ell 478, elapsed: 0.0005621910095214844
ell 477, elapsed: 0.0005710124969482422
ell 476, elapsed: 0.0004398822784423828
ell 475, elapsed: 0.00044608116149902344
ell 474, elapsed: 0.0004420280456542969
ell 473, elapsed: 0.0005450248718261719
ell 472, elapsed: 0.0006189346313476562
ell 471, elapsed: 0.0005269050598144531
ell 470, elapsed: 0.0006859302520751953
ell 469, elapsed: 0.0005810260772705078
ell 468, elapsed: 0.0006890296936035156
ell 467, elapsed: 0.0006859302520751953
ell 466, elapsed: 0.007938146591186523
ell 465, elapsed: 0.0031828880310058594
ell 464, elapsed: 0.0006680488586425781
ell 463, elapsed: 0.0004990100860595703
ell 462, elapsed: 0.0004401206970214844
ell 461, elapsed: 0.0004489421844482422
ell 460, elapsed: 0.00044798851013183594
ell 459, elapsed: 0.0004410743713378906
ell 458, elapsed: 0.0004410743713378906
ell 457, elapsed: 0.0004379749298095703
ell 456, elapsed: 0.0004379749298095703
ell 455, elapsed: 0.0006299018859863281
ell 454, elapsed: 0.0005800724029541016
ell 453, elapsed: 0.00045609474182128906
ell 452, elapsed: 0.0004379749298095703
ell 451, elapsed: 0.0006210803985595703
ell 450, elapsed: 0.0006940364837646484
ell 449, elapsed: 0.0007219314575195312
ell 448, elapsed: 0.0007100105285644531
ell 447, elapsed: 0.0007030963897705078
ell 446, elapsed: 0.0006210803985595703
ell 445, elapsed: 0.0004329681396484375
ell 444, elapsed: 0.0004429817199707031
ell 443, elapsed: 0.00045800209045410156
ell 442, elapsed: 0.0004439353942871094
ell 441, elapsed: 0.0004470348358154297
ell 440, elapsed: 0.0004410743713378906
ell 439, elapsed: 0.00044083595275878906
ell 438, elapsed: 0.0005831718444824219
ell 437, elapsed: 0.0005450248718261719
ell 436, elapsed: 0.00045800209045410156
ell 435, elapsed: 0.0004391670227050781
ell 434, elapsed: 0.0004410743713378906
ell 433, elapsed: 0.0004470348358154297
ell 432, elapsed: 0.0004360675811767578
ell 431, elapsed: 0.00043201446533203125
ell 430, elapsed: 0.0004210472106933594
ell 429, elapsed: 0.0005829334259033203
ell 428, elapsed: 0.0005450248718261719
ell 427, elapsed: 0.0004329681396484375
ell 426, elapsed: 0.0004379749298095703
ell 425, elapsed: 0.0004379749298095703
ell 424, elapsed: 0.00043702125549316406
ell 423, elapsed: 0.0005180835723876953
ell 422, elapsed: 0.0005958080291748047
ell 421, elapsed: 0.0005259513854980469
ell 420, elapsed: 0.0004429817199707031
ell 419, elapsed: 0.0004401206970214844
ell 418, elapsed: 0.0004439353942871094
ell 417, elapsed: 0.00057220458984375
ell 416, elapsed: 0.0005738735198974609
ell 415, elapsed: 0.0006248950958251953
ell 414, elapsed: 0.0006480216979980469
ell 413, elapsed: 0.0004382133483886719
ell 412, elapsed: 0.0004398822784423828
ell 411, elapsed: 0.0006308555603027344
ell 410, elapsed: 0.0005090236663818359
ell 409, elapsed: 0.0006070137023925781
ell 408, elapsed: 0.0006480216979980469
ell 407, elapsed: 0.0006248950958251953
ell 406, elapsed: 0.0005071163177490234
ell 405, elapsed: 0.0004360675811767578
ell 404, elapsed: 0.00043392181396484375
ell 403, elapsed: 0.00043702125549316406
ell 402, elapsed: 0.0004367828369140625
ell 401, elapsed: 0.0004360675811767578
ell 400, elapsed: 0.0005228519439697266
ell 399, elapsed: 0.0004379749298095703
ell 398, elapsed: 0.0004360675811767578
ell 397, elapsed: 0.00043702125549316406
ell 396, elapsed: 0.0005099773406982422
ell 395, elapsed: 0.0006132125854492188
ell 394, elapsed: 0.0004429817199707031
ell 393, elapsed: 0.0006749629974365234
ell 392, elapsed: 0.0006151199340820312
ell 391, elapsed: 0.0006039142608642578
ell 390, elapsed: 0.0005769729614257812
ell 389, elapsed: 0.0005710124969482422
ell 388, elapsed: 0.0005459785461425781
ell 387, elapsed: 0.0004680156707763672
ell 386, elapsed: 0.0006101131439208984
ell 385, elapsed: 0.0005741119384765625
ell 384, elapsed: 0.0004448890686035156
ell 383, elapsed: 0.0005769729614257812
ell 382, elapsed: 0.0005810260772705078
ell 381, elapsed: 0.0007870197296142578
ell 380, elapsed: 0.0005540847778320312
ell 379, elapsed: 0.0005950927734375
ell 378, elapsed: 0.00047588348388671875
ell 377, elapsed: 0.0005939006805419922
ell 376, elapsed: 0.0005609989166259766
ell 375, elapsed: 0.0006330013275146484
ell 374, elapsed: 0.0005218982696533203
ell 373, elapsed: 0.000598907470703125
ell 372, elapsed: 0.0004448890686035156
ell 371, elapsed: 0.0006241798400878906
ell 370, elapsed: 0.0005650520324707031
ell 369, elapsed: 0.0004451274871826172
ell 368, elapsed: 0.0007069110870361328
ell 367, elapsed: 0.0004820823669433594
ell 366, elapsed: 0.0004448890686035156
ell 365, elapsed: 0.0004410743713378906
ell 364, elapsed: 0.0004420280456542969
ell 363, elapsed: 0.0005140304565429688
ell 362, elapsed: 0.0006859302520751953
ell 361, elapsed: 0.0005970001220703125
ell 360, elapsed: 0.00044798851013183594
ell 359, elapsed: 0.000640869140625
ell 358, elapsed: 0.0004711151123046875
ell 357, elapsed: 0.0005040168762207031
ell 356, elapsed: 0.0006060600280761719
ell 355, elapsed: 0.0007140636444091797
ell 354, elapsed: 0.0005650520324707031
ell 353, elapsed: 0.00043320655822753906
ell 352, elapsed: 0.00043702125549316406
ell 351, elapsed: 0.0005741119384765625
ell 350, elapsed: 0.0005190372467041016
ell 349, elapsed: 0.0006070137023925781
ell 348, elapsed: 0.0007081031799316406
ell 347, elapsed: 0.0006830692291259766
ell 346, elapsed: 0.0006771087646484375
ell 345, elapsed: 0.0006361007690429688
ell 344, elapsed: 0.0006799697875976562
ell 343, elapsed: 0.0006749629974365234
ell 342, elapsed: 0.0006768703460693359
ell 341, elapsed: 0.0006721019744873047
ell 340, elapsed: 0.0005648136138916016
ell 339, elapsed: 0.0005369186401367188
ell 338, elapsed: 0.0005710124969482422
ell 337, elapsed: 0.0005199909210205078
ell 336, elapsed: 0.00042700767517089844
ell 335, elapsed: 0.0004279613494873047
ell 334, elapsed: 0.00042700767517089844
ell 333, elapsed: 0.00043892860412597656
ell 332, elapsed: 0.000431060791015625
ell 331, elapsed: 0.00043392181396484375
ell 330, elapsed: 0.0006289482116699219
ell 329, elapsed: 0.0006070137023925781
ell 328, elapsed: 0.0004901885986328125
ell 327, elapsed: 0.00044083595275878906
ell 326, elapsed: 0.0004341602325439453
ell 325, elapsed: 0.0005950927734375
ell 324, elapsed: 0.0005049705505371094
ell 323, elapsed: 0.0006060600280761719
ell 322, elapsed: 0.0006680488586425781
ell 321, elapsed: 0.0004661083221435547
ell 320, elapsed: 0.0004401206970214844
ell 319, elapsed: 0.00044918060302734375
ell 318, elapsed: 0.0004401206970214844
ell 317, elapsed: 0.0004379749298095703
ell 316, elapsed: 0.0004699230194091797
ell 315, elapsed: 0.00043511390686035156
ell 314, elapsed: 0.0004451274871826172
ell 313, elapsed: 0.0006110668182373047
ell 312, elapsed: 0.0005178451538085938
ell 311, elapsed: 0.0004420280456542969
ell 310, elapsed: 0.00044798851013183594
ell 309, elapsed: 0.00044798851013183594
ell 308, elapsed: 0.0005009174346923828
ell 307, elapsed: 0.0005369186401367188
ell 306, elapsed: 0.0005640983581542969
ell 305, elapsed: 0.0005950927734375
ell 304, elapsed: 0.0005071163177490234
ell 303, elapsed: 0.0004410743713378906
ell 302, elapsed: 0.0004429817199707031
ell 301, elapsed: 0.0006802082061767578
ell 300, elapsed: 0.0006890296936035156
ell 299, elapsed: 0.0007140636444091797
ell 298, elapsed: 0.0006449222564697266
ell 297, elapsed: 0.0005049705505371094
ell 296, elapsed: 0.0004611015319824219
ell 295, elapsed: 0.0003578662872314453
ell 294, elapsed: 0.0004439353942871094
ell 293, elapsed: 0.00045108795166015625
ell 292, elapsed: 0.0004458427429199219
ell 291, elapsed: 0.00043892860412597656
ell 290, elapsed: 0.00043892860412597656
ell 289, elapsed: 0.0004401206970214844
ell 288, elapsed: 0.00043511390686035156
ell 287, elapsed: 0.0005459785461425781
ell 286, elapsed: 0.0004379749298095703
ell 285, elapsed: 0.00040984153747558594
ell 284, elapsed: 0.0004420280456542969
ell 283, elapsed: 0.0004410743713378906
ell 282, elapsed: 0.0003459453582763672
ell 281, elapsed: 0.0003268718719482422
ell 280, elapsed: 0.00032901763916015625
ell 279, elapsed: 0.0003440380096435547
ell 278, elapsed: 0.0004961490631103516
ell 277, elapsed: 0.000514984130859375
ell 276, elapsed: 0.00033092498779296875
ell 275, elapsed: 0.0003261566162109375
ell 274, elapsed: 0.00032591819763183594
ell 273, elapsed: 0.0003249645233154297
ell 272, elapsed: 0.0003249645233154297
ell 271, elapsed: 0.0003249645233154297
ell 270, elapsed: 0.00032711029052734375
ell 269, elapsed: 0.00040984153747558594
ell 268, elapsed: 0.0005171298980712891
ell 267, elapsed: 0.0004639625549316406
ell 266, elapsed: 0.000331878662109375
ell 265, elapsed: 0.0003409385681152344
ell 264, elapsed: 0.00033283233642578125
ell 263, elapsed: 0.00033402442932128906
ell 262, elapsed: 0.00033402442932128906
ell 261, elapsed: 0.0003571510314941406
ell 260, elapsed: 0.00035119056701660156
ell 259, elapsed: 0.0003600120544433594
ell 258, elapsed: 0.0003559589385986328
ell 257, elapsed: 0.00034999847412109375
ell 256, elapsed: 0.00035119056701660156
ell 255, elapsed: 0.00034499168395996094
ell 254, elapsed: 0.00032806396484375
ell 253, elapsed: 0.0003268718719482422
ell 252, elapsed: 0.0003249645233154297
ell 251, elapsed: 0.00032210350036621094
ell 250, elapsed: 0.0003261566162109375
ell 249, elapsed: 0.00045299530029296875
ell 248, elapsed: 0.0003600120544433594
ell 247, elapsed: 0.0003681182861328125
ell 246, elapsed: 0.00034999847412109375
ell 245, elapsed: 0.0003609657287597656
ell 244, elapsed: 0.0003578662872314453
ell 243, elapsed: 0.0003521442413330078
ell 242, elapsed: 0.0003581047058105469
ell 241, elapsed: 0.0003459453582763672
ell 240, elapsed: 0.0003559589385986328
ell 239, elapsed: 0.00037789344787597656
ell 238, elapsed: 0.0003800392150878906
ell 237, elapsed: 0.00037288665771484375
ell 236, elapsed: 0.00037217140197753906
ell 235, elapsed: 0.0003769397735595703
ell 234, elapsed: 0.0003750324249267578
ell 233, elapsed: 0.00037097930908203125
ell 232, elapsed: 0.0003941059112548828
ell 231, elapsed: 0.0003669261932373047
ell 230, elapsed: 0.00039696693420410156
ell 229, elapsed: 0.00041103363037109375
ell 228, elapsed: 0.0005080699920654297
ell 227, elapsed: 0.0004401206970214844
ell 226, elapsed: 0.0004069805145263672
ell 225, elapsed: 0.00040602684020996094
ell 224, elapsed: 0.0003948211669921875
ell 223, elapsed: 0.0003979206085205078
ell 222, elapsed: 0.00041103363037109375
ell 221, elapsed: 0.000537872314453125
ell 220, elapsed: 0.0004961490631103516
ell 219, elapsed: 0.0005381107330322266
ell 218, elapsed: 0.0006389617919921875
ell 217, elapsed: 0.0005090236663818359
ell 216, elapsed: 0.0004248619079589844
ell 215, elapsed: 0.00041604042053222656
ell 214, elapsed: 0.0006020069122314453
ell 213, elapsed: 0.0005459785461425781
ell 212, elapsed: 0.0006170272827148438
ell 211, elapsed: 0.0006048679351806641
ell 210, elapsed: 0.0005309581756591797
ell 209, elapsed: 0.0005350112915039062
ell 208, elapsed: 0.000682830810546875
ell 207, elapsed: 0.0004918575286865234
ell 206, elapsed: 0.0004420280456542969
ell 205, elapsed: 0.0006380081176757812
ell 204, elapsed: 0.00047707557678222656
ell 203, elapsed: 0.00044417381286621094
ell 202, elapsed: 0.0004391670227050781
ell 201, elapsed: 0.0006620883941650391
ell 200, elapsed: 0.0007040500640869141
ell 199, elapsed: 0.0004899501800537109
ell 198, elapsed: 0.0006351470947265625
ell 197, elapsed: 0.00047779083251953125
ell 196, elapsed: 0.0005497932434082031
ell 195, elapsed: 0.0007479190826416016
ell 194, elapsed: 0.0006809234619140625
ell 193, elapsed: 0.0006868839263916016
ell 192, elapsed: 0.0005629062652587891
ell 191, elapsed: 0.00045490264892578125
ell 190, elapsed: 0.0006420612335205078
ell 189, elapsed: 0.0005888938903808594
ell 188, elapsed: 0.0006401538848876953
ell 187, elapsed: 0.0006208419799804688
ell 186, elapsed: 0.0006380081176757812
ell 185, elapsed: 0.00043892860412597656
ell 184, elapsed: 0.0004448890686035156
ell 183, elapsed: 0.00043892860412597656
ell 182, elapsed: 0.0007970333099365234
ell 181, elapsed: 0.000453948974609375
ell 180, elapsed: 0.0004439353942871094
ell 179, elapsed: 0.0004398822784423828
ell 178, elapsed: 0.00043582916259765625
ell 177, elapsed: 0.00043392181396484375
ell 176, elapsed: 0.0004508495330810547
ell 175, elapsed: 0.0006511211395263672
ell 174, elapsed: 0.0006299018859863281
ell 173, elapsed: 0.000537872314453125
ell 172, elapsed: 0.0004429817199707031
ell 171, elapsed: 0.0005819797515869141
ell 170, elapsed: 0.0005300045013427734
ell 169, elapsed: 0.00045299530029296875
ell 168, elapsed: 0.0004870891571044922
ell 167, elapsed: 0.0005631446838378906
ell 166, elapsed: 0.0005540847778320312
ell 165, elapsed: 0.00043702125549316406
ell 164, elapsed: 0.0005729198455810547
ell 163, elapsed: 0.0005478858947753906
ell 162, elapsed: 0.0005769729614257812
ell 161, elapsed: 0.0005850791931152344
ell 160, elapsed: 0.0006139278411865234
ell 159, elapsed: 0.0005168914794921875
ell 158, elapsed: 0.0005779266357421875
ell 157, elapsed: 0.0006961822509765625
ell 156, elapsed: 0.0005869865417480469
ell 155, elapsed: 0.000659942626953125
ell 154, elapsed: 0.000514984130859375
ell 153, elapsed: 0.0006170272827148438
ell 152, elapsed: 0.00044798851013183594
ell 151, elapsed: 0.0004420280456542969
ell 150, elapsed: 0.00044417381286621094
ell 149, elapsed: 0.00045180320739746094
ell 148, elapsed: 0.0004677772521972656
ell 147, elapsed: 0.0005609989166259766
ell 146, elapsed: 0.0005710124969482422
ell 145, elapsed: 0.0004420280456542969
ell 144, elapsed: 0.0005290508270263672
ell 143, elapsed: 0.0006010532379150391
ell 142, elapsed: 0.0004467964172363281
ell 141, elapsed: 0.0007419586181640625
ell 140, elapsed: 0.0004470348358154297
ell 139, elapsed: 0.0004439353942871094
ell 138, elapsed: 0.0004451274871826172
ell 137, elapsed: 0.0004520416259765625
ell 136, elapsed: 0.0004451274871826172
ell 135, elapsed: 0.0006449222564697266
ell 134, elapsed: 0.0004918575286865234
ell 133, elapsed: 0.00044918060302734375
ell 132, elapsed: 0.0004489421844482422
ell 131, elapsed: 0.0004439353942871094
ell 130, elapsed: 0.00045299530029296875
ell 129, elapsed: 0.0004470348358154297
ell 128, elapsed: 0.00044918060302734375
ell 127, elapsed: 0.0004417896270751953
ell 126, elapsed: 0.0005080699920654297
ell 125, elapsed: 0.0006430149078369141
ell 124, elapsed: 0.0004870891571044922
ell 123, elapsed: 0.0004401206970214844
ell 122, elapsed: 0.0006167888641357422
ell 121, elapsed: 0.0005130767822265625
ell 120, elapsed: 0.0005631446838378906
ell 119, elapsed: 0.0006020069122314453
ell 118, elapsed: 0.0004420280456542969
ell 117, elapsed: 0.0005681514739990234
ell 116, elapsed: 0.0005438327789306641
ell 115, elapsed: 0.0005018711090087891
ell 114, elapsed: 0.0006361007690429688
ell 113, elapsed: 0.0006959438323974609
ell 112, elapsed: 0.0006239414215087891
ell 111, elapsed: 0.0005419254302978516
ell 110, elapsed: 0.0005269050598144531
ell 109, elapsed: 0.0005879402160644531
ell 108, elapsed: 0.0005459785461425781
ell 107, elapsed: 0.0006711483001708984
ell 106, elapsed: 0.00045180320739746094
ell 105, elapsed: 0.0005071163177490234
ell 104, elapsed: 0.0006208419799804688
ell 103, elapsed: 0.0005290508270263672
ell 102, elapsed: 0.000614166259765625
ell 101, elapsed: 0.0006110668182373047
ell 100, elapsed: 0.0006139278411865234
ell 99, elapsed: 0.00043892860412597656
ell 98, elapsed: 0.0005011558532714844
ell 97, elapsed: 0.0006210803985595703
ell 96, elapsed: 0.0004420280456542969
ell 95, elapsed: 0.0004458427429199219
ell 94, elapsed: 0.00043892860412597656
ell 93, elapsed: 0.0004658699035644531
ell 92, elapsed: 0.0006251335144042969
ell 91, elapsed: 0.0006229877471923828
ell 90, elapsed: 0.0005688667297363281
ell 89, elapsed: 0.0004420280456542969
ell 88, elapsed: 0.0004489421844482422
ell 87, elapsed: 0.0004429817199707031
ell 86, elapsed: 0.00046706199645996094
ell 85, elapsed: 0.0004451274871826172
ell 84, elapsed: 0.00045299530029296875
ell 83, elapsed: 0.0006148815155029297
ell 82, elapsed: 0.0005161762237548828
ell 81, elapsed: 0.000576019287109375
ell 80, elapsed: 0.0005500316619873047
ell 79, elapsed: 0.0006580352783203125
ell 78, elapsed: 0.0004980564117431641
ell 77, elapsed: 0.0005249977111816406
ell 76, elapsed: 0.0006020069122314453
ell 75, elapsed: 0.0004429817199707031
ell 74, elapsed: 0.00043392181396484375
ell 73, elapsed: 0.0006279945373535156
ell 72, elapsed: 0.0005829334259033203
ell 71, elapsed: 0.0004451274871826172
ell 70, elapsed: 0.0004429817199707031
ell 69, elapsed: 0.0005910396575927734
ell 68, elapsed: 0.0005490779876708984
ell 67, elapsed: 0.0006399154663085938
ell 66, elapsed: 0.0004911422729492188
ell 65, elapsed: 0.0005178451538085938
ell 64, elapsed: 0.000453948974609375
ell 63, elapsed: 0.0004401206970214844
ell 62, elapsed: 0.0004410743713378906
ell 61, elapsed: 0.0004470348358154297
ell 60, elapsed: 0.0005869865417480469
ell 59, elapsed: 0.0005860328674316406
ell 58, elapsed: 0.0007979869842529297
ell 57, elapsed: 0.0006890296936035156
ell 56, elapsed: 0.0006010532379150391
ell 55, elapsed: 0.0005478858947753906
ell 54, elapsed: 0.0006139278411865234
ell 53, elapsed: 0.0004949569702148438
ell 52, elapsed: 0.0007328987121582031
ell 51, elapsed: 0.0005979537963867188
ell 50, elapsed: 0.0005321502685546875
ell 49, elapsed: 0.0004360675811767578
ell 48, elapsed: 0.0004489421844482422
ell 47, elapsed: 0.00043892860412597656
ell 46, elapsed: 0.00045108795166015625
ell 45, elapsed: 0.0005240440368652344
ell 44, elapsed: 0.000453948974609375
ell 43, elapsed: 0.0004420280456542969
ell 42, elapsed: 0.0004458427429199219
ell 41, elapsed: 0.0005779266357421875
ell 40, elapsed: 0.0005769729614257812
ell 39, elapsed: 0.0004470348358154297
ell 38, elapsed: 0.0006380081176757812
ell 37, elapsed: 0.0007050037384033203
ell 36, elapsed: 0.0007081031799316406
ell 35, elapsed: 0.0007009506225585938
ell 34, elapsed: 0.0007090568542480469
ell 33, elapsed: 0.0008080005645751953
ell 32, elapsed: 0.00045800209045410156
ell 31, elapsed: 0.0004401206970214844
ell 30, elapsed: 0.000514984130859375
ell 29, elapsed: 0.0007009506225585938
ell 28, elapsed: 0.0006728172302246094
ell 27, elapsed: 0.0007460117340087891
ell 26, elapsed: 0.0004329681396484375
ell 25, elapsed: 0.0003669261932373047
ell 24, elapsed: 0.0003600120544433594
ell 23, elapsed: 0.0003681182861328125
ell 22, elapsed: 0.00037097930908203125
ell 21, elapsed: 0.00036597251892089844
ell 20, elapsed: 0.00036907196044921875
ell 19, elapsed: 0.0003609657287597656
ell 18, elapsed: 0.0003769397735595703
ell 17, elapsed: 0.00036907196044921875
ell 16, elapsed: 0.0003750324249267578
ell 15, elapsed: 0.00036597251892089844
ell 14, elapsed: 0.00036597251892089844
ell 13, elapsed: 0.0003731250762939453
ell 12, elapsed: 0.00036787986755371094
ell 11, elapsed: 0.0003609657287597656
ell 10, elapsed: 0.0003559589385986328
ell 9, elapsed: 0.0005888938903808594
ell 8, elapsed: 0.0004792213439941406
ell 7, elapsed: 0.0003590583801269531
ell 6, elapsed: 0.0003790855407714844
ell 5, elapsed: 0.00036406517028808594
ell 4, elapsed: 0.0003948211669921875
ell 3, elapsed: 0.0003769397735595703
ell 2, elapsed: 0.0003650188446044922
ell 1, elapsed: 0.0003688335418701172
ell 0, elapsed: 0.00039505958557128906
  0.750576 seconds (103.88 k allocations: 3.974 MiB)
elapsed: 0.0005018711090087891
step:          0.079317 sec (0 allocations: 0 byte, 0.0% gc time)
swapping:      0.000786 sec (0 allocations: 0 byte, 0.0% gc time)
calc_Mellell!: 0.011129 sec (0 allocations: 0 byte, 0.0% gc time)
  t0 :  0.002481 sec (0 allocations: 0 byte, 0.0% gc time)
  tm2 : 0.113633 sec (0 allocations: 0 byte, 0.0% gc time)
  tm2s: 0.001675 sec (0 allocations: 0 byte, 0.0% gc time)
  tm4 : 0.302865 sec (0 allocations: 0 byte, 0.0% gc time)
  tp2 : 0.0 sec (0 allocations: 0 byte, 0.0% gc time)
  tp2s: 0.0 sec (0 allocations: 0 byte, 0.0% gc time)
  tp4 : 0.0 sec (0 allocations: 0 byte, 0.0% gc time)
calc_wtdll!:   0.45399 sec (9.9 k allocations: 1.047 MB, 0.0% gc time)
calc_wljj!:    0.048453 sec (689 allocations: 10.766 KB, 0.0% gc time)
mult_prefac!:  0.0 sec (0 allocations: 0 byte, 0.0% gc time)
convert:       0.0 sec (0 allocations: 0 byte, 0.0% gc time)
write:         0.045958 sec (0 allocations: 0 byte, 0.0% gc time)
test_rand_2f1: 0.0 sec (0 allocations: 0 byte, 0.0% gc time)
Closing outfile out/Ml21-cache.bin...   0.000006 seconds
  0.000639 seconds (36 allocations: 27.953 KiB)
make_phi():   0.003124 seconds (9.47 k allocations: 257.875 KiB)
  0.238832 seconds (141.90 k allocations: 3.483 MiB)
tskip:       0.001177 sec (0 allocations: 0 byte, 0.0% gc time)
tread:       0.030157 sec (17 allocations: 10.641 KB, 0.0% gc time)
tmultphi:    0.017095 sec (0 allocations: 0 byte, 0.0% gc time)
tbrfft:      0.055283 sec (0 allocations: 0 byte, 0.0% gc time)
tmultprefac: 0.052475 sec (0 allocations: 0 byte, 0.0% gc time)
toutfunc:    0.078328 sec (127.507 k allocations: 2.312 MB, 0.0% gc time)
Testing R=1.0 ... passed
Calculating fmax: 
  dlrec    = 4
  dlrecRg1 = -4
  q=1.1, R=0.9:	  0.461315 seconds (105.76 k allocations: 15.287 MiB)

  0.462834 seconds (105.99 k allocations: 15.324 MiB)
ℓ = 1202
Δℓ = 4
ΔℓRg1 = -4
N = 1600
q = 1.1
kmin = 1.0e-5
kmax = 100000.00000000004
χ0 = 0.023029999999999995
RR = RR.tsv
ℓmax = ℓmax.bin
f21 = f21.bin
kmin = 1.0e-5
kmax = 100000.0
dlrec    = 4
dlrecRg1 = -4
Output size: 5741568 bytes = 0.005347251892089844 GiB
Output size: 51264 bytes = 4.774332046508789e-5 GiB
Reading 'out/F21EllCache'...   0.001160 seconds (197 allocations: 84.203 KiB)
ellmax: 1202
lmaxcache: 1202
fell[:,1,1] = ComplexF64[1.3482014726274674e-57 - 3.302141236118086e-73im, 1.357860004724329e-57 - 3.3257978169518355e-73im]
ell 1202, elapsed: 3.0040740966796875e-5
ell 1201, elapsed: 0.002949953079223633
ell 1200, elapsed: 0.00041604042053222656
ell 1199, elapsed: 0.00039196014404296875
ell 1198, elapsed: 0.0003769397735595703
ell 1002, elapsed: 0.014330148696899414
ell 1001, elapsed: 0.0005838871002197266
ell 1000, elapsed: 0.0005981922149658203
ell 999, elapsed: 0.0005979537963867188
ell 998, elapsed: 0.0005950927734375
ell 902, elapsed: 0.006697893142700195
ell 901, elapsed: 0.0005640983581542969
ell 900, elapsed: 0.0005879402160644531
ell 899, elapsed: 0.0006270408630371094
ell 898, elapsed: 0.0007469654083251953
ell 802, elapsed: 0.006136178970336914
ell 801, elapsed: 0.0005409717559814453
ell 800, elapsed: 0.0005731582641601562
ell 799, elapsed: 0.0008130073547363281
ell 798, elapsed: 0.0005719661712646484
ell 702, elapsed: 0.006407976150512695
ell 701, elapsed: 0.0006299018859863281
ell 700, elapsed: 0.0005970001220703125
ell 699, elapsed: 0.0005788803100585938
ell 698, elapsed: 0.0005869865417480469
ell 602, elapsed: 0.005784034729003906
ell 601, elapsed: 0.0005440711975097656
ell 600, elapsed: 0.0005919933319091797
ell 599, elapsed: 0.000576019287109375
ell 598, elapsed: 0.0004820823669433594
ell 502, elapsed: 0.006190776824951172
ell 501, elapsed: 0.0005800724029541016
ell 500, elapsed: 0.0005970001220703125
ell 499, elapsed: 0.0005898475646972656
ell 498, elapsed: 0.0006051063537597656
ell 402, elapsed: 0.006301164627075195
ell 401, elapsed: 0.00047016143798828125
ell 400, elapsed: 0.000576019287109375
ell 399, elapsed: 0.0005772113800048828
ell 398, elapsed: 0.0005819797515869141
ell 302, elapsed: 0.006187915802001953
ell 301, elapsed: 0.0005619525909423828
ell 300, elapsed: 0.0006940364837646484
ell 299, elapsed: 0.0005919933319091797
ell 298, elapsed: 0.00045990943908691406
ell 202, elapsed: 0.005715131759643555
ell 201, elapsed: 0.0005099773406982422
ell 200, elapsed: 0.0006690025329589844
ell 199, elapsed: 0.0005080699920654297
ell 198, elapsed: 0.0005550384521484375
ell 152, elapsed: 0.0032341480255126953
ell 151, elapsed: 0.0005252361297607422
ell 150, elapsed: 0.0005860328674316406
ell 149, elapsed: 0.0005769729614257812
ell 148, elapsed: 0.0005910396575927734
ell 127, elapsed: 0.00203704833984375
ell 126, elapsed: 0.0005338191986083984
ell 125, elapsed: 0.0005571842193603516
ell 124, elapsed: 0.0005300045013427734
ell 123, elapsed: 0.0006330013275146484
ell 114, elapsed: 0.0014119148254394531
ell 113, elapsed: 0.0005309581756591797
ell 112, elapsed: 0.0005660057067871094
ell 111, elapsed: 0.0005660057067871094
ell 110, elapsed: 0.000675201416015625
ell 102, elapsed: 0.0012400150299072266
ell 101, elapsed: 0.0005009174346923828
ell 100, elapsed: 0.0005748271942138672
ell 99, elapsed: 0.0006020069122314453
ell 98, elapsed: 0.0006949901580810547
ell 97, elapsed: 0.0007250308990478516
ell 96, elapsed: 0.0006959438323974609
ell 95, elapsed: 0.0006868839263916016
ell 94, elapsed: 0.0007112026214599609
ell 93, elapsed: 0.0008990764617919922
ell 92, elapsed: 0.0005998611450195312
ell 91, elapsed: 0.0005919933319091797
ell 90, elapsed: 0.0006458759307861328
ell 89, elapsed: 0.000682830810546875
ell 88, elapsed: 0.0005249977111816406
ell 87, elapsed: 0.0009279251098632812
ell 86, elapsed: 0.0007050037384033203
ell 85, elapsed: 0.0006940364837646484
ell 84, elapsed: 0.0006959438323974609
ell 83, elapsed: 0.0006830692291259766
ell 82, elapsed: 0.0010828971862792969
ell 81, elapsed: 0.0007081031799316406
ell 80, elapsed: 0.0007078647613525391
ell 79, elapsed: 0.0007059574127197266
ell 78, elapsed: 0.001043081283569336
ell 77, elapsed: 0.0006439685821533203
ell 76, elapsed: 0.0005459785461425781
ell 75, elapsed: 0.0006248950958251953
ell 74, elapsed: 0.0006999969482421875
ell 73, elapsed: 0.0006880760192871094
ell 72, elapsed: 0.0006899833679199219
ell 71, elapsed: 0.0007100105285644531
ell 70, elapsed: 0.0007131099700927734
ell 69, elapsed: 0.0006949901580810547
ell 68, elapsed: 0.001004934310913086
ell 67, elapsed: 0.0007340908050537109
ell 66, elapsed: 0.0005629062652587891
ell 65, elapsed: 0.0006210803985595703
ell 64, elapsed: 0.0006971359252929688
ell 63, elapsed: 0.0009570121765136719
ell 62, elapsed: 0.0006110668182373047
ell 61, elapsed: 0.0005710124969482422
ell 60, elapsed: 0.0006089210510253906
ell 59, elapsed: 0.0005412101745605469
ell 58, elapsed: 0.00044798851013183594
ell 57, elapsed: 0.00102996826171875
ell 56, elapsed: 0.000637054443359375
ell 55, elapsed: 0.0006079673767089844
ell 54, elapsed: 0.00044798851013183594
ell 53, elapsed: 0.00044083595275878906
ell 52, elapsed: 0.00043702125549316406
ell 51, elapsed: 0.0005249977111816406
ell 50, elapsed: 0.00045990943908691406
ell 49, elapsed: 0.0004630088806152344
ell 48, elapsed: 0.000453948974609375
ell 47, elapsed: 0.0004630088806152344
ell 46, elapsed: 0.000453948974609375
ell 45, elapsed: 0.0004570484161376953
ell 44, elapsed: 0.0006580352783203125
ell 43, elapsed: 0.0007698535919189453
ell 42, elapsed: 0.0007040500640869141
ell 41, elapsed: 0.0007040500640869141
ell 40, elapsed: 0.0007090568542480469
ell 39, elapsed: 0.0007250308990478516
ell 38, elapsed: 0.0008251667022705078
ell 37, elapsed: 0.0007319450378417969
ell 36, elapsed: 0.000701904296875
ell 35, elapsed: 0.0007131099700927734
ell 34, elapsed: 0.0008318424224853516
ell 33, elapsed: 0.0006940364837646484
ell 32, elapsed: 0.000701904296875
ell 31, elapsed: 0.0006768703460693359
ell 30, elapsed: 0.0006718635559082031
ell 29, elapsed: 0.0006811618804931641
ell 28, elapsed: 0.0007231235504150391
ell 27, elapsed: 0.0006830692291259766
ell 26, elapsed: 0.0006761550903320312
ell 25, elapsed: 0.000682830810546875
ell 24, elapsed: 0.0005841255187988281
ell 23, elapsed: 0.0006499290466308594
ell 22, elapsed: 0.0005519390106201172
ell 21, elapsed: 0.0006182193756103516
ell 20, elapsed: 0.0006771087646484375
ell 19, elapsed: 0.0006830692291259766
ell 18, elapsed: 0.0006809234619140625
ell 17, elapsed: 0.0007951259613037109
ell 16, elapsed: 0.0006589889526367188
ell 15, elapsed: 0.0006539821624755859
ell 14, elapsed: 0.0006961822509765625
ell 13, elapsed: 0.0006918907165527344
ell 12, elapsed: 0.0008139610290527344
ell 11, elapsed: 0.0006721019744873047
ell 10, elapsed: 0.0006709098815917969
ell 9, elapsed: 0.0006229877471923828
ell 8, elapsed: 0.0006358623504638672
ell 7, elapsed: 0.0005419254302978516
ell 6, elapsed: 0.0003790855407714844
ell 5, elapsed: 0.0003960132598876953
ell 4, elapsed: 0.00035691261291503906
ell 3, elapsed: 0.0003509521484375
ell 2, elapsed: 0.0005040168762207031
ell 1, elapsed: 0.0006709098815917969
ell 0, elapsed: 0.0006589889526367188
  0.183863 seconds (19.47 k allocations: 844.016 KiB)
elapsed: 0.0008780956268310547
step:          0.074151 sec (0 allocations: 0 byte, 0.0% gc time)
swapping:      0.00056 sec (0 allocations: 0 byte, 0.0% gc time)
calc_Mellell!: 0.001929 sec (0 allocations: 0 byte, 0.0% gc time)
  t0 :  0.00043 sec (0 allocations: 0 byte, 0.0% gc time)
  tm2 : 0.019216 sec (0 allocations: 0 byte, 0.0% gc time)
  tm2s: 0.00034 sec (0 allocations: 0 byte, 0.0% gc time)
  tm4 : 0.055326 sec (0 allocations: 0 byte, 0.0% gc time)
  tp2 : 0.0 sec (0 allocations: 0 byte, 0.0% gc time)
  tp2s: 0.0 sec (0 allocations: 0 byte, 0.0% gc time)
  tp4 : 0.0 sec (0 allocations: 0 byte, 0.0% gc time)
calc_wtdll!:   0.076524 sec (1.344 k allocations: 147.0 KB, 0.0% gc time)
calc_wljj!:    0.00567 sec (6 allocations: 96 byte, 0.0% gc time)
mult_prefac!:  0.0 sec (0 allocations: 0 byte, 0.0% gc time)
convert:       0.0 sec (0 allocations: 0 byte, 0.0% gc time)
write:         0.005372 sec (0 allocations: 0 byte, 0.0% gc time)
test_rand_2f1: 0.0 sec (0 allocations: 0 byte, 0.0% gc time)
Closing outfile out/Ml21-cache.bin...   0.000007 seconds
  0.000277 seconds (36 allocations: 27.953 KiB)
make_phi():   0.002498 seconds (9.47 k allocations: 257.875 KiB)
  0.027029 seconds (11.65 k allocations: 308.688 KiB)
tskip:       2.9e-5 sec (0 allocations: 0 byte, 0.0% gc time)
tread:       0.003531 sec (17 allocations: 2.125 KB, 0.0% gc time)
tmultphi:    0.001789 sec (0 allocations: 0 byte, 0.0% gc time)
tbrfft:      0.006429 sec (0 allocations: 0 byte, 0.0% gc time)
tmultprefac: 0.005985 sec (0 allocations: 0 byte, 0.0% gc time)
toutfunc:    0.008684 sec (10.304 k allocations: 196.0 KB, 0.0% gc time)
Testing R=0.9 ... passed
Calculating fmax: 
  dlrec    = 4
  dlrecRg1 = -4
  q=1.1, R=0.8:	  0.384680 seconds (103.25 k allocations: 14.856 MiB)

  0.385018 seconds (103.48 k allocations: 14.893 MiB)
ℓ = 1202
Δℓ = 4
ΔℓRg1 = -4
N = 1600
q = 1.1
kmin = 1.0e-5
kmax = 100000.00000000004
χ0 = 0.023029999999999995
RR = RR.tsv
ℓmax = ℓmax.bin
f21 = f21.bin
kmin = 1.0e-5
kmax = 100000.0
dlrec    = 4
dlrecRg1 = -4
Output size: 5741568 bytes = 0.005347251892089844 GiB
Output size: 51264 bytes = 4.774332046508789e-5 GiB
Reading 'out/F21EllCache'...   0.001033 seconds (197 allocations: 84.203 KiB)
ellmax: 1202
lmaxcache: 1202
fell[:,1,1] = ComplexF64[7.519068145690986e-120 - 1.8416405474382574e-135im, 7.541664537386155e-120 - 1.847175067190611e-135im]
ell 1202, elapsed: 2.5033950805664062e-5
ell 1201, elapsed: 0.00046896934509277344
ell 1200, elapsed: 0.00037288665771484375
ell 1199, elapsed: 0.0003638267517089844
ell 1198, elapsed: 0.0004138946533203125
ell 1002, elapsed: 0.00999903678894043
ell 1001, elapsed: 0.00039386749267578125
ell 1000, elapsed: 0.0003650188446044922
ell 999, elapsed: 0.00036907196044921875
ell 998, elapsed: 0.00036907196044921875
ell 902, elapsed: 0.0056951045989990234
ell 901, elapsed: 0.00041294097900390625
ell 900, elapsed: 0.0003790855407714844
ell 899, elapsed: 0.00037288665771484375
ell 898, elapsed: 0.00037217140197753906
ell 802, elapsed: 0.005693912506103516
ell 801, elapsed: 0.0003910064697265625
ell 800, elapsed: 0.0004029273986816406
ell 799, elapsed: 0.00037407875061035156
ell 798, elapsed: 0.0003628730773925781
ell 702, elapsed: 0.005347013473510742
ell 701, elapsed: 0.0003910064697265625
ell 700, elapsed: 0.00037407875061035156
ell 699, elapsed: 0.00037217140197753906
ell 698, elapsed: 0.00043201446533203125
ell 602, elapsed: 0.005728960037231445
ell 601, elapsed: 0.0003719329833984375
ell 600, elapsed: 0.00037407875061035156
ell 599, elapsed: 0.00036907196044921875
ell 598, elapsed: 0.0003669261932373047
ell 502, elapsed: 0.00545501708984375
ell 501, elapsed: 0.0004029273986816406
ell 500, elapsed: 0.0003981590270996094
ell 499, elapsed: 0.0003669261932373047
ell 498, elapsed: 0.0003662109375
ell 402, elapsed: 0.005667924880981445
ell 401, elapsed: 0.0003838539123535156
ell 400, elapsed: 0.0003712177276611328
ell 399, elapsed: 0.00036787986755371094
ell 398, elapsed: 0.0003681182861328125
ell 302, elapsed: 0.005695819854736328
ell 301, elapsed: 0.00039005279541015625
ell 300, elapsed: 0.00037288665771484375
ell 299, elapsed: 0.0003688335418701172
ell 298, elapsed: 0.00037288665771484375
ell 202, elapsed: 0.005125999450683594
ell 201, elapsed: 0.0003981590270996094
ell 200, elapsed: 0.0003960132598876953
ell 199, elapsed: 0.0003719329833984375
ell 198, elapsed: 0.000370025634765625
ell 152, elapsed: 0.002931833267211914
ell 151, elapsed: 0.0003781318664550781
ell 150, elapsed: 0.00037598609924316406
ell 149, elapsed: 0.0003719329833984375
ell 148, elapsed: 0.000370025634765625
ell 127, elapsed: 0.0015571117401123047
ell 126, elapsed: 0.0004410743713378906
ell 125, elapsed: 0.0005309581756591797
ell 124, elapsed: 0.00036597251892089844
ell 123, elapsed: 0.00036907196044921875
ell 114, elapsed: 0.0008959770202636719
ell 113, elapsed: 0.00036787986755371094
ell 112, elapsed: 0.00036597251892089844
ell 111, elapsed: 0.00036597251892089844
ell 110, elapsed: 0.00038695335388183594
ell 102, elapsed: 0.0008370876312255859
ell 101, elapsed: 0.0003681182861328125
ell 100, elapsed: 0.00036406517028808594
ell 99, elapsed: 0.00036907196044921875
ell 98, elapsed: 0.0003650188446044922
ell 97, elapsed: 0.0004558563232421875
ell 96, elapsed: 0.0004360675811767578
ell 95, elapsed: 0.0004711151123046875
ell 94, elapsed: 0.0004420280456542969
ell 93, elapsed: 0.00044608116149902344
ell 92, elapsed: 0.0004429817199707031
ell 91, elapsed: 0.0004410743713378906
ell 90, elapsed: 0.0004448890686035156
ell 89, elapsed: 0.0004329681396484375
ell 88, elapsed: 0.0004410743713378906
ell 87, elapsed: 0.0004649162292480469
ell 86, elapsed: 0.00047898292541503906
ell 85, elapsed: 0.0004448890686035156
ell 84, elapsed: 0.00043702125549316406
ell 83, elapsed: 0.0004379749298095703
ell 82, elapsed: 0.0004420280456542969
ell 81, elapsed: 0.00043702125549316406
ell 80, elapsed: 0.0004470348358154297
ell 79, elapsed: 0.00045990943908691406
ell 78, elapsed: 0.0004401206970214844
ell 77, elapsed: 0.0004429817199707031
ell 76, elapsed: 0.0004439353942871094
ell 75, elapsed: 0.00044798851013183594
ell 74, elapsed: 0.00044417381286621094
ell 73, elapsed: 0.00043582916259765625
ell 72, elapsed: 0.00045299530029296875
ell 71, elapsed: 0.0004649162292480469
ell 70, elapsed: 0.0004470348358154297
ell 69, elapsed: 0.00043702125549316406
ell 68, elapsed: 0.000453948974609375
ell 67, elapsed: 0.00044608116149902344
ell 66, elapsed: 0.00043892860412597656
ell 65, elapsed: 0.0004329681396484375
ell 64, elapsed: 0.0004379749298095703
ell 63, elapsed: 0.0004658699035644531
ell 62, elapsed: 0.0004470348358154297
ell 61, elapsed: 0.00043392181396484375
ell 60, elapsed: 0.0004420280456542969
ell 59, elapsed: 0.00044989585876464844
ell 58, elapsed: 0.0004448890686035156
ell 57, elapsed: 0.00043511390686035156
ell 56, elapsed: 0.00043702125549316406
ell 55, elapsed: 0.00046515464782714844
ell 54, elapsed: 0.00043392181396484375
ell 53, elapsed: 0.0004420280456542969
ell 52, elapsed: 0.0004410743713378906
ell 51, elapsed: 0.00043511390686035156
[...]
ell 789, elapsed: 0.0009679794311523438
ell 788, elapsed: 0.0009610652923583984
ell 782, elapsed: 0.0016758441925048828
ell 781, elapsed: 0.0009400844573974609
ell 780, elapsed: 0.0009071826934814453
ell 779, elapsed: 0.0009021759033203125
ell 778, elapsed: 0.0009050369262695312
ell 772, elapsed: 0.001661062240600586
ell 771, elapsed: 0.0009200572967529297
ell 770, elapsed: 0.0009069442749023438
ell 769, elapsed: 0.0009648799896240234
ell 768, elapsed: 0.0009608268737792969
ell 762, elapsed: 0.0017118453979492188
ell 761, elapsed: 0.0009348392486572266
ell 760, elapsed: 0.0009748935699462891
ell 759, elapsed: 0.0009181499481201172
ell 758, elapsed: 0.0009510517120361328
ell 752, elapsed: 0.0017669200897216797
ell 751, elapsed: 0.0009620189666748047
ell 750, elapsed: 0.000965118408203125
ell 749, elapsed: 0.0009720325469970703
ell 748, elapsed: 0.0008490085601806641
ell 742, elapsed: 0.0015778541564941406
ell 741, elapsed: 0.0008420944213867188
ell 740, elapsed: 0.0008358955383300781
ell 739, elapsed: 0.0008270740509033203
ell 738, elapsed: 0.0008270740509033203
ell 732, elapsed: 0.001583099365234375
ell 731, elapsed: 0.0008461475372314453
ell 730, elapsed: 0.000843048095703125
ell 729, elapsed: 0.0008370876312255859
ell 728, elapsed: 0.0008449554443359375
ell 722, elapsed: 0.001592874526977539
ell 721, elapsed: 0.0008449554443359375
ell 720, elapsed: 0.0008308887481689453
ell 719, elapsed: 0.0008559226989746094
ell 718, elapsed: 0.0008418560028076172
ell 712, elapsed: 0.0015919208526611328
ell 711, elapsed: 0.0008459091186523438
ell 710, elapsed: 0.0008480548858642578
ell 709, elapsed: 0.0008358955383300781
ell 708, elapsed: 0.0008311271667480469
ell 702, elapsed: 0.0015850067138671875
ell 701, elapsed: 0.0008418560028076172
ell 700, elapsed: 0.0008318424224853516
ell 699, elapsed: 0.0008549690246582031
ell 698, elapsed: 0.0008580684661865234
ell 692, elapsed: 0.0016100406646728516
ell 691, elapsed: 0.0008349418640136719
ell 690, elapsed: 0.000823974609375
ell 689, elapsed: 0.0008351802825927734
ell 688, elapsed: 0.0008130073547363281
ell 682, elapsed: 0.0015370845794677734
ell 681, elapsed: 0.0008580684661865234
ell 680, elapsed: 0.0008831024169921875
ell 679, elapsed: 0.0008389949798583984
ell 678, elapsed: 0.0008349418640136719
ell 672, elapsed: 0.0015499591827392578
ell 671, elapsed: 0.0008590221405029297
ell 670, elapsed: 0.0008509159088134766
ell 669, elapsed: 0.0008080005645751953
ell 668, elapsed: 0.0008380413055419922
ell 662, elapsed: 0.0015101432800292969
ell 661, elapsed: 0.0008451938629150391
ell 660, elapsed: 0.0008361339569091797
ell 659, elapsed: 0.0008320808410644531
ell 658, elapsed: 0.000843048095703125
ell 652, elapsed: 0.0015330314636230469
ell 651, elapsed: 0.0008509159088134766
ell 650, elapsed: 0.0008728504180908203
ell 649, elapsed: 0.0008449554443359375
ell 648, elapsed: 0.0008380413055419922
ell 642, elapsed: 0.0017518997192382812
ell 641, elapsed: 0.0007739067077636719
ell 640, elapsed: 0.0008289813995361328
ell 639, elapsed: 0.0008330345153808594
ell 638, elapsed: 0.000843048095703125
ell 632, elapsed: 0.0017840862274169922
ell 631, elapsed: 0.0007991790771484375
ell 630, elapsed: 0.0008521080017089844
ell 629, elapsed: 0.0008499622344970703
ell 628, elapsed: 0.0008661746978759766
ell 622, elapsed: 0.001474142074584961
ell 621, elapsed: 0.0008971691131591797
ell 620, elapsed: 0.0008709430694580078
ell 619, elapsed: 0.0008540153503417969
ell 618, elapsed: 0.0008530616760253906
ell 612, elapsed: 0.0018200874328613281
ell 611, elapsed: 0.0008029937744140625
ell 610, elapsed: 0.0008461475372314453
ell 609, elapsed: 0.000823974609375
ell 608, elapsed: 0.0008380413055419922
ell 602, elapsed: 0.0015811920166015625
ell 601, elapsed: 0.0008299350738525391
ell 600, elapsed: 0.0008199214935302734
ell 599, elapsed: 0.0008258819580078125
ell 598, elapsed: 0.0008389949798583984
ell 592, elapsed: 0.0017621517181396484
ell 591, elapsed: 0.0007741451263427734
ell 590, elapsed: 0.0008389949798583984
ell 589, elapsed: 0.0008189678192138672
ell 588, elapsed: 0.000820159912109375
ell 582, elapsed: 0.0016889572143554688
ell 581, elapsed: 0.0008180141448974609
ell 580, elapsed: 0.0008800029754638672
ell 579, elapsed: 0.0008881092071533203
ell 578, elapsed: 0.0008680820465087891
ell 572, elapsed: 0.001909017562866211
ell 571, elapsed: 0.0008580684661865234
ell 570, elapsed: 0.0008261203765869141
ell 569, elapsed: 0.000865936279296875
ell 568, elapsed: 0.0008389949798583984
ell 562, elapsed: 0.0015587806701660156
ell 561, elapsed: 0.0008020401000976562
ell 560, elapsed: 0.0008900165557861328
ell 559, elapsed: 0.0008502006530761719
ell 558, elapsed: 0.0008461475372314453
ell 552, elapsed: 0.0016281604766845703
ell 551, elapsed: 0.0008680820465087891
ell 550, elapsed: 0.0008649826049804688
ell 549, elapsed: 0.000843048095703125
ell 548, elapsed: 0.0008358955383300781
ell 542, elapsed: 0.0016028881072998047
ell 541, elapsed: 0.0010769367218017578
ell 540, elapsed: 0.0008180141448974609
ell 539, elapsed: 0.0008111000061035156
ell 538, elapsed: 0.0008370876312255859
ell 532, elapsed: 0.0015158653259277344
ell 531, elapsed: 0.0008227825164794922
ell 530, elapsed: 0.0008401870727539062
ell 529, elapsed: 0.0008139610290527344
ell 528, elapsed: 0.000823974609375
ell 522, elapsed: 0.0017669200897216797
ell 521, elapsed: 0.0007929801940917969
ell 520, elapsed: 0.000823974609375
ell 519, elapsed: 0.0008220672607421875
ell 518, elapsed: 0.0008249282836914062
ell 512, elapsed: 0.001583099365234375
ell 511, elapsed: 0.0008330345153808594
ell 510, elapsed: 0.0008111000061035156
ell 509, elapsed: 0.0010170936584472656
ell 508, elapsed: 0.0007960796356201172
ell 502, elapsed: 0.0016210079193115234
ell 501, elapsed: 0.0008869171142578125
ell 500, elapsed: 0.0009229183197021484
ell 499, elapsed: 0.0009560585021972656
ell 498, elapsed: 0.0009539127349853516
ell 492, elapsed: 0.0016570091247558594
ell 491, elapsed: 0.0008909702301025391
ell 490, elapsed: 0.0008518695831298828
ell 489, elapsed: 0.0008301734924316406
ell 488, elapsed: 0.0008130073547363281
ell 482, elapsed: 0.0017590522766113281
ell 481, elapsed: 0.0007741451263427734
ell 480, elapsed: 0.0008862018585205078
ell 479, elapsed: 0.0009160041809082031
ell 478, elapsed: 0.0009379386901855469
ell 472, elapsed: 0.001641988754272461
ell 471, elapsed: 0.0009059906005859375
ell 470, elapsed: 0.0008950233459472656
ell 469, elapsed: 0.0008258819580078125
ell 468, elapsed: 0.0008299350738525391
ell 462, elapsed: 0.001561880111694336
ell 461, elapsed: 0.0008499622344970703
ell 460, elapsed: 0.000827789306640625
ell 459, elapsed: 0.0008249282836914062
ell 458, elapsed: 0.0008268356323242188
ell 452, elapsed: 0.0015749931335449219
ell 451, elapsed: 0.0008280277252197266
ell 450, elapsed: 0.0008249282836914062
ell 449, elapsed: 0.0008311271667480469
ell 448, elapsed: 0.0008471012115478516
ell 442, elapsed: 0.0015559196472167969
ell 441, elapsed: 0.0008308887481689453
ell 440, elapsed: 0.0008339881896972656
ell 439, elapsed: 0.0008399486541748047
ell 438, elapsed: 0.0008358955383300781
ell 432, elapsed: 0.0015528202056884766
ell 431, elapsed: 0.0008261203765869141
ell 430, elapsed: 0.0008401870727539062
ell 429, elapsed: 0.0008249282836914062
ell 428, elapsed: 0.0008389949798583984
ell 422, elapsed: 0.001577138900756836
ell 421, elapsed: 0.0008308887481689453
ell 420, elapsed: 0.0008349418640136719
ell 419, elapsed: 0.0008299350738525391
ell 418, elapsed: 0.0008299350738525391
ell 412, elapsed: 0.0015799999237060547
ell 411, elapsed: 0.0008280277252197266
ell 410, elapsed: 0.0008208751678466797
ell 409, elapsed: 0.0008289813995361328
ell 408, elapsed: 0.0008490085601806641
ell 402, elapsed: 0.0015490055084228516
ell 401, elapsed: 0.0008330345153808594
ell 400, elapsed: 0.0008471012115478516
ell 399, elapsed: 0.0008358955383300781
ell 398, elapsed: 0.0008289813995361328
ell 392, elapsed: 0.0015468597412109375
ell 391, elapsed: 0.0009570121765136719
ell 390, elapsed: 0.0010161399841308594
ell 389, elapsed: 0.0009379386901855469
ell 388, elapsed: 0.0009660720825195312
ell 382, elapsed: 0.001661062240600586
ell 381, elapsed: 0.0009009838104248047
ell 380, elapsed: 0.0009300708770751953
ell 379, elapsed: 0.0009150505065917969
ell 378, elapsed: 0.0009098052978515625
ell 372, elapsed: 0.001683950424194336
ell 371, elapsed: 0.0009310245513916016
ell 370, elapsed: 0.0009300708770751953
ell 369, elapsed: 0.0009260177612304688
ell 368, elapsed: 0.0009059906005859375
ell 362, elapsed: 0.001650094985961914
ell 361, elapsed: 0.0009450912475585938
ell 360, elapsed: 0.0009047985076904297
ell 359, elapsed: 0.0009200572967529297
ell 358, elapsed: 0.0009109973907470703
ell 352, elapsed: 0.00164794921875
ell 351, elapsed: 0.0008997917175292969
ell 350, elapsed: 0.0009250640869140625
ell 349, elapsed: 0.0009009838104248047
ell 348, elapsed: 0.000926971435546875
ell 342, elapsed: 0.0015399456024169922
ell 341, elapsed: 0.0008759498596191406
ell 340, elapsed: 0.0009169578552246094
ell 339, elapsed: 0.0008971691131591797
ell 338, elapsed: 0.0008828639984130859
ell 332, elapsed: 0.00191497802734375
ell 331, elapsed: 0.0008170604705810547
ell 330, elapsed: 0.0008831024169921875
ell 329, elapsed: 0.0009279251098632812
ell 328, elapsed: 0.0009138584136962891
ell 322, elapsed: 0.0015549659729003906
ell 321, elapsed: 0.0008800029754638672
ell 320, elapsed: 0.0009551048278808594
ell 319, elapsed: 0.0009491443634033203
ell 318, elapsed: 0.0009169578552246094
ell 312, elapsed: 0.0017740726470947266
ell 311, elapsed: 0.0007920265197753906
ell 310, elapsed: 0.0008211135864257812
ell 309, elapsed: 0.0008418560028076172
ell 308, elapsed: 0.0008208751678466797
ell 302, elapsed: 0.0018610954284667969
ell 301, elapsed: 0.0008649826049804688
ell 300, elapsed: 0.000865936279296875
ell 299, elapsed: 0.0008471012115478516
ell 298, elapsed: 0.0008509159088134766
ell 292, elapsed: 0.0015799999237060547
ell 291, elapsed: 0.0008361339569091797
ell 290, elapsed: 0.000843048095703125
ell 289, elapsed: 0.0008640289306640625
ell 288, elapsed: 0.0008649826049804688
ell 282, elapsed: 0.0015799999237060547
ell 281, elapsed: 0.0008580684661865234
ell 280, elapsed: 0.0008590221405029297
ell 279, elapsed: 0.0008618831634521484
ell 278, elapsed: 0.0008561611175537109
ell 272, elapsed: 0.001580953598022461
ell 271, elapsed: 0.0008630752563476562
ell 270, elapsed: 0.0008358955383300781
ell 269, elapsed: 0.0008499622344970703
ell 268, elapsed: 0.0008521080017089844
ell 262, elapsed: 0.0016031265258789062
ell 261, elapsed: 0.0008490085601806641
ell 260, elapsed: 0.000904083251953125
ell 259, elapsed: 0.0008871555328369141
ell 258, elapsed: 0.0008928775787353516
ell 252, elapsed: 0.00162506103515625
ell 251, elapsed: 0.0008878707885742188
ell 250, elapsed: 0.0008869171142578125
ell 249, elapsed: 0.0008828639984130859
ell 248, elapsed: 0.0008721351623535156
ell 242, elapsed: 0.0016140937805175781
ell 241, elapsed: 0.0008599758148193359
ell 240, elapsed: 0.0008680820465087891
ell 239, elapsed: 0.0008809566497802734
ell 238, elapsed: 0.0008738040924072266
ell 232, elapsed: 0.0016281604766845703
ell 231, elapsed: 0.000885009765625
ell 230, elapsed: 0.0008699893951416016
ell 229, elapsed: 0.0008680820465087891
ell 228, elapsed: 0.0008869171142578125
ell 222, elapsed: 0.0016210079193115234
ell 221, elapsed: 0.0008890628814697266
ell 220, elapsed: 0.0008862018585205078
ell 219, elapsed: 0.0008990764617919922
ell 218, elapsed: 0.0008881092071533203
ell 212, elapsed: 0.001567840576171875
ell 211, elapsed: 0.0009648799896240234
ell 210, elapsed: 0.0009219646453857422
ell 209, elapsed: 0.0008959770202636719
ell 208, elapsed: 0.0009508132934570312
ell 202, elapsed: 0.0016369819641113281
ell 201, elapsed: 0.0009169578552246094
ell 200, elapsed: 0.0009169578552246094
ell 199, elapsed: 0.0008969306945800781
ell 198, elapsed: 0.0009000301361083984
ell 192, elapsed: 0.0016639232635498047
ell 191, elapsed: 0.0009038448333740234
ell 190, elapsed: 0.0008978843688964844
ell 189, elapsed: 0.0009100437164306641
ell 188, elapsed: 0.0008950233459472656
ell 182, elapsed: 0.001653909683227539
ell 181, elapsed: 0.0009119510650634766
ell 180, elapsed: 0.0008950233459472656
ell 179, elapsed: 0.0008981227874755859
ell 178, elapsed: 0.0008959770202636719
ell 172, elapsed: 0.001645803451538086
ell 171, elapsed: 0.0009090900421142578
ell 170, elapsed: 0.0009448528289794922
ell 169, elapsed: 0.0009179115295410156
ell 168, elapsed: 0.0009870529174804688
ell 162, elapsed: 0.0018379688262939453
ell 161, elapsed: 0.00084686279296875
ell 160, elapsed: 0.0009129047393798828
ell 159, elapsed: 0.0009338855743408203
ell 158, elapsed: 0.0009109973907470703
ell 152, elapsed: 0.001917123794555664
ell 151, elapsed: 0.0008800029754638672
ell 150, elapsed: 0.0008420944213867188
ell 149, elapsed: 0.0007650852203369141
ell 148, elapsed: 0.0008671283721923828
ell 142, elapsed: 0.0014929771423339844
ell 141, elapsed: 0.0007989406585693359
ell 140, elapsed: 0.0008530616760253906
ell 139, elapsed: 0.0008349418640136719
ell 138, elapsed: 0.0008537769317626953
ell 132, elapsed: 0.0018842220306396484
ell 131, elapsed: 0.0009419918060302734
ell 130, elapsed: 0.0008401870727539062
ell 129, elapsed: 0.0008380413055419922
ell 128, elapsed: 0.0008580684661865234
ell 122, elapsed: 0.0017349720001220703
ell 121, elapsed: 0.0008671283721923828
ell 120, elapsed: 0.0007879734039306641
ell 119, elapsed: 0.0008389949798583984
ell 118, elapsed: 0.0008368492126464844
ell 112, elapsed: 0.001775979995727539
ell 111, elapsed: 0.0007719993591308594
ell 110, elapsed: 0.0008490085601806641
ell 109, elapsed: 0.0008611679077148438
ell 108, elapsed: 0.0008521080017089844
ell 102, elapsed: 0.0015790462493896484
ell 101, elapsed: 0.0035660266876220703
ell 100, elapsed: 0.00339508056640625
ell 99, elapsed: 0.003409147262573242
ell 98, elapsed: 0.004857778549194336
ell 92, elapsed: 0.008059978485107422
ell 91, elapsed: 0.004899024963378906
ell 90, elapsed: 0.004909038543701172
ell 89, elapsed: 0.004758119583129883
ell 88, elapsed: 0.004875898361206055
ell 82, elapsed: 0.0074198246002197266
ell 81, elapsed: 0.0034530162811279297
ell 80, elapsed: 0.0036420822143554688
ell 79, elapsed: 0.003323078155517578
ell 78, elapsed: 0.0036029815673828125
ell 72, elapsed: 0.00651097297668457
ell 71, elapsed: 0.003339052200317383
ell 70, elapsed: 0.003378152847290039
ell 69, elapsed: 0.0034089088439941406
ell 68, elapsed: 0.003401041030883789
ell 62, elapsed: 0.006733894348144531
ell 61, elapsed: 0.003492116928100586
ell 60, elapsed: 0.003509998321533203
ell 59, elapsed: 0.003481149673461914
ell 58, elapsed: 0.003464937210083008
ell 52, elapsed: 0.006425142288208008
ell 51, elapsed: 0.0036759376525878906
ell 50, elapsed: 0.003373861312866211
ell 49, elapsed: 0.0034089088439941406
ell 48, elapsed: 0.0034308433532714844
ell 42, elapsed: 0.006387948989868164
ell 41, elapsed: 0.0034558773040771484
ell 40, elapsed: 0.003495931625366211
ell 39, elapsed: 0.003756999969482422
ell 38, elapsed: 0.0034799575805664062
ell 32, elapsed: 0.006146907806396484
ell 31, elapsed: 0.003300905227661133
ell 30, elapsed: 0.003676891326904297
ell 29, elapsed: 0.0037560462951660156
ell 28, elapsed: 0.0034902095794677734
ell 22, elapsed: 0.0066149234771728516
ell 21, elapsed: 0.003573894500732422
ell 20, elapsed: 0.0035219192504882812
ell 19, elapsed: 0.0034911632537841797
ell 18, elapsed: 0.003486156463623047
ell 12, elapsed: 0.006617069244384766
ell 11, elapsed: 0.004694938659667969
ell 10, elapsed: 0.004349946975708008
ell 9, elapsed: 0.004384040832519531
ell 8, elapsed: 0.0038869380950927734
  0.860150 seconds (97.09 k allocations: 12.611 MiB)
elapsed: 0.0046689510345458984
step:          0.069066 sec (0 allocations: 0 byte, 0.0% gc time)
swapping:      0.000768 sec (0 allocations: 0 byte, 0.0% gc time)
calc_Mellell!: 0.034694 sec (0 allocations: 0 byte, 0.0% gc time)
  t0 :  0.010129 sec (0 allocations: 0 byte, 0.0% gc time)
  tm2 : 0.078507 sec (0 allocations: 0 byte, 0.0% gc time)
  tm2s: 0.008269 sec (0 allocations: 0 byte, 0.0% gc time)
  tm4 : 0.188867 sec (0 allocations: 0 byte, 0.0% gc time)
  tp2 : 0.0 sec (0 allocations: 0 byte, 0.0% gc time)
  tp2s: 0.0 sec (0 allocations: 0 byte, 0.0% gc time)
  tp4 : 0.0 sec (0 allocations: 0 byte, 0.0% gc time)
calc_wtdll!:   0.552482 sec (48.6 k allocations: 11.096 MB, 0.0% gc time)
calc_wljj!:    0.043742 sec (69 allocations: 1.078 KB, 0.0% gc time)
mult_prefac!:  0.0 sec (0 allocations: 0 byte, 0.0% gc time)
convert:       0.0 sec (0 allocations: 0 byte, 0.0% gc time)
write:         0.036474 sec (0 allocations: 0 byte, 0.0% gc time)
test_rand_2f1: 0.0 sec (0 allocations: 0 byte, 0.0% gc time)
Closing outfile out/MlCache/MlCache.bin...   0.000009 seconds
xi, l=0, nu=0:   0.348801 seconds (599.48 k allocations: 32.701 MiB)
xi, l=0, nu=-2:  0.002339 seconds (1.14 k allocations: 164.984 KiB)
Created 'out/xi.tsv'.
  q=1.1, R=0.6:	  0.717783 seconds (264.52 k allocations: 38.099 MiB)
  q=1.1, R=0.7:	  0.896437 seconds (276.46 k allocations: 40.114 MiB, 1.33% gc time)
  q=1.1, R=0.8:	  0.926209 seconds (271.68 k allocations: 39.302 MiB, 1.08% gc time)
  q=1.1, R=0.9:	  1.043028 seconds (266.62 k allocations: 38.459 MiB, 1.27% gc time)
  q=1.1, R=0.998:	 19.860216 seconds (114.96 k allocations: 7.588 MiB)
  q=1.1, R=1.0:	  0.003099 seconds (8.20 k allocations: 704.344 KiB)

ℓ = 1000
Δℓ = 4
ΔℓRg1 = -4
N = 4096
q = 1.1
kmin = 1.0e-5
kmax = 1000.0
χ0 = 0.001
RR = RR.tsv
ℓmax = ℓmax.bin
f21 = f21.bin
kmin = 1.0e-5
kmax = 1000.0
dlrec    = 4
dlrecRg1 = -4
Output size: 1573632 bytes = 0.0014655590057373047 GiB
Output size: 786816 bytes = 0.0007327795028686523 GiB
Reading 'out/F21EllCache'...   0.001623 seconds (198 allocations: 533.078 KiB)
ellmax: 1002
lmaxcache: 1000
fell[:,1,1] = ComplexF64[1.7262928128202118e-224 - 4.2281979352226944e-240im, 1.7282693092099662e-224 - 4.233038955177176e-240im]
ell 1002, elapsed: 4.410743713378906e-5
ell 1001, elapsed: 0.0011889934539794922
ell 1000, elapsed: 0.001104116439819336
ell 999, elapsed: 0.00469517707824707
ell 998, elapsed: 0.0063588619232177734
ell 44, elapsed: 0.8047070503234863
ell 43, elapsed: 0.005774021148681641
ell 42, elapsed: 0.006139993667602539
ell 41, elapsed: 0.005717039108276367
ell 40, elapsed: 0.005856990814208984
  0.849466 seconds (15.95 k allocations: 1.000 MiB, 4.03% gc time)
elapsed: 0.00702214241027832
step:          0.728113 sec (0 allocations: 0 byte, 0.0% gc time)
swapping:      0.000556 sec (0 allocations: 0 byte, 0.0% gc time)
calc_Mellell!: 0.001064 sec (0 allocations: 0 byte, 0.0% gc time)
  t0 :  0.001008 sec (0 allocations: 0 byte, 0.0% gc time)
  tm2 : 0.010424 sec (0 allocations: 0 byte, 0.0% gc time)
  tm2s: 0.000709 sec (0 allocations: 0 byte, 0.0% gc time)
  tm4 : 0.028963 sec (0 allocations: 0 byte, 0.0% gc time)
  tp2 : 0.0 sec (0 allocations: 0 byte, 0.0% gc time)
  tp2s: 0.0 sec (0 allocations: 0 byte, 0.0% gc time)
  tp4 : 0.0 sec (0 allocations: 0 byte, 0.0% gc time)
calc_wtdll!:   0.041332 sec (480 allocations: 52.5 KB, 0.0% gc time)
calc_wljj!:    0.001811 sec (1 allocations: 16 byte, 0.0% gc time)
mult_prefac!:  0.0 sec (0 allocations: 0 byte, 0.0% gc time)
convert:       0.0 sec (0 allocations: 0 byte, 0.0% gc time)
write:         0.000923 sec (0 allocations: 0 byte, 0.0% gc time)
test_rand_2f1: 0.0 sec (0 allocations: 0 byte, 0.0% gc time)
Closing outfile out/MlCache/MlCache.bin...   0.000006 seconds
  0.543310 seconds (38 allocations: 66.859 KiB)
make_phi():   0.010756 seconds (4.16 k allocations: 339.984 KiB)
  0.045421 seconds (11.51 k allocations: 716.413 KiB)
tskip:       1.0e-6 sec (0 allocations: 0 byte, 0.0% gc time)
tread:       0.000882 sec (17 allocations: 1.266 KB, 0.0% gc time)
tmultphi:    0.000368 sec (0 allocations: 0 byte, 0.0% gc time)
tbrfft:      0.001528 sec (0 allocations: 0 byte, 0.0% gc time)
tmultprefac: 0.000967 sec (0 allocations: 0 byte, 0.0% gc time)
toutfunc:    0.000228 sec (0 allocations: 0 byte, 0.0% gc time)
Created 'out/wl42_jj00.tsv'.
Created 'out/wl42_jj02.tsv'.
    Testing TwoFAST tests passed 
