Julia Version 1.6.0-DEV.968
Commit 0805aef9a9* (2020-09-18 09:12 UTC)
Platform Info:
  OS: Linux (x86_64-linux-gnu)
  CPU: Intel(R) Xeon(R) Silver 4114 CPU @ 2.20GHz
  WORD_SIZE: 64
  LIBM: libopenlibm
  LLVM: libLLVM-9.0.1 (ORCJIT, skylake-avx512)
Environment:
  JULIA_DEPOT_PATH = ::/usr/local/share/julia
  JULIA_NUM_THREADS = 2

  Resolving package versions...
  Installed FFTW_jll ───────────────────── v3.3.9+5
  Installed Readables ──────────────────── v0.3.3
  Installed AbstractFFTs ───────────────── v0.5.0
  Installed FFTW ───────────────────────── v1.2.4
  Installed SpecialFunctions ───────────── v0.10.3
  Installed GenericSchur ───────────────── v0.4.0
  Installed GenericSVD ─────────────────── v0.3.0
  Installed OpenSpecFun_jll ────────────── v0.5.3+3
  Installed MKL_jll ────────────────────── v2020.2.254+0
  Installed CompilerSupportLibraries_jll ─ v0.3.3+0
  Installed BinaryProvider ─────────────── v0.5.10
  Installed ArbNumerics ────────────────── v1.2.1
  Installed IntelOpenMP_jll ────────────── v2018.0.3+0
  Installed TwoFAST ────────────────────── v0.1.3
  Installed Reexport ───────────────────── v0.2.0
Updating `~/.julia/environments/v1.6/Project.toml`
  [0dd23c3e] + TwoFAST v0.1.3
Updating `~/.julia/environments/v1.6/Manifest.toml`
  [621f4979] + AbstractFFTs v0.5.0
  [7e558dbc] + ArbNumerics v1.2.1
  [b99e7846] + BinaryProvider v0.5.10
  [e66e0078] + CompilerSupportLibraries_jll v0.3.3+0
  [7a1cc6ca] + FFTW v1.2.4
  [f5851436] + FFTW_jll v3.3.9+5
  [01680d73] + GenericSVD v0.3.0
  [c145ed77] + GenericSchur v0.4.0
  [1d5cc7b8] + IntelOpenMP_jll v2018.0.3+0
  [856f044c] + MKL_jll v2020.2.254+0
  [efe28fd5] + OpenSpecFun_jll v0.5.3+3
  [0d4725de] + Readables v0.3.3
  [189a3867] + Reexport v0.2.0
  [276daf66] + SpecialFunctions v0.10.3
  [0dd23c3e] + TwoFAST v0.1.3
  [56f22d72] + Artifacts
  [2a0f44e3] + Base64
  [ade2ca70] + Dates
  [8bb1440f] + DelimitedFiles
  [8ba89e20] + Distributed
  [b77e0a4c] + InteractiveUtils
  [76f85450] + LibGit2
  [8f399da3] + Libdl
  [37e2e46d] + LinearAlgebra
  [56ddb016] + Logging
  [d6f4376e] + Markdown
  [a63ad114] + Mmap
  [44cfe95a] + Pkg
  [de0858da] + Printf
  [3fa0cd96] + REPL
  [9a3f8284] + Random
  [ea8e919c] + SHA
  [9e88b42a] + Serialization
  [6462fe0b] + Sockets
  [fa267f1f] + TOML
  [8dfed614] + Test
  [cf7118a7] + UUIDs
  [4ec0a83e] + Unicode
   Building FFTW ───────→ `~/.julia/packages/FFTW/DMUbN/deps/build.log`
   Building ArbNumerics → `~/.julia/packages/ArbNumerics/joGFm/deps/build.log`
    Testing TwoFAST
Status `/tmp/jl_8bM9jD/Project.toml`
  [7e558dbc] ArbNumerics v1.2.1
  [39dd38d3] Dierckx v0.5.0
  [7a1cc6ca] FFTW v1.2.4
  [276daf66] SpecialFunctions v0.10.3
  [0dd23c3e] TwoFAST v0.1.3
  [8bb1440f] DelimitedFiles
  [37e2e46d] LinearAlgebra
  [56ddb016] Logging
  [8dfed614] Test
Status `/tmp/jl_8bM9jD/Manifest.toml`
  [621f4979] AbstractFFTs v0.5.0
  [7e558dbc] ArbNumerics v1.2.1
  [b99e7846] BinaryProvider v0.5.10
  [e66e0078] CompilerSupportLibraries_jll v0.3.3+0
  [39dd38d3] Dierckx v0.5.0
  [cd4c43a9] Dierckx_jll v0.0.1+0
  [7a1cc6ca] FFTW v1.2.4
  [f5851436] FFTW_jll v3.3.9+5
  [01680d73] GenericSVD v0.3.0
  [c145ed77] GenericSchur v0.4.0
  [1d5cc7b8] IntelOpenMP_jll v2018.0.3+0
  [856f044c] MKL_jll v2020.2.254+0
  [efe28fd5] OpenSpecFun_jll v0.5.3+3
  [0d4725de] Readables v0.3.3
  [189a3867] Reexport v0.2.0
  [276daf66] SpecialFunctions v0.10.3
  [0dd23c3e] TwoFAST v0.1.3
  [56f22d72] Artifacts
  [2a0f44e3] Base64
  [ade2ca70] Dates
  [8bb1440f] DelimitedFiles
  [8ba89e20] Distributed
  [b77e0a4c] InteractiveUtils
  [76f85450] LibGit2
  [8f399da3] Libdl
  [37e2e46d] LinearAlgebra
  [56ddb016] Logging
  [d6f4376e] Markdown
  [a63ad114] Mmap
  [44cfe95a] Pkg
  [de0858da] Printf
  [3fa0cd96] REPL
  [9a3f8284] Random
  [ea8e919c] SHA
  [9e88b42a] Serialization
  [6462fe0b] Sockets
  [fa267f1f] TOML
  [8dfed614] Test
  [cf7118a7] UUIDs
  [4ec0a83e] Unicode
    Testing Running tests...
WARNING: could not import Printf.ini_hex into ArbNumerics
WARNING: could not import Printf.ini_HEX into ArbNumerics
t = 0.0 sec (0 allocations: 0 byte, 0.0% gc time)
typeof(t) = NamedTuple{(:value, :time, :bytes, :gctime, :gcstats), Tuple{DataType, Float64, Int64, Float64, Base.GC_Diff}}
TwoFAST.PerformanceStats.TimedType = Union{NamedTuple{(:value, :time, :bytes, :gctime, :gcstats), Tuple{T, Float64, Int64, Float64, Base.GC_Diff}}, Tuple{Any, Float64, Int64, Float64, Base.GC_Diff}} where T
t = 1.0e-6 sec (0 allocations: 0 byte, 0.0% gc time)
t: 1.0e-6 sec (0 allocations: 0 byte, 0.0% gc time)
Testing ξ(r), ℓ=0, ν=-1 ... passed
Testing ξ(r), ℓ=0, ν=0 ... passed
Testing ξ(r), ℓ=0, ν=1 ... passed
Testing ξ(r), ℓ=0, ν=2 ... passed
Testing ξ(r), ℓ=0, ν=3 ... passed
Testing ξ(r), ℓ=1, ν=0 ... passed
Testing ξ(r), ℓ=1, ν=1 ... passed
Testing ξ(r), ℓ=1, ν=2 ... passed
Testing ξ(r), ℓ=1, ν=3 ... passed
Testing ξ(r), ℓ=2, ν=-1 ... passed
Testing ξ(r), ℓ=2, ν=0 ... passed
Testing ξ(r), ℓ=2, ν=1 ... passed
Testing ξ(r), ℓ=2, ν=2 ... passed
Testing ξ(r), ℓ=2, ν=3 ... passed
Testing ξ(r), ℓ=3, ν=-1 ... passed
Testing ξ(r), ℓ=3, ν=0 ... passed
Testing ξ(r), ℓ=3, ν=1 ... passed
Testing ξ(r), ℓ=3, ν=2 ... passed
Testing ξ(r), ℓ=3, ν=3 ... passed
Testing ξ(r), ℓ=4, ν=-1 ... passed
Testing ξ(r), ℓ=4, ν=0 ... passed
Testing ξ(r), ℓ=4, ν=1 ... passed
Testing ξ(r), ℓ=4, ν=2 ... passed
Testing ξ(r), ℓ=4, ν=3 ... passed
Testing ξ(r) ... passed
Testing ξ′(r) ... passed
Testing ξ″(r) ... passed
Calculating fmax: 
  dlrec    = 4
  dlrecRg1 = -4
  q=1.1, R=1.1:	  4.133543 seconds (836.91 k allocations: 53.421 MiB)

  4.150773 seconds (849.65 k allocations: 54.213 MiB)
ℓ = 1202
Δℓ = 4
ΔℓRg1 = -4
N = 1600
q = 1.1
kmin = 1.0e-5
kmax = 100000.00000000004
χ0 = 0.023029999999999995
RR = RR.tsv
ℓmax = ℓmax.bin
f21 = f21.bin
kmin = 1.0e-5
kmax = 100000.0
dlrec    = 4
dlrecRg1 = -4
Output size: 5741568 bytes = 0.005347251892089844 GiB
Output size: 51264 bytes = 4.774332046508789e-5 GiB
Reading 'out/F21EllCache'...   0.632533 seconds (398.06 k allocations: 23.340 MiB, 3.59% gc time)
ellmax: 1202
lmaxcache: 1202
fell[:,1,1] = ComplexF64[3.9583795592771634e-52 - 9.695233714158177e-68im, 3.990121772925759e-52 - 9.772979714843386e-68im]
ell 1202, elapsed: 3.314018249511719e-5
ell 1201, elapsed: 1.1731750965118408
ell 1200, elapsed: 0.0005199909210205078
ell 1199, elapsed: 0.0004820823669433594
ell 1198, elapsed: 0.0004799365997314453
ell 1002, elapsed: 0.02724909782409668
ell 1001, elapsed: 0.000514984130859375
ell 1000, elapsed: 0.0006060600280761719
ell 999, elapsed: 0.0005500316619873047
ell 998, elapsed: 0.0005469322204589844
ell 902, elapsed: 0.0060350894927978516
ell 901, elapsed: 0.000579833984375
ell 900, elapsed: 0.0005648136138916016
ell 899, elapsed: 0.0005578994750976562
ell 898, elapsed: 0.0006070137023925781
ell 802, elapsed: 0.00594782829284668
ell 801, elapsed: 0.0005640983581542969
ell 800, elapsed: 0.0006670951843261719
ell 799, elapsed: 0.0006120204925537109
ell 798, elapsed: 0.0005550384521484375
ell 702, elapsed: 0.005774021148681641
ell 701, elapsed: 0.0005519390106201172
ell 700, elapsed: 0.0005321502685546875
ell 699, elapsed: 0.0005331039428710938
ell 698, elapsed: 0.0005321502685546875
ell 602, elapsed: 0.0052449703216552734
ell 601, elapsed: 0.0004949569702148438
ell 600, elapsed: 0.0005118846893310547
ell 599, elapsed: 0.0004889965057373047
ell 598, elapsed: 0.000492095947265625
ell 502, elapsed: 0.005180835723876953
ell 501, elapsed: 0.0004980564117431641
ell 500, elapsed: 0.0004799365997314453
ell 499, elapsed: 0.0005400180816650391
ell 498, elapsed: 0.0005559921264648438
ell 402, elapsed: 0.005593061447143555
ell 401, elapsed: 0.0004839897155761719
ell 400, elapsed: 0.00048089027404785156
ell 399, elapsed: 0.0004951953887939453
ell 398, elapsed: 0.00047898292541503906
ell 302, elapsed: 0.0054111480712890625
ell 301, elapsed: 0.0005559921264648438
ell 300, elapsed: 0.0005559921264648438
ell 299, elapsed: 0.0005540847778320312
ell 298, elapsed: 0.0005469322204589844
ell 202, elapsed: 0.0058400630950927734
ell 201, elapsed: 0.0005669593811035156
ell 200, elapsed: 0.0005609989166259766
ell 199, elapsed: 0.0008499622344970703
ell 198, elapsed: 0.0005009174346923828
ell 152, elapsed: 0.002939939498901367
ell 151, elapsed: 0.0005028247833251953
ell 150, elapsed: 0.0005469322204589844
ell 149, elapsed: 0.0005609989166259766
ell 148, elapsed: 0.0005609989166259766
ell 127, elapsed: 0.0017631053924560547
ell 126, elapsed: 0.0005409717559814453
ell 125, elapsed: 0.0005359649658203125
ell 124, elapsed: 0.0005362033843994141
ell 123, elapsed: 0.0005369186401367188
ell 114, elapsed: 0.0010309219360351562
ell 113, elapsed: 0.0005600452423095703
ell 112, elapsed: 0.0005609989166259766
ell 111, elapsed: 0.0005609989166259766
ell 110, elapsed: 0.0005590915679931641
ell 102, elapsed: 0.0012660026550292969
ell 101, elapsed: 0.0004990100860595703
ell 100, elapsed: 0.0004870891571044922
ell 99, elapsed: 0.00048804283142089844
ell 98, elapsed: 0.0004858970642089844
ell 97, elapsed: 0.000576019287109375
ell 96, elapsed: 0.0006101131439208984
ell 95, elapsed: 0.0005559921264648438
ell 94, elapsed: 0.0005559921264648438
ell 93, elapsed: 0.0005500316619873047
ell 92, elapsed: 0.0005459785461425781
ell 91, elapsed: 0.0005440711975097656
ell 90, elapsed: 0.0005681514739990234
ell 89, elapsed: 0.0006160736083984375
ell 88, elapsed: 0.0005679130554199219
ell 87, elapsed: 0.0006208419799804688
ell 86, elapsed: 0.0005419254302978516
ell 85, elapsed: 0.0005450248718261719
ell 84, elapsed: 0.0005590915679931641
ell 83, elapsed: 0.0006151199340820312
ell 82, elapsed: 0.0005390644073486328
ell 81, elapsed: 0.0005550384521484375
ell 80, elapsed: 0.0005440711975097656
ell 79, elapsed: 0.0005390644073486328
ell 78, elapsed: 0.0005419254302978516
ell 77, elapsed: 0.0005548000335693359
ell 76, elapsed: 0.0006139278411865234
ell 75, elapsed: 0.0005450248718261719
ell 74, elapsed: 0.0005581378936767578
ell 73, elapsed: 0.0005431175231933594
ell 72, elapsed: 0.0005409717559814453
ell 71, elapsed: 0.0005409717559814453
ell 70, elapsed: 0.0005481243133544922
ell 69, elapsed: 0.0005419254302978516
ell 68, elapsed: 0.0005440711975097656
ell 67, elapsed: 0.00055694580078125
ell 66, elapsed: 0.0005500316619873047
ell 65, elapsed: 0.0005419254302978516
ell 64, elapsed: 0.0005450248718261719
ell 63, elapsed: 0.0005471706390380859
ell 62, elapsed: 0.0005431175231933594
ell 61, elapsed: 0.0005640983581542969
ell 60, elapsed: 0.0007169246673583984
ell 59, elapsed: 0.0005497932434082031
ell 58, elapsed: 0.0005488395690917969
ell 57, elapsed: 0.0005459785461425781
ell 56, elapsed: 0.0005471706390380859
ell 55, elapsed: 0.0005459785461425781
ell 54, elapsed: 0.0006167888641357422
ell 53, elapsed: 0.0006010532379150391
ell 52, elapsed: 0.0005438327789306641
ell 51, elapsed: 0.0005509853363037109
ell 50, elapsed: 0.0005440711975097656
ell 49, elapsed: 0.0005450248718261719
ell 48, elapsed: 0.0005509853363037109
ell 47, elapsed: 0.0006608963012695312
ell 46, elapsed: 0.0005581378936767578
ell 45, elapsed: 0.0005471706390380859
ell 44, elapsed: 0.0005660057067871094
ell 43, elapsed: 0.0006201267242431641
ell 42, elapsed: 0.0005438327789306641
ell 41, elapsed: 0.0006160736083984375
ell 40, elapsed: 0.0005929470062255859
ell 39, elapsed: 0.0005478858947753906
ell 38, elapsed: 0.00055694580078125
ell 37, elapsed: 0.0005540847778320312
ell 36, elapsed: 0.0005769729614257812
ell 35, elapsed: 0.0006818771362304688
ell 34, elapsed: 0.0006999969482421875
ell 33, elapsed: 0.0006232261657714844
ell 32, elapsed: 0.0005459785461425781
ell 31, elapsed: 0.0005521774291992188
ell 30, elapsed: 0.0005512237548828125
ell 29, elapsed: 0.0005538463592529297
ell 28, elapsed: 0.0007510185241699219
ell 27, elapsed: 0.0007848739624023438
ell 26, elapsed: 0.0006229877471923828
ell 25, elapsed: 0.0006189346313476562
ell 24, elapsed: 0.0006201267242431641
ell 23, elapsed: 0.0008130073547363281
ell 22, elapsed: 0.0006239414215087891
ell 21, elapsed: 0.0006270408630371094
ell 20, elapsed: 0.0006189346313476562
ell 19, elapsed: 0.0006189346313476562
ell 18, elapsed: 0.0006291866302490234
ell 17, elapsed: 0.0007040500640869141
ell 16, elapsed: 0.0007030963897705078
ell 15, elapsed: 0.0007879734039306641
ell 14, elapsed: 0.0006539821624755859
ell 13, elapsed: 0.0006198883056640625
ell 12, elapsed: 0.000782012939453125
ell 11, elapsed: 0.0006170272827148438
ell 10, elapsed: 0.000576019287109375
ell 9, elapsed: 0.0005481243133544922
ell 8, elapsed: 0.0005440711975097656
ell 7, elapsed: 0.0005428791046142578
ell 6, elapsed: 0.0007150173187255859
ell 5, elapsed: 0.0005648136138916016
ell 4, elapsed: 0.0005559921264648438
ell 3, elapsed: 0.0005478858947753906
ell 2, elapsed: 0.0005700588226318359
ell 1, elapsed: 0.0006258487701416016
ell 0, elapsed: 0.0006740093231201172
  1.857315 seconds (1.27 M allocations: 69.564 MiB, 1.19% gc time)
elapsed: 0.0007328987121582031
step:          0.314457 sec (303.528 k allocations: 16.47 MB, 0.0% gc time)
swapping:      0.000507 sec (0 allocations: 0 byte, 0.0% gc time)
calc_Mellell!: 0.133278 sec (131.121 k allocations: 7.129 MB, 0.0% gc time)
  t0 :  0.0 sec (0 allocations: 0 byte, 0.0% gc time)
  tm2 : 0.0 sec (0 allocations: 0 byte, 0.0% gc time)
  tm2s: 0.0 sec (0 allocations: 0 byte, 0.0% gc time)
  tm4 : 0.0 sec (0 allocations: 0 byte, 0.0% gc time)
  tp2 : 0.0 sec (0 allocations: 0 byte, 0.0% gc time)
  tp2s: 0.0 sec (0 allocations: 0 byte, 0.0% gc time)
  tp4 : 0.0 sec (0 allocations: 0 byte, 0.0% gc time)
calc_wtdll!:   0.867153 sec (511.857 k allocations: 28.285 MB, 0.0% gc time)
calc_wljj!:    0.003658 sec (6 allocations: 96 byte, 0.0% gc time)
mult_prefac!:  0.0 sec (0 allocations: 0 byte, 0.0% gc time)
convert:       0.0 sec (0 allocations: 0 byte, 0.0% gc time)
write:         0.003925 sec (0 allocations: 0 byte, 0.0% gc time)
test_rand_2f1: 0.0 sec (0 allocations: 0 byte, 0.0% gc time)
Closing outfile out/Ml21-cache.bin...   0.000007 seconds
  1.537117 seconds (348.14 k allocations: 21.174 MiB)
make_phi():   0.016555 seconds (8.18 k allocations: 237.844 KiB)
  0.304224 seconds (87.94 k allocations: 4.764 MiB, 7.62% gc time)
tskip:       0.000547 sec (0 allocations: 0 byte, 0.0% gc time)
tread:       0.004103 sec (17 allocations: 2.125 KB, 0.0% gc time)
tmultphi:    0.046538 sec (21.564 k allocations: 1.294 MB, 0.0% gc time)
tbrfft:      0.008501 sec (0 allocations: 0 byte, 0.0% gc time)
tmultprefac: 0.005582 sec (0 allocations: 0 byte, 0.0% gc time)
toutfunc:    0.194052 sec (64.715 k allocations: 3.34 MB, 11.94% gc time)
Testing R=1.1 ... passed
Calculating fmax: 
  dlrec    = 4
  dlrecRg1 = -4
  q=1.1, R=1.0:	  0.001088 seconds (3.20 k allocations: 275.344 KiB)

  0.001303 seconds (3.35 k allocations: 311.750 KiB)
ℓ = 1202
Δℓ = 4
ΔℓRg1 = -4
N = 1600
q = 1.1
kmin = 1.0e-5
kmax = 100000.00000000004
χ0 = 0.023029999999999995
RR = RR.tsv
ℓmax = ℓmax.bin
f21 = f21.bin
kmin = 1.0e-5
kmax = 100000.0
dlrec    = 4
dlrecRg1 = -4
Output size: 61465536 bytes = 0.05724424123764038 GiB
Output size: 51264 bytes = 4.774332046508789e-5 GiB
Reading 'out/F21EllCache'...   0.001154 seconds (197 allocations: 84.203 KiB)
ellmax: 1202
lmaxcache: 1202
fell[:,1,1] = ComplexF64[809.6031528389767 - 1.9829558194077161e-13im, 0.0 + 0.0im]
ell 1202, elapsed: 9.894371032714844e-5
ell 1201, elapsed: 0.01559591293334961
ell 1200, elapsed: 0.015161991119384766
ell 1199, elapsed: 0.0006420612335205078
ell 1198, elapsed: 0.00047087669372558594
ell 1197, elapsed: 0.0005459785461425781
ell 1196, elapsed: 0.0006477832794189453
ell 1195, elapsed: 0.0005331039428710938
ell 1194, elapsed: 0.0004978179931640625
ell 1193, elapsed: 0.000518798828125
ell 1192, elapsed: 0.0005350112915039062
ell 1191, elapsed: 0.0005140304565429688
ell 1190, elapsed: 0.0005309581756591797
ell 1189, elapsed: 0.0005559921264648438
ell 1188, elapsed: 0.0004639625549316406
ell 1187, elapsed: 0.0005638599395751953
ell 1186, elapsed: 0.0005359649658203125
ell 1185, elapsed: 0.00055694580078125
ell 1184, elapsed: 0.0007588863372802734
ell 1183, elapsed: 0.0005421638488769531
ell 1182, elapsed: 0.0005478858947753906
ell 1181, elapsed: 0.0005488395690917969
ell 1180, elapsed: 0.0005438327789306641
ell 1179, elapsed: 0.0005438327789306641
ell 1178, elapsed: 0.0005490779876708984
ell 1177, elapsed: 0.0005450248718261719
ell 1176, elapsed: 0.0007619857788085938
ell 1175, elapsed: 0.0006880760192871094
ell 1174, elapsed: 0.0005671977996826172
ell 1173, elapsed: 0.0005440711975097656
ell 1172, elapsed: 0.0005431175231933594
ell 1171, elapsed: 0.0005331039428710938
ell 1170, elapsed: 0.0005409717559814453
ell 1169, elapsed: 0.0005309581756591797
ell 1168, elapsed: 0.0005278587341308594
ell 1167, elapsed: 0.0005431175231933594
ell 1166, elapsed: 0.0005590915679931641
ell 1165, elapsed: 0.0005559921264648438
ell 1164, elapsed: 0.0005400180816650391
ell 1163, elapsed: 0.0007441043853759766
ell 1162, elapsed: 0.0005438327789306641
ell 1161, elapsed: 0.0005521774291992188
ell 1160, elapsed: 0.0005421638488769531
ell 1159, elapsed: 0.0005390644073486328
ell 1158, elapsed: 0.0005338191986083984
ell 1157, elapsed: 0.0005478858947753906
ell 1156, elapsed: 0.0005490779876708984
ell 1155, elapsed: 0.0005371570587158203
ell 1154, elapsed: 0.0005359649658203125
ell 1153, elapsed: 0.0005331039428710938
ell 1152, elapsed: 0.0007810592651367188
ell 1151, elapsed: 0.0005438327789306641
ell 1150, elapsed: 0.0005409717559814453
ell 1149, elapsed: 0.0005109310150146484
ell 1148, elapsed: 0.0005137920379638672
ell 1147, elapsed: 0.0005280971527099609
ell 1146, elapsed: 0.0004878044128417969
ell 1145, elapsed: 0.0005080699920654297
ell 1144, elapsed: 0.0005099773406982422
ell 1143, elapsed: 0.0005249977111816406
ell 1142, elapsed: 0.0005261898040771484
ell 1141, elapsed: 0.0004889965057373047
ell 1140, elapsed: 0.0005080699920654297
ell 1139, elapsed: 0.00051116943359375
ell 1138, elapsed: 0.0005130767822265625
ell 1137, elapsed: 0.0004851818084716797
ell 1136, elapsed: 0.0005090236663818359
ell 1135, elapsed: 0.0005300045013427734
ell 1134, elapsed: 0.0005071163177490234
ell 1133, elapsed: 0.0005080699920654297
ell 1132, elapsed: 0.0005090236663818359
ell 1131, elapsed: 0.0005180835723876953
ell 1130, elapsed: 0.0005137920379638672
ell 1129, elapsed: 0.0005009174346923828
ell 1128, elapsed: 0.0005130767822265625
ell 1127, elapsed: 0.0004999637603759766
ell 1126, elapsed: 0.0005159378051757812
ell 1125, elapsed: 0.0004949569702148438
ell 1124, elapsed: 0.0005040168762207031
ell 1123, elapsed: 0.00051116943359375
ell 1122, elapsed: 0.0005059242248535156
ell 1121, elapsed: 0.000514984130859375
ell 1120, elapsed: 0.0004930496215820312
ell 1119, elapsed: 0.0005049705505371094
ell 1118, elapsed: 0.0009100437164306641
ell 1117, elapsed: 0.0009009838104248047
ell 1116, elapsed: 0.0008990764617919922
ell 1115, elapsed: 0.0009059906005859375
ell 1114, elapsed: 0.0008800029754638672
ell 1113, elapsed: 0.0009009838104248047
ell 1112, elapsed: 0.0008990764617919922
ell 1111, elapsed: 0.0008940696716308594
ell 1110, elapsed: 0.0005090236663818359
ell 1109, elapsed: 0.0004889965057373047
ell 1108, elapsed: 0.0005049705505371094
ell 1107, elapsed: 0.0005059242248535156
ell 1106, elapsed: 0.00048613548278808594
ell 1105, elapsed: 0.0005061626434326172
ell 1104, elapsed: 0.0005040168762207031
ell 1103, elapsed: 0.0005099773406982422
ell 1102, elapsed: 0.0005028247833251953
ell 1101, elapsed: 0.0005040168762207031
ell 1100, elapsed: 0.0005199909210205078
ell 1099, elapsed: 0.0005030632019042969
ell 1098, elapsed: 0.0005071163177490234
ell 1097, elapsed: 0.0005030632019042969
ell 1096, elapsed: 0.00048804283142089844
ell 1095, elapsed: 0.0005080699920654297
ell 1094, elapsed: 0.00048804283142089844
ell 1093, elapsed: 0.0004899501800537109
ell 1092, elapsed: 0.0005278587341308594
ell 1091, elapsed: 0.0005121231079101562
ell 1090, elapsed: 0.0005071163177490234
ell 1089, elapsed: 0.0005221366882324219
ell 1088, elapsed: 0.0005190372467041016
ell 1087, elapsed: 0.0005030632019042969
ell 1086, elapsed: 0.0004909038543701172
ell 1085, elapsed: 0.0005030632019042969
ell 1084, elapsed: 0.0005278587341308594
ell 1083, elapsed: 0.0005018711090087891
ell 1082, elapsed: 0.0005459785461425781
ell 1081, elapsed: 0.0005240440368652344
ell 1080, elapsed: 0.0005249977111816406
ell 1079, elapsed: 0.0005829334259033203
ell 1078, elapsed: 0.0005209445953369141
ell 1077, elapsed: 0.0005638599395751953
ell 1076, elapsed: 0.0005309581756591797
ell 1075, elapsed: 0.0005528926849365234
ell 1074, elapsed: 0.0005609989166259766
ell 1073, elapsed: 0.0005280971527099609
ell 1072, elapsed: 0.0005679130554199219
ell 1071, elapsed: 0.0005350112915039062
ell 1070, elapsed: 0.0005700588226318359
ell 1069, elapsed: 0.0005362033843994141
ell 1068, elapsed: 0.0005691051483154297
ell 1067, elapsed: 0.0005450248718261719
ell 1066, elapsed: 0.0005490779876708984
ell 1065, elapsed: 0.0005571842193603516
ell 1064, elapsed: 0.0005650520324707031
ell 1063, elapsed: 0.000537872314453125
ell 1062, elapsed: 0.0005550384521484375
ell 1061, elapsed: 0.0005500316619873047
ell 1060, elapsed: 0.0005710124969482422
ell 1059, elapsed: 0.0005550384521484375
ell 1058, elapsed: 0.0006389617919921875
ell 1057, elapsed: 0.0009009838104248047
ell 1056, elapsed: 0.0009210109710693359
ell 1055, elapsed: 0.0008931159973144531
ell 1054, elapsed: 0.0008912086486816406
ell 1053, elapsed: 0.0007581710815429688
ell 1052, elapsed: 0.0007429122924804688
ell 1051, elapsed: 0.0007560253143310547
ell 1050, elapsed: 0.0007398128509521484
ell 1049, elapsed: 0.0007529258728027344
ell 1048, elapsed: 0.0010890960693359375
ell 1047, elapsed: 0.0008769035339355469
ell 1046, elapsed: 0.0008831024169921875
ell 1045, elapsed: 0.00090789794921875
ell 1044, elapsed: 0.0008959770202636719
ell 1043, elapsed: 0.0009059906005859375
ell 1042, elapsed: 0.0008919239044189453
ell 1041, elapsed: 0.0009031295776367188
ell 1040, elapsed: 0.000888824462890625
ell 1039, elapsed: 0.0008740425109863281
ell 1038, elapsed: 0.0009119510650634766
ell 1037, elapsed: 0.0009059906005859375
ell 1036, elapsed: 0.0008599758148193359
ell 1035, elapsed: 0.0005249977111816406
ell 1034, elapsed: 0.0005049705505371094
ell 1033, elapsed: 0.000553131103515625
ell 1032, elapsed: 0.0005099773406982422
ell 1031, elapsed: 0.0005509853363037109
ell 1030, elapsed: 0.0005159378051757812
ell 1029, elapsed: 0.0004940032958984375
ell 1028, elapsed: 0.0004858970642089844
ell 1027, elapsed: 0.00048804283142089844
ell 1026, elapsed: 0.0004889965057373047
ell 1025, elapsed: 0.0004858970642089844
ell 1024, elapsed: 0.0006349086761474609
ell 1023, elapsed: 0.000598907470703125
ell 1022, elapsed: 0.0005850791931152344
ell 1021, elapsed: 0.0005848407745361328
ell 1020, elapsed: 0.00047087669372558594
ell 1019, elapsed: 0.0006160736083984375
ell 1018, elapsed: 0.0004868507385253906
ell 1017, elapsed: 0.0004849433898925781
ell 1016, elapsed: 0.0004899501800537109
ell 1015, elapsed: 0.0004839897155761719
ell 1014, elapsed: 0.0005190372467041016
ell 1013, elapsed: 0.00061798095703125
ell 1012, elapsed: 0.0005841255187988281
ell 1011, elapsed: 0.0005838871002197266
ell 1010, elapsed: 0.0005300045013427734
ell 1009, elapsed: 0.0004870891571044922
ell 1008, elapsed: 0.0006380081176757812
ell 1007, elapsed: 0.0005340576171875
ell 1006, elapsed: 0.0004940032958984375
ell 1005, elapsed: 0.0004851818084716797
ell 1004, elapsed: 0.000492095947265625
ell 1003, elapsed: 0.0005199909210205078
ell 1002, elapsed: 0.0006070137023925781
ell 1001, elapsed: 0.0005869865417480469
ell 1000, elapsed: 0.0005807876586914062
ell 999, elapsed: 0.0004870891571044922
ell 998, elapsed: 0.00049591064453125
ell 997, elapsed: 0.0006170272827148438
ell 996, elapsed: 0.0008230209350585938
ell 995, elapsed: 0.0008990764617919922
ell 994, elapsed: 0.0009429454803466797
ell 993, elapsed: 0.0009100437164306641
ell 992, elapsed: 0.0008718967437744141
ell 991, elapsed: 0.0009121894836425781
ell 990, elapsed: 0.000881195068359375
ell 989, elapsed: 0.0008890628814697266
ell 988, elapsed: 0.0009000301361083984
ell 987, elapsed: 0.0008609294891357422
ell 986, elapsed: 0.0006260871887207031
ell 985, elapsed: 0.0004899501800537109
ell 984, elapsed: 0.0004899501800537109
ell 983, elapsed: 0.000637054443359375
ell 982, elapsed: 0.0005002021789550781
ell 981, elapsed: 0.0004849433898925781
ell 980, elapsed: 0.0004868507385253906
ell 979, elapsed: 0.0004918575286865234
ell 978, elapsed: 0.0005199909210205078
ell 977, elapsed: 0.0006291866302490234
ell 976, elapsed: 0.0005950927734375
ell 975, elapsed: 0.0005810260772705078
ell 974, elapsed: 0.00047397613525390625
ell 973, elapsed: 0.00051116943359375
ell 972, elapsed: 0.0006229877471923828
ell 971, elapsed: 0.0005328655242919922
ell 970, elapsed: 0.0004839897155761719
ell 969, elapsed: 0.0004909038543701172
ell 968, elapsed: 0.0004811286926269531
ell 967, elapsed: 0.0005719661712646484
ell 966, elapsed: 0.0005030632019042969
ell 965, elapsed: 0.0004849433898925781
ell 964, elapsed: 0.0004918575286865234
ell 963, elapsed: 0.0004839897155761719
ell 962, elapsed: 0.000492095947265625
ell 961, elapsed: 0.000553131103515625
ell 960, elapsed: 0.0005068778991699219
ell 959, elapsed: 0.0004899501800537109
ell 958, elapsed: 0.0004858970642089844
ell 957, elapsed: 0.00048804283142089844
ell 956, elapsed: 0.0004870891571044922
ell 955, elapsed: 0.0005309581756591797
ell 954, elapsed: 0.0004780292510986328
ell 953, elapsed: 0.0004930496215820312
ell 952, elapsed: 0.0005109310150146484
ell 951, elapsed: 0.0004899501800537109
ell 950, elapsed: 0.0004868507385253906
ell 949, elapsed: 0.0005171298980712891
ell 948, elapsed: 0.0004868507385253906
ell 947, elapsed: 0.0004930496215820312
ell 946, elapsed: 0.00048804283142089844
ell 945, elapsed: 0.0004930496215820312
ell 944, elapsed: 0.0005180835723876953
ell 943, elapsed: 0.0005099773406982422
ell 942, elapsed: 0.0005011558532714844
ell 941, elapsed: 0.0005040168762207031
ell 940, elapsed: 0.0005040168762207031
ell 939, elapsed: 0.0005030632019042969
ell 938, elapsed: 0.0005171298980712891
ell 937, elapsed: 0.0005121231079101562
ell 936, elapsed: 0.0005030632019042969
ell 935, elapsed: 0.0004839897155761719
ell 934, elapsed: 0.0005080699920654297
ell 933, elapsed: 0.0005240440368652344
ell 932, elapsed: 0.0005590915679931641
ell 931, elapsed: 0.0005788803100585938
ell 930, elapsed: 0.0005419254302978516
ell 929, elapsed: 0.000576019287109375
ell 928, elapsed: 0.0005228519439697266
ell 927, elapsed: 0.0005788803100585938
ell 926, elapsed: 0.0005450248718261719
ell 925, elapsed: 0.0005819797515869141
ell 924, elapsed: 0.0005481243133544922
ell 923, elapsed: 0.0008008480072021484
ell 922, elapsed: 0.0008709430694580078
ell 921, elapsed: 0.0008759498596191406
ell 920, elapsed: 0.000904083251953125
ell 919, elapsed: 0.0008749961853027344
ell 918, elapsed: 0.0008912086486816406
ell 917, elapsed: 0.0008840560913085938
ell 916, elapsed: 0.0008759498596191406
ell 915, elapsed: 0.0008890628814697266
ell 914, elapsed: 0.0008819103240966797
ell 913, elapsed: 0.0008790493011474609
ell 912, elapsed: 0.0008800029754638672
ell 911, elapsed: 0.0008859634399414062
ell 910, elapsed: 0.0008559226989746094
ell 909, elapsed: 0.0008680820465087891
ell 908, elapsed: 0.0008728504180908203
ell 907, elapsed: 0.0008821487426757812
ell 906, elapsed: 0.0008790493011474609
ell 905, elapsed: 0.0008809566497802734
ell 904, elapsed: 0.000843048095703125
ell 903, elapsed: 0.0008680820465087891
ell 902, elapsed: 0.000885009765625
ell 901, elapsed: 0.0008370876312255859
ell 900, elapsed: 0.0008559226989746094
ell 899, elapsed: 0.0008749961853027344
ell 898, elapsed: 0.0008769035339355469
ell 897, elapsed: 0.0008780956268310547
ell 896, elapsed: 0.0008471012115478516
ell 895, elapsed: 0.0008947849273681641
ell 894, elapsed: 0.0008709430694580078
ell 893, elapsed: 0.0008780956268310547
ell 892, elapsed: 0.0009050369262695312
ell 891, elapsed: 0.0008759498596191406
ell 890, elapsed: 0.0008950233459472656
ell 889, elapsed: 0.0008728504180908203
ell 888, elapsed: 0.0006668567657470703
ell 887, elapsed: 0.0005619525909423828
ell 886, elapsed: 0.0005700588226318359
ell 885, elapsed: 0.0005660057067871094
ell 884, elapsed: 0.0005440711975097656
ell 883, elapsed: 0.0005772113800048828
ell 882, elapsed: 0.0005481243133544922
ell 881, elapsed: 0.0005819797515869141
ell 880, elapsed: 0.0005409717559814453
ell 879, elapsed: 0.0005369186401367188
ell 878, elapsed: 0.0005609989166259766
ell 877, elapsed: 0.0005550384521484375
ell 876, elapsed: 0.0005588531494140625
ell 875, elapsed: 0.0005559921264648438
ell 874, elapsed: 0.0006451606750488281
ell 873, elapsed: 0.0005481243133544922
ell 872, elapsed: 0.0005729198455810547
ell 871, elapsed: 0.0005469322204589844
ell 870, elapsed: 0.0005738735198974609
ell 869, elapsed: 0.0007281303405761719
ell 868, elapsed: 0.0005860328674316406
ell 867, elapsed: 0.0005280971527099609
ell 866, elapsed: 0.0005230903625488281
ell 865, elapsed: 0.0005190372467041016
ell 864, elapsed: 0.0005311965942382812
ell 863, elapsed: 0.0005140304565429688
ell 862, elapsed: 0.0005390644073486328
ell 861, elapsed: 0.0005118846893310547
ell 860, elapsed: 0.0005359649658203125
ell 859, elapsed: 0.0005309581756591797
ell 858, elapsed: 0.0005249977111816406
ell 857, elapsed: 0.0005218982696533203
ell 856, elapsed: 0.000518798828125
ell 855, elapsed: 0.0005238056182861328
ell 854, elapsed: 0.0005218982696533203
ell 853, elapsed: 0.0005240440368652344
ell 852, elapsed: 0.0005209445953369141
ell 851, elapsed: 0.0005178451538085938
ell 850, elapsed: 0.0005240440368652344
ell 849, elapsed: 0.0005340576171875
ell 848, elapsed: 0.0005259513854980469
ell 847, elapsed: 0.0005140304565429688
ell 846, elapsed: 0.0005168914794921875
ell 845, elapsed: 0.0005240440368652344
ell 844, elapsed: 0.0005168914794921875
ell 843, elapsed: 0.0005350112915039062
ell 842, elapsed: 0.0005431175231933594
ell 841, elapsed: 0.0004849433898925781
ell 840, elapsed: 0.0005459785461425781
ell 839, elapsed: 0.0004990100860595703
ell 838, elapsed: 0.0005559921264648438
ell 837, elapsed: 0.0007960796356201172
ell 836, elapsed: 0.0008280277252197266
ell 835, elapsed: 0.0008189678192138672
ell 834, elapsed: 0.0008521080017089844
ell 833, elapsed: 0.0006759166717529297
ell 832, elapsed: 0.0005810260772705078
ell 831, elapsed: 0.0005991458892822266
ell 830, elapsed: 0.0005919933319091797
ell 829, elapsed: 0.0006070137023925781
ell 828, elapsed: 0.0006000995635986328
ell 827, elapsed: 0.0005769729614257812
ell 826, elapsed: 0.0005791187286376953
ell 825, elapsed: 0.0005879402160644531
ell 824, elapsed: 0.0008120536804199219
ell 823, elapsed: 0.0008258819580078125
ell 822, elapsed: 0.000823974609375
ell 821, elapsed: 0.0008299350738525391
ell 820, elapsed: 0.0008158683776855469
ell 819, elapsed: 0.0008099079132080078
ell 818, elapsed: 0.0008420944213867188
ell 817, elapsed: 0.0008361339569091797
ell 816, elapsed: 0.0008380413055419922
ell 815, elapsed: 0.0008339881896972656
ell 814, elapsed: 0.0008370876312255859
ell 813, elapsed: 0.0008530616760253906
ell 812, elapsed: 0.0008308887481689453
ell 811, elapsed: 0.0008308887481689453
ell 810, elapsed: 0.0008242130279541016
ell 809, elapsed: 0.0008330345153808594
ell 808, elapsed: 0.0008418560028076172
ell 807, elapsed: 0.0008199214935302734
ell 806, elapsed: 0.0008258819580078125
ell 805, elapsed: 0.0008180141448974609
ell 804, elapsed: 0.0005960464477539062
ell 803, elapsed: 0.0004711151123046875
ell 802, elapsed: 0.0004680156707763672
ell 801, elapsed: 0.00047016143798828125
ell 800, elapsed: 0.00047087669372558594
ell 799, elapsed: 0.00047087669372558594
ell 798, elapsed: 0.00046896934509277344
ell 797, elapsed: 0.0004611015319824219
ell 796, elapsed: 0.00046706199645996094
ell 795, elapsed: 0.0004780292510986328
ell 794, elapsed: 0.0004711151123046875
ell 793, elapsed: 0.0004711151123046875
ell 792, elapsed: 0.00045990943908691406
ell 791, elapsed: 0.0005819797515869141
ell 790, elapsed: 0.0005829334259033203
ell 789, elapsed: 0.0005919933319091797
ell 788, elapsed: 0.000576019287109375
ell 787, elapsed: 0.0005769729614257812
ell 786, elapsed: 0.0005788803100585938
ell 785, elapsed: 0.0005779266357421875
ell 784, elapsed: 0.0005800724029541016
ell 783, elapsed: 0.0005738735198974609
ell 782, elapsed: 0.0005688667297363281
ell 781, elapsed: 0.0005800724029541016
ell 780, elapsed: 0.0005750656127929688
ell 779, elapsed: 0.0005772113800048828
ell 778, elapsed: 0.0005729198455810547
ell 777, elapsed: 0.0005910396575927734
ell 776, elapsed: 0.0006489753723144531
ell 775, elapsed: 0.0006740093231201172
ell 774, elapsed: 0.0006649494171142578
ell 773, elapsed: 0.0006699562072753906
ell 772, elapsed: 0.0006670951843261719
ell 771, elapsed: 0.0006711483001708984
ell 770, elapsed: 0.0006811618804931641
ell 769, elapsed: 0.0006580352783203125
ell 768, elapsed: 0.0006709098815917969
ell 767, elapsed: 0.0006649494171142578
ell 766, elapsed: 0.0006859302520751953
ell 765, elapsed: 0.0006608963012695312
ell 764, elapsed: 0.0006701946258544922
ell 763, elapsed: 0.0006580352783203125
ell 762, elapsed: 0.0006799697875976562
ell 761, elapsed: 0.0006690025329589844
ell 760, elapsed: 0.0006639957427978516
ell 759, elapsed: 0.0006749629974365234
ell 758, elapsed: 0.0006651878356933594
ell 757, elapsed: 0.0006659030914306641
ell 756, elapsed: 0.0006749629974365234
ell 755, elapsed: 0.0006630420684814453
ell 754, elapsed: 0.0006759166717529297
ell 753, elapsed: 0.0006730556488037109
ell 752, elapsed: 0.0006670951843261719
ell 751, elapsed: 0.0006699562072753906
ell 750, elapsed: 0.0006661415100097656
ell 749, elapsed: 0.004494905471801758
ell 748, elapsed: 0.0005030632019042969
ell 747, elapsed: 0.0004680156707763672
ell 746, elapsed: 0.0004811286926269531
ell 745, elapsed: 0.0004811286926269531
ell 744, elapsed: 0.00046896934509277344
ell 743, elapsed: 0.0004799365997314453
ell 742, elapsed: 0.0004870891571044922
ell 741, elapsed: 0.0004718303680419922
ell 740, elapsed: 0.0004849433898925781
ell 739, elapsed: 0.0004868507385253906
ell 738, elapsed: 0.00047779083251953125
ell 737, elapsed: 0.0005080699920654297
ell 736, elapsed: 0.00047206878662109375
ell 735, elapsed: 0.00046896934509277344
ell 734, elapsed: 0.0005819797515869141
ell 733, elapsed: 0.0005800724029541016
ell 732, elapsed: 0.0005860328674316406
ell 731, elapsed: 0.0005769729614257812
ell 730, elapsed: 0.0005731582641601562
ell 729, elapsed: 0.0005979537963867188
ell 728, elapsed: 0.000576019287109375
ell 727, elapsed: 0.0006029605865478516
ell 726, elapsed: 0.0005950927734375
ell 725, elapsed: 0.0005950927734375
ell 724, elapsed: 0.0005979537963867188
ell 723, elapsed: 0.0005950927734375
ell 722, elapsed: 0.000614166259765625
ell 721, elapsed: 0.0006120204925537109
ell 720, elapsed: 0.0005939006805419922
ell 719, elapsed: 0.0006060600280761719
ell 718, elapsed: 0.0005970001220703125
ell 717, elapsed: 0.0006189346313476562
ell 716, elapsed: 0.0005960464477539062
ell 715, elapsed: 0.000598907470703125
ell 714, elapsed: 0.0006000995635986328
ell 713, elapsed: 0.0005970001220703125
ell 712, elapsed: 0.0006170272827148438
ell 711, elapsed: 0.0006000995635986328
ell 710, elapsed: 0.0005970001220703125
ell 709, elapsed: 0.0006070137023925781
ell 708, elapsed: 0.0006029605865478516
ell 707, elapsed: 0.0006039142608642578
ell 706, elapsed: 0.0005939006805419922
ell 705, elapsed: 0.0006148815155029297
ell 704, elapsed: 0.0006101131439208984
ell 703, elapsed: 0.0005741119384765625
ell 702, elapsed: 0.0005879402160644531
ell 701, elapsed: 0.0005710124969482422
ell 700, elapsed: 0.000576019287109375
ell 699, elapsed: 0.0005960464477539062
ell 698, elapsed: 0.0005948543548583984
ell 697, elapsed: 0.0005970001220703125
ell 696, elapsed: 0.0005950927734375
ell 695, elapsed: 0.0005908012390136719
ell 694, elapsed: 0.0005979537963867188
ell 693, elapsed: 0.0005939006805419922
ell 692, elapsed: 0.0005998611450195312
ell 691, elapsed: 0.0006082057952880859
ell 690, elapsed: 0.0005950927734375
ell 689, elapsed: 0.0005991458892822266
ell 688, elapsed: 0.0005948543548583984
ell 687, elapsed: 0.0006039142608642578
ell 686, elapsed: 0.0006291866302490234
ell 685, elapsed: 0.0005950927734375
ell 684, elapsed: 0.0005970001220703125
ell 683, elapsed: 0.0005891323089599609
ell 682, elapsed: 0.0006031990051269531
ell 681, elapsed: 0.0006089210510253906
ell 680, elapsed: 0.0005960464477539062
ell 679, elapsed: 0.0005710124969482422
ell 678, elapsed: 0.0005910396575927734
ell 677, elapsed: 0.00512385368347168
ell 676, elapsed: 0.0004951953887939453
ell 675, elapsed: 0.0004889965057373047
ell 674, elapsed: 0.0004818439483642578
ell 673, elapsed: 0.0004668235778808594
ell 672, elapsed: 0.0004661083221435547
ell 671, elapsed: 0.00047898292541503906
ell 670, elapsed: 0.00046896934509277344
ell 669, elapsed: 0.0004658699035644531
ell 668, elapsed: 0.0004630088806152344
ell 667, elapsed: 0.0004680156707763672
ell 666, elapsed: 0.0004661083221435547
ell 665, elapsed: 0.00047707557678222656
ell 664, elapsed: 0.0004630088806152344
ell 663, elapsed: 0.0004639625549316406
ell 662, elapsed: 0.0004870891571044922
ell 661, elapsed: 0.0004830360412597656
ell 660, elapsed: 0.00048089027404785156
ell 659, elapsed: 0.00049591064453125
ell 658, elapsed: 0.0004658699035644531
ell 657, elapsed: 0.0005478858947753906
ell 656, elapsed: 0.0004858970642089844
ell 655, elapsed: 0.0004909038543701172
ell 654, elapsed: 0.00047898292541503906
ell 653, elapsed: 0.0004971027374267578
ell 652, elapsed: 0.0004780292510986328
ell 651, elapsed: 0.0004799365997314453
ell 650, elapsed: 0.0004851818084716797
ell 649, elapsed: 0.00048089027404785156
ell 648, elapsed: 0.0004949569702148438
ell 647, elapsed: 0.0004658699035644531
ell 646, elapsed: 0.0004620552062988281
ell 645, elapsed: 0.00047206878662109375
ell 644, elapsed: 0.00046706199645996094
ell 643, elapsed: 0.00046515464782714844
ell 642, elapsed: 0.0004620552062988281
ell 641, elapsed: 0.0004749298095703125
ell 640, elapsed: 0.0004699230194091797
ell 639, elapsed: 0.0004649162292480469
ell 638, elapsed: 0.0004699230194091797
ell 637, elapsed: 0.0004649162292480469
ell 636, elapsed: 0.0004680156707763672
ell 635, elapsed: 0.0004849433898925781
ell 634, elapsed: 0.0004699230194091797
ell 633, elapsed: 0.0004677772521972656
ell 632, elapsed: 0.0004649162292480469
ell 631, elapsed: 0.0004642009735107422
ell 630, elapsed: 0.00047206878662109375
ell 629, elapsed: 0.00047898292541503906
ell 628, elapsed: 0.00047397613525390625
ell 627, elapsed: 0.0004620552062988281
ell 626, elapsed: 0.0004661083221435547
ell 625, elapsed: 0.000469207763671875
ell 624, elapsed: 0.00046706199645996094
ell 623, elapsed: 0.00047087669372558594
ell 622, elapsed: 0.0004780292510986328
ell 621, elapsed: 0.00047087669372558594
ell 620, elapsed: 0.00046706199645996094
ell 619, elapsed: 0.00046515464782714844
ell 618, elapsed: 0.0004711151123046875
ell 617, elapsed: 0.00046896934509277344
ell 616, elapsed: 0.0005388259887695312
ell 615, elapsed: 0.0005669593811035156
ell 614, elapsed: 0.0005710124969482422
ell 613, elapsed: 0.0006139278411865234
ell 612, elapsed: 0.0005998611450195312
ell 611, elapsed: 0.0005919933319091797
ell 610, elapsed: 0.000576019287109375
ell 609, elapsed: 0.0005700588226318359
ell 608, elapsed: 0.0005779266357421875
ell 607, elapsed: 0.0005688667297363281
ell 606, elapsed: 0.0005700588226318359
ell 605, elapsed: 0.0005741119384765625
ell 604, elapsed: 0.0005640983581542969
ell 603, elapsed: 0.0005710124969482422
ell 602, elapsed: 0.0005910396575927734
ell 601, elapsed: 0.0006220340728759766
ell 600, elapsed: 0.0005030632019042969
ell 599, elapsed: 0.00048613548278808594
ell 598, elapsed: 0.0004851818084716797
ell 597, elapsed: 0.0004820823669433594
ell 596, elapsed: 0.0004858970642089844
ell 595, elapsed: 0.0004930496215820312
ell 594, elapsed: 0.0004918575286865234
ell 593, elapsed: 0.00048804283142089844
ell 592, elapsed: 0.0004811286926269531
ell 591, elapsed: 0.0004889965057373047
ell 590, elapsed: 0.0004680156707763672
ell 589, elapsed: 0.0005421638488769531
ell 588, elapsed: 0.0004658699035644531
ell 587, elapsed: 0.00046896934509277344
ell 586, elapsed: 0.0004680156707763672
ell 585, elapsed: 0.00046706199645996094
ell 584, elapsed: 0.0004711151123046875
ell 583, elapsed: 0.0004799365997314453
ell 582, elapsed: 0.0005240440368652344
ell 581, elapsed: 0.0005099773406982422
ell 580, elapsed: 0.0005412101745605469
ell 579, elapsed: 0.0005071163177490234
ell 578, elapsed: 0.0005249977111816406
ell 577, elapsed: 0.0005109310150146484
ell 576, elapsed: 0.0005519390106201172
ell 575, elapsed: 0.0004990100860595703
ell 574, elapsed: 0.0005228519439697266
ell 573, elapsed: 0.0005071163177490234
ell 572, elapsed: 0.000514984130859375
ell 571, elapsed: 0.0005829334259033203
ell 570, elapsed: 0.0007319450378417969
ell 569, elapsed: 0.0008199214935302734
ell 568, elapsed: 0.000804901123046875
ell 567, elapsed: 0.0008170604705810547
ell 566, elapsed: 0.0008089542388916016
ell 565, elapsed: 0.0007860660552978516
ell 564, elapsed: 0.00080108642578125
ell 563, elapsed: 0.0007910728454589844
ell 562, elapsed: 0.000823974609375
ell 561, elapsed: 0.0007960796356201172
ell 560, elapsed: 0.0007929801940917969
ell 559, elapsed: 0.0008008480072021484
ell 558, elapsed: 0.0007839202880859375
ell 557, elapsed: 0.0008540153503417969
ell 556, elapsed: 0.0009829998016357422
ell 555, elapsed: 0.0008809566497802734
ell 554, elapsed: 0.0009298324584960938
ell 553, elapsed: 0.0009109973907470703
ell 552, elapsed: 0.0008869171142578125
ell 551, elapsed: 0.0008800029754638672
ell 550, elapsed: 0.0008828639984130859
ell 549, elapsed: 0.0007891654968261719
ell 548, elapsed: 0.0007660388946533203
ell 547, elapsed: 0.0007851123809814453
ell 546, elapsed: 0.0007681846618652344
ell 545, elapsed: 0.0008118152618408203
ell 544, elapsed: 0.0009181499481201172
ell 543, elapsed: 0.0009129047393798828
ell 542, elapsed: 0.0008919239044189453
ell 541, elapsed: 0.000823974609375
ell 540, elapsed: 0.0008330345153808594
ell 539, elapsed: 0.0008540153503417969
ell 538, elapsed: 0.0008120536804199219
ell 537, elapsed: 0.0008389949798583984
ell 536, elapsed: 0.0008089542388916016
ell 535, elapsed: 0.0008039474487304688
ell 534, elapsed: 0.0008029937744140625
ell 533, elapsed: 0.0008149147033691406
ell 532, elapsed: 0.0008599758148193359
ell 531, elapsed: 0.0008401870727539062
ell 530, elapsed: 0.0008208751678466797
ell 529, elapsed: 0.0008509159088134766
ell 528, elapsed: 0.00045299530029296875
ell 527, elapsed: 0.0004551410675048828
ell 526, elapsed: 0.0004489421844482422
ell 525, elapsed: 0.00045418739318847656
ell 524, elapsed: 0.00044918060302734375
ell 523, elapsed: 0.0004630088806152344
ell 522, elapsed: 0.0005660057067871094
ell 521, elapsed: 0.0005631446838378906
ell 520, elapsed: 0.0005650520324707031
ell 519, elapsed: 0.00047898292541503906
ell 518, elapsed: 0.00044918060302734375
ell 517, elapsed: 0.00046515464782714844
ell 516, elapsed: 0.0004520416259765625
ell 515, elapsed: 0.00045108795166015625
ell 514, elapsed: 0.00044798851013183594
ell 513, elapsed: 0.00045108795166015625
ell 512, elapsed: 0.0004589557647705078
ell 511, elapsed: 0.00044798851013183594
ell 510, elapsed: 0.0005769729614257812
ell 509, elapsed: 0.0005609989166259766
ell 508, elapsed: 0.0005600452423095703
ell 507, elapsed: 0.0005669593811035156
ell 506, elapsed: 0.0005590915679931641
ell 505, elapsed: 0.0005738735198974609
ell 504, elapsed: 0.0005588531494140625
ell 503, elapsed: 0.0004949569702148438
ell 502, elapsed: 0.0004730224609375
ell 501, elapsed: 0.0004470348358154297
ell 500, elapsed: 0.00046896934509277344
ell 499, elapsed: 0.0004489421844482422
ell 498, elapsed: 0.00047206878662109375
ell 497, elapsed: 0.0004630088806152344
ell 496, elapsed: 0.0004649162292480469
ell 495, elapsed: 0.00046896934509277344
ell 494, elapsed: 0.00046706199645996094
ell 493, elapsed: 0.0005819797515869141
ell 492, elapsed: 0.0005810260772705078
ell 491, elapsed: 0.0005538463592529297
ell 490, elapsed: 0.0005629062652587891
ell 489, elapsed: 0.00055694580078125
ell 488, elapsed: 0.0005900859832763672
ell 487, elapsed: 0.0004489421844482422
ell 486, elapsed: 0.00045299530029296875
ell 485, elapsed: 0.0004520416259765625
ell 484, elapsed: 0.00044989585876464844
ell 483, elapsed: 0.0004551410675048828
ell 482, elapsed: 0.00045490264892578125
ell 481, elapsed: 0.0005290508270263672
ell 480, elapsed: 0.00045299530029296875
ell 479, elapsed: 0.0004489421844482422
ell 478, elapsed: 0.0004489421844482422
ell 477, elapsed: 0.0004489421844482422
ell 476, elapsed: 0.00044918060302734375
ell 475, elapsed: 0.00046896934509277344
ell 474, elapsed: 0.00046515464782714844
ell 473, elapsed: 0.00045180320739746094
ell 472, elapsed: 0.0004458427429199219
ell 471, elapsed: 0.000453948974609375
ell 470, elapsed: 0.00044798851013183594
ell 469, elapsed: 0.00045299530029296875
ell 468, elapsed: 0.0004551410675048828
ell 467, elapsed: 0.0004520416259765625
ell 466, elapsed: 0.00045299530029296875
ell 465, elapsed: 0.00045013427734375
ell 464, elapsed: 0.00044798851013183594
ell 463, elapsed: 0.000453948974609375
ell 462, elapsed: 0.0004680156707763672
ell 461, elapsed: 0.00045490264892578125
ell 460, elapsed: 0.00045013427734375
ell 459, elapsed: 0.00047016143798828125
ell 458, elapsed: 0.00045299530029296875
ell 457, elapsed: 0.00045108795166015625
ell 456, elapsed: 0.00048089027404785156
ell 455, elapsed: 0.0005660057067871094
ell 454, elapsed: 0.0006110668182373047
ell 453, elapsed: 0.0004858970642089844
ell 452, elapsed: 0.00044798851013183594
ell 451, elapsed: 0.000453948974609375
ell 450, elapsed: 0.0004620552062988281
ell 449, elapsed: 0.0004470348358154297
ell 448, elapsed: 0.00047397613525390625
ell 447, elapsed: 0.0004639625549316406
ell 446, elapsed: 0.00045609474182128906
ell 445, elapsed: 0.0004470348358154297
ell 444, elapsed: 0.0004889965057373047
ell 443, elapsed: 0.0005588531494140625
ell 442, elapsed: 0.0005600452423095703
ell 441, elapsed: 0.0005750656127929688
ell 440, elapsed: 0.00061798095703125
ell 439, elapsed: 0.0005850791931152344
ell 438, elapsed: 0.0005660057067871094
ell 437, elapsed: 0.0005519390106201172
ell 436, elapsed: 0.0005640983581542969
ell 435, elapsed: 0.0004467964172363281
ell 434, elapsed: 0.00045299530029296875
ell 433, elapsed: 0.0004570484161376953
ell 432, elapsed: 0.00044798851013183594
ell 431, elapsed: 0.00044798851013183594
ell 430, elapsed: 0.0004661083221435547
ell 429, elapsed: 0.0004489421844482422
ell 428, elapsed: 0.00044989585876464844
ell 427, elapsed: 0.00044798851013183594
ell 426, elapsed: 0.0004899501800537109
ell 425, elapsed: 0.0004680156707763672
ell 424, elapsed: 0.0004551410675048828
ell 423, elapsed: 0.0004489421844482422
ell 422, elapsed: 0.00044989585876464844
ell 421, elapsed: 0.000453948974609375
ell 420, elapsed: 0.0004639625549316406
ell 419, elapsed: 0.00045299530029296875
ell 418, elapsed: 0.00044608116149902344
ell 417, elapsed: 0.00044989585876464844
ell 416, elapsed: 0.000453948974609375
ell 415, elapsed: 0.00047016143798828125
ell 414, elapsed: 0.0004680156707763672
ell 413, elapsed: 0.000469207763671875
ell 412, elapsed: 0.00045299530029296875
ell 411, elapsed: 0.00044989585876464844
ell 410, elapsed: 0.0004482269287109375
ell 409, elapsed: 0.0004558563232421875
ell 408, elapsed: 0.00044798851013183594
ell 407, elapsed: 0.00047397613525390625
ell 406, elapsed: 0.00044798851013183594
ell 405, elapsed: 0.00044989585876464844
ell 404, elapsed: 0.00045299530029296875
ell 403, elapsed: 0.0004470348358154297
ell 402, elapsed: 0.0004520416259765625
ell 401, elapsed: 0.0004489421844482422
ell 400, elapsed: 0.0005729198455810547
ell 399, elapsed: 0.0005648136138916016
ell 398, elapsed: 0.0005919933319091797
ell 397, elapsed: 0.0004820823669433594
ell 396, elapsed: 0.0004470348358154297
ell 395, elapsed: 0.0004630088806152344
ell 394, elapsed: 0.00045180320739746094
ell 393, elapsed: 0.0004489421844482422
ell 392, elapsed: 0.00045108795166015625
ell 391, elapsed: 0.00044798851013183594
ell 390, elapsed: 0.00045108795166015625
ell 389, elapsed: 0.0004558563232421875
ell 388, elapsed: 0.0004677772521972656
ell 387, elapsed: 0.00045108795166015625
ell 386, elapsed: 0.00045299530029296875
ell 385, elapsed: 0.00045108795166015625
ell 384, elapsed: 0.00045800209045410156
ell 383, elapsed: 0.0004489421844482422
ell 382, elapsed: 0.0004830360412597656
ell 381, elapsed: 0.00042700767517089844
ell 380, elapsed: 0.0004379749298095703
ell 379, elapsed: 0.00043010711669921875
ell 378, elapsed: 0.000431060791015625
ell 377, elapsed: 0.000431060791015625
ell 376, elapsed: 0.00043201446533203125
ell 375, elapsed: 0.0004379749298095703
ell 374, elapsed: 0.00043892860412597656
ell 373, elapsed: 0.0004258155822753906
ell 372, elapsed: 0.0004379749298095703
ell 371, elapsed: 0.0004279613494873047
ell 370, elapsed: 0.00043320655822753906
ell 369, elapsed: 0.0004241466522216797
ell 368, elapsed: 0.0004398822784423828
ell 367, elapsed: 0.00043010711669921875
ell 366, elapsed: 0.0004439353942871094
ell 365, elapsed: 0.0004267692565917969
ell 364, elapsed: 0.00043201446533203125
ell 363, elapsed: 0.00043082237243652344
ell 362, elapsed: 0.00043082237243652344
ell 361, elapsed: 0.0004220008850097656
ell 360, elapsed: 0.00043201446533203125
ell 359, elapsed: 0.0004220008850097656
ell 358, elapsed: 0.00047087669372558594
ell 357, elapsed: 0.0005261898040771484
ell 356, elapsed: 0.0005328655242919922
ell 355, elapsed: 0.0005369186401367188
ell 354, elapsed: 0.0005249977111816406
ell 353, elapsed: 0.0005359649658203125
ell 352, elapsed: 0.0005300045013427734
ell 351, elapsed: 0.0005469322204589844
ell 350, elapsed: 0.0005340576171875
ell 349, elapsed: 0.0005328655242919922
ell 348, elapsed: 0.0005340576171875
ell 347, elapsed: 0.0005328655242919922
ell 346, elapsed: 0.0005309581756591797
ell 345, elapsed: 0.0005559921264648438
ell 344, elapsed: 0.0005340576171875
ell 343, elapsed: 0.0005450248718261719
ell 342, elapsed: 0.0005409717559814453
ell 341, elapsed: 0.0005550384521484375
ell 340, elapsed: 0.0005300045013427734
ell 339, elapsed: 0.0005390644073486328
ell 338, elapsed: 0.004606008529663086
ell 337, elapsed: 0.0005419254302978516
ell 336, elapsed: 0.0005390644073486328
ell 335, elapsed: 0.0005350112915039062
ell 334, elapsed: 0.0005350112915039062
ell 333, elapsed: 0.0005421638488769531
ell 332, elapsed: 0.0005328655242919922
ell 331, elapsed: 0.0005419254302978516
ell 330, elapsed: 0.0005259513854980469
ell 329, elapsed: 0.0005311965942382812
ell 328, elapsed: 0.0005400180816650391
ell 327, elapsed: 0.0005331039428710938
ell 326, elapsed: 0.0005328655242919922
ell 325, elapsed: 0.0005419254302978516
ell 324, elapsed: 0.0005328655242919922
ell 323, elapsed: 0.000537872314453125
ell 322, elapsed: 0.0005331039428710938
ell 321, elapsed: 0.0005350112915039062
ell 320, elapsed: 0.0005321502685546875
ell 319, elapsed: 0.0005271434783935547
ell 318, elapsed: 0.0005490779876708984
ell 317, elapsed: 0.0005280971527099609
ell 316, elapsed: 0.0005419254302978516
ell 315, elapsed: 0.0005319118499755859
ell 314, elapsed: 0.0005371570587158203
ell 313, elapsed: 0.0005309581756591797
ell 312, elapsed: 0.0005319118499755859
ell 311, elapsed: 0.0004379749298095703
ell 310, elapsed: 0.00042891502380371094
ell 309, elapsed: 0.0004298686981201172
ell 308, elapsed: 0.000431060791015625
ell 307, elapsed: 0.0004291534423828125
ell 306, elapsed: 0.00043392181396484375
ell 305, elapsed: 0.0004279613494873047
ell 304, elapsed: 0.0004329681396484375
ell 303, elapsed: 0.0004360675811767578
ell 302, elapsed: 0.00043320655822753906
ell 301, elapsed: 0.0004291534423828125
ell 300, elapsed: 0.00042891502380371094
ell 299, elapsed: 0.00042891502380371094
ell 298, elapsed: 0.0004699230194091797
ell 297, elapsed: 0.00047898292541503906
ell 296, elapsed: 0.0004930496215820312
ell 295, elapsed: 0.00048613548278808594
ell 294, elapsed: 0.00047397613525390625
ell 293, elapsed: 0.0004799365997314453
ell 292, elapsed: 0.0004680156707763672
ell 291, elapsed: 0.0004849433898925781
ell 290, elapsed: 0.00046706199645996094
ell 289, elapsed: 0.00047707557678222656
ell 288, elapsed: 0.0005359649658203125
ell 287, elapsed: 0.0005240440368652344
ell 286, elapsed: 0.00044083595275878906
ell 285, elapsed: 0.0005178451538085938
ell 284, elapsed: 0.0004417896270751953
ell 283, elapsed: 0.0005168914794921875
ell 282, elapsed: 0.00043582916259765625
ell 281, elapsed: 0.0005338191986083984
ell 280, elapsed: 0.0004470348358154297
ell 279, elapsed: 0.0005209445953369141
ell 278, elapsed: 0.00044417381286621094
ell 277, elapsed: 0.0005140304565429688
ell 276, elapsed: 0.00044798851013183594
ell 275, elapsed: 0.0005090236663818359
ell 274, elapsed: 0.00046515464782714844
ell 273, elapsed: 0.0005130767822265625
ell 272, elapsed: 0.000453948974609375
ell 271, elapsed: 0.0005109310150146484
ell 270, elapsed: 0.00044798851013183594
ell 269, elapsed: 0.000514984130859375
ell 268, elapsed: 0.0004508495330810547
ell 267, elapsed: 0.0005109310150146484
ell 266, elapsed: 0.0004620552062988281
ell 265, elapsed: 0.0005071163177490234
ell 264, elapsed: 0.0004558563232421875
ell 263, elapsed: 0.0005040168762207031
ell 262, elapsed: 0.0004639625549316406
ell 261, elapsed: 0.0005049705505371094
ell 260, elapsed: 0.00045108795166015625
ell 259, elapsed: 0.000514984130859375
ell 258, elapsed: 0.00045990943908691406
ell 257, elapsed: 0.0005059242248535156
ell 256, elapsed: 0.00045800209045410156
ell 255, elapsed: 0.0004930496215820312
ell 254, elapsed: 0.00046706199645996094
ell 253, elapsed: 0.0004968643188476562
ell 252, elapsed: 0.0004780292510986328
ell 251, elapsed: 0.0004999637603759766
ell 250, elapsed: 0.0004551410675048828
ell 249, elapsed: 0.0004980564117431641
ell 248, elapsed: 0.00047898292541503906
ell 247, elapsed: 0.0006849765777587891
ell 246, elapsed: 0.0007340908050537109
ell 245, elapsed: 0.0004999637603759766
ell 244, elapsed: 0.0005040168762207031
ell 243, elapsed: 0.00044798851013183594
ell 242, elapsed: 0.0005109310150146484
ell 241, elapsed: 0.0004520416259765625
ell 240, elapsed: 0.0005109310150146484
ell 239, elapsed: 0.0004611015319824219
ell 238, elapsed: 0.0005080699920654297
ell 237, elapsed: 0.0004589557647705078
ell 236, elapsed: 0.0005040168762207031
ell 235, elapsed: 0.0004639625549316406
ell 234, elapsed: 0.0004999637603759766
ell 233, elapsed: 0.0004589557647705078
ell 232, elapsed: 0.0005061626434326172
ell 231, elapsed: 0.00047397613525390625
ell 230, elapsed: 0.0004999637603759766
ell 229, elapsed: 0.0004589557647705078
ell 228, elapsed: 0.0004899501800537109
ell 227, elapsed: 0.00046706199645996094
ell 226, elapsed: 0.0004930496215820312
ell 225, elapsed: 0.0004711151123046875
ell 224, elapsed: 0.0004930496215820312
ell 223, elapsed: 0.00047588348388671875
ell 222, elapsed: 0.0004940032958984375
ell 221, elapsed: 0.00046706199645996094
ell 220, elapsed: 0.000492095947265625
ell 219, elapsed: 0.0004620552062988281
ell 218, elapsed: 0.0004930496215820312
ell 217, elapsed: 0.00046896934509277344
ell 216, elapsed: 0.0004940032958984375
ell 215, elapsed: 0.00047898292541503906
ell 214, elapsed: 0.0004830360412597656
ell 213, elapsed: 0.00047707557678222656
ell 212, elapsed: 0.0004858970642089844
ell 211, elapsed: 0.0004699230194091797
ell 210, elapsed: 0.00048804283142089844
ell 209, elapsed: 0.0004858970642089844
ell 208, elapsed: 0.0004889965057373047
ell 207, elapsed: 0.00047397613525390625
ell 206, elapsed: 0.0004811286926269531
ell 205, elapsed: 0.0004801750183105469
ell 204, elapsed: 0.0004858970642089844
ell 203, elapsed: 0.0004830360412597656
ell 202, elapsed: 0.0004870891571044922
ell 201, elapsed: 0.0004870891571044922
ell 200, elapsed: 0.000492095947265625
ell 199, elapsed: 0.00047206878662109375
ell 198, elapsed: 0.0004858970642089844
ell 197, elapsed: 0.0004780292510986328
ell 196, elapsed: 0.0004858970642089844
ell 195, elapsed: 0.0004820823669433594
ell 194, elapsed: 0.0004940032958984375
ell 193, elapsed: 0.0004749298095703125
ell 192, elapsed: 0.0004839897155761719
ell 191, elapsed: 0.0004780292510986328
ell 190, elapsed: 0.0004858970642089844
ell 189, elapsed: 0.00047016143798828125
ell 188, elapsed: 0.0004889965057373047
ell 187, elapsed: 0.0004911422729492188
ell 186, elapsed: 0.0004899501800537109
ell 185, elapsed: 0.0004761219024658203
ell 184, elapsed: 0.0004849433898925781
ell 183, elapsed: 0.0004730224609375
ell 182, elapsed: 0.0004889965057373047
ell 181, elapsed: 0.00047898292541503906
ell 180, elapsed: 0.0004868507385253906
ell 179, elapsed: 0.0004978179931640625
ell 178, elapsed: 0.0004799365997314453
ell 177, elapsed: 0.0004899501800537109
ell 176, elapsed: 0.0004780292510986328
ell 175, elapsed: 0.0004980564117431641
ell 174, elapsed: 0.0004749298095703125
ell 173, elapsed: 0.0005030632019042969
ell 172, elapsed: 0.00047516822814941406
ell 171, elapsed: 0.0004899501800537109
ell 170, elapsed: 0.000476837158203125
ell 169, elapsed: 0.00047707557678222656
ell 168, elapsed: 0.0004820823669433594
ell 167, elapsed: 0.0004818439483642578
ell 166, elapsed: 0.0004801750183105469
ell 165, elapsed: 0.0004949569702148438
ell 164, elapsed: 0.00047397613525390625
ell 163, elapsed: 0.00048613548278808594
ell 162, elapsed: 0.00047588348388671875
ell 161, elapsed: 0.0004870891571044922
ell 160, elapsed: 0.00047898292541503906
ell 159, elapsed: 0.0004830360412597656
ell 158, elapsed: 0.0004792213439941406
ell 157, elapsed: 0.0004551410675048828
ell 156, elapsed: 0.0005021095275878906
ell 155, elapsed: 0.0004608631134033203
ell 154, elapsed: 0.0005011558532714844
ell 153, elapsed: 0.0004630088806152344
ell 152, elapsed: 0.0004889965057373047
ell 151, elapsed: 0.0004730224609375
ell 150, elapsed: 0.00047206878662109375
ell 149, elapsed: 0.0004911422729492188
ell 148, elapsed: 0.0004630088806152344
ell 147, elapsed: 0.0004901885986328125
ell 146, elapsed: 0.00047707557678222656
ell 145, elapsed: 0.0004839897155761719
ell 144, elapsed: 0.000476837158203125
ell 143, elapsed: 0.000514984130859375
ell 142, elapsed: 0.0004360675811767578
ell 141, elapsed: 0.0005121231079101562
ell 140, elapsed: 0.0004458427429199219
ell 139, elapsed: 0.0005021095275878906
ell 138, elapsed: 0.000453948974609375
ell 137, elapsed: 0.0004889965057373047
ell 136, elapsed: 0.0004711151123046875
ell 135, elapsed: 0.00045299530029296875
ell 134, elapsed: 0.0004949569702148438
ell 133, elapsed: 0.0004630088806152344
ell 132, elapsed: 0.0004858970642089844
ell 131, elapsed: 0.0004661083221435547
ell 130, elapsed: 0.00048089027404785156
ell 129, elapsed: 0.0004761219024658203
ell 128, elapsed: 0.0004918575286865234
ell 127, elapsed: 0.0004780292510986328
ell 126, elapsed: 0.0004799365997314453
ell 125, elapsed: 0.00047397613525390625
ell 124, elapsed: 0.0004899501800537109
ell 123, elapsed: 0.0004730224609375
ell 122, elapsed: 0.00047898292541503906
ell 121, elapsed: 0.0005049705505371094
ell 120, elapsed: 0.0007150173187255859
ell 119, elapsed: 0.0007469654083251953
ell 118, elapsed: 0.0007460117340087891
ell 117, elapsed: 0.0007550716400146484
ell 116, elapsed: 0.0007610321044921875
ell 115, elapsed: 0.0004417896270751953
ell 114, elapsed: 0.0004360675811767578
ell 113, elapsed: 0.00042891502380371094
ell 112, elapsed: 0.00043487548828125
ell 111, elapsed: 0.0004329681396484375
ell 110, elapsed: 0.00042819976806640625
ell 109, elapsed: 0.00042891502380371094
ell 108, elapsed: 0.0004398822784423828
ell 107, elapsed: 0.00043487548828125
ell 106, elapsed: 0.00043010711669921875
ell 105, elapsed: 0.0004229545593261719
ell 104, elapsed: 0.0004379749298095703
ell 103, elapsed: 0.0004260540008544922
ell 102, elapsed: 0.000431060791015625
ell 101, elapsed: 0.0004360675811767578
ell 100, elapsed: 0.0004451274871826172
ell 99, elapsed: 0.0004260540008544922
ell 98, elapsed: 0.00042891502380371094
ell 97, elapsed: 0.00043201446533203125
ell 96, elapsed: 0.00043392181396484375
ell 95, elapsed: 0.00043892860412597656
ell 94, elapsed: 0.0004279613494873047
ell 93, elapsed: 0.00043392181396484375
ell 92, elapsed: 0.0004470348358154297
ell 91, elapsed: 0.00043201446533203125
ell 90, elapsed: 0.0004329681396484375
ell 89, elapsed: 0.00043010711669921875
ell 88, elapsed: 0.00043201446533203125
ell 87, elapsed: 0.0004379749298095703
ell 86, elapsed: 0.00042510032653808594
ell 85, elapsed: 0.0004420280456542969
ell 84, elapsed: 0.0004401206970214844
ell 83, elapsed: 0.00043582916259765625
ell 82, elapsed: 0.0004360675811767578
ell 81, elapsed: 0.00043487548828125
ell 80, elapsed: 0.00043392181396484375
ell 79, elapsed: 0.00042700767517089844
ell 78, elapsed: 0.0004248619079589844
ell 77, elapsed: 0.0004401206970214844
ell 76, elapsed: 0.0004398822784423828
ell 75, elapsed: 0.00043702125549316406
ell 74, elapsed: 0.0004341602325439453
ell 73, elapsed: 0.0004341602325439453
ell 72, elapsed: 0.00042510032653808594
ell 71, elapsed: 0.0004329681396484375
ell 70, elapsed: 0.0004360675811767578
ell 69, elapsed: 0.00043392181396484375
ell 68, elapsed: 0.0004382133483886719
ell 67, elapsed: 0.000431060791015625
ell 66, elapsed: 0.0004391670227050781
ell 65, elapsed: 0.0004279613494873047
ell 64, elapsed: 0.00043511390686035156
ell 63, elapsed: 0.00043010711669921875
ell 62, elapsed: 0.000431060791015625
ell 61, elapsed: 0.0004420280456542969
ell 60, elapsed: 0.0004398822784423828
ell 59, elapsed: 0.00043511390686035156
ell 58, elapsed: 0.00044798851013183594
ell 57, elapsed: 0.00043392181396484375
ell 56, elapsed: 0.000431060791015625
ell 55, elapsed: 0.00043511390686035156
ell 54, elapsed: 0.00042891502380371094
ell 53, elapsed: 0.000431060791015625
ell 52, elapsed: 0.0004360675811767578
ell 51, elapsed: 0.00043201446533203125
ell 50, elapsed: 0.0004398822784423828
ell 49, elapsed: 0.0004329681396484375
ell 48, elapsed: 0.00043582916259765625
ell 47, elapsed: 0.00043392181396484375
ell 46, elapsed: 0.000431060791015625
ell 45, elapsed: 0.0004432201385498047
ell 44, elapsed: 0.0004360675811767578
ell 43, elapsed: 0.00043702125549316406
ell 42, elapsed: 0.00042891502380371094
ell 41, elapsed: 0.0004341602325439453
ell 40, elapsed: 0.00043892860412597656
ell 39, elapsed: 0.0004329681396484375
ell 38, elapsed: 0.0004360675811767578
ell 37, elapsed: 0.00043487548828125
ell 36, elapsed: 0.00043892860412597656
ell 35, elapsed: 0.0004439353942871094
ell 34, elapsed: 0.0004317760467529297
ell 33, elapsed: 0.00043702125549316406
ell 32, elapsed: 0.000431060791015625
ell 31, elapsed: 0.0004429817199707031
ell 30, elapsed: 0.00042819976806640625
ell 29, elapsed: 0.00043392181396484375
ell 28, elapsed: 0.0004360675811767578
ell 27, elapsed: 0.00044608116149902344
ell 26, elapsed: 0.00043392181396484375
ell 25, elapsed: 0.00042700767517089844
ell 24, elapsed: 0.0004329681396484375
ell 23, elapsed: 0.00043892860412597656
ell 22, elapsed: 0.00043582916259765625
ell 21, elapsed: 0.0004429817199707031
ell 20, elapsed: 0.00043702125549316406
ell 19, elapsed: 0.0004439353942871094
ell 18, elapsed: 0.0004410743713378906
ell 17, elapsed: 0.000431060791015625
ell 16, elapsed: 0.0004439353942871094
ell 15, elapsed: 0.00043892860412597656
ell 14, elapsed: 0.00043392181396484375
ell 13, elapsed: 0.00044798851013183594
ell 12, elapsed: 0.0004341602325439453
ell 11, elapsed: 0.00045299530029296875
ell 10, elapsed: 0.0004379749298095703
ell 9, elapsed: 0.0004401206970214844
ell 8, elapsed: 0.00042700767517089844
ell 7, elapsed: 0.0004360675811767578
ell 6, elapsed: 0.0004451274871826172
ell 5, elapsed: 0.00044083595275878906
ell 4, elapsed: 0.00044608116149902344
ell 3, elapsed: 0.00044608116149902344
ell 2, elapsed: 0.0004367828369140625
ell 1, elapsed: 0.00044417381286621094
ell 0, elapsed: 0.00044798851013183594
  0.928236 seconds (103.47 k allocations: 3.968 MiB)
elapsed: 0.0006399154663085938
step:          0.071959 sec (0 allocations: 0 byte, 0.0% gc time)
swapping:      0.000845 sec (0 allocations: 0 byte, 0.0% gc time)
calc_Mellell!: 0.011364 sec (0 allocations: 0 byte, 0.0% gc time)
  t0 :  0.0029 sec (0 allocations: 0 byte, 0.0% gc time)
  tm2 : 0.111728 sec (0 allocations: 0 byte, 0.0% gc time)
  tm2s: 0.001602 sec (0 allocations: 0 byte, 0.0% gc time)
  tm4 : 0.287412 sec (0 allocations: 0 byte, 0.0% gc time)
  tp2 : 0.0 sec (0 allocations: 0 byte, 0.0% gc time)
  tp2s: 0.0 sec (0 allocations: 0 byte, 0.0% gc time)
  tp4 : 0.0 sec (0 allocations: 0 byte, 0.0% gc time)
calc_wtdll!:   0.43808 sec (9.9 k allocations: 1.047 MB, 0.0% gc time)
calc_wljj!:    0.040765 sec (689 allocations: 10.766 KB, 0.0% gc time)
mult_prefac!:  0.0 sec (0 allocations: 0 byte, 0.0% gc time)
convert:       0.0 sec (0 allocations: 0 byte, 0.0% gc time)
write:         0.049387 sec (0 allocations: 0 byte, 0.0% gc time)
test_rand_2f1: 0.0 sec (0 allocations: 0 byte, 0.0% gc time)
Closing outfile out/Ml21-cache.bin...   0.000009 seconds
  0.000607 seconds (36 allocations: 27.953 KiB)
make_phi():   0.002858 seconds (8.18 k allocations: 237.844 KiB)
  0.285225 seconds (141.90 k allocations: 3.483 MiB)
tskip:       0.00148 sec (0 allocations: 0 byte, 0.0% gc time)
tread:       0.037782 sec (17 allocations: 10.641 KB, 0.0% gc time)
tmultphi:    0.024869 sec (0 allocations: 0 byte, 0.0% gc time)
tbrfft:      0.072355 sec (0 allocations: 0 byte, 0.0% gc time)
tmultprefac: 0.055427 sec (0 allocations: 0 byte, 0.0% gc time)
toutfunc:    0.087589 sec (127.507 k allocations: 2.312 MB, 0.0% gc time)
Testing R=1.0 ... passed
Calculating fmax: 
  dlrec    = 4
  dlrecRg1 = -4
  q=1.1, R=0.9:	  0.463165 seconds (105.76 k allocations: 15.287 MiB)

  0.465439 seconds (105.99 k allocations: 15.324 MiB)
ℓ = 1202
Δℓ = 4
ΔℓRg1 = -4
N = 1600
q = 1.1
kmin = 1.0e-5
kmax = 100000.00000000004
χ0 = 0.023029999999999995
RR = RR.tsv
ℓmax = ℓmax.bin
f21 = f21.bin
kmin = 1.0e-5
kmax = 100000.0
dlrec    = 4
dlrecRg1 = -4
Output size: 5741568 bytes = 0.005347251892089844 GiB
Output size: 51264 bytes = 4.774332046508789e-5 GiB
Reading 'out/F21EllCache'...   0.001139 seconds (197 allocations: 84.203 KiB)
ellmax: 1202
lmaxcache: 1202
fell[:,1,1] = ComplexF64[1.3482014726274674e-57 - 3.302141236118086e-73im, 1.357860004724329e-57 - 3.3257978169518355e-73im]
ell 1202, elapsed: 0.00014781951904296875
ell 1201, elapsed: 0.0006010532379150391
ell 1200, elapsed: 0.0005819797515869141
ell 1199, elapsed: 0.0005550384521484375
ell 1198, elapsed: 0.00055694580078125
ell 1002, elapsed: 0.010473012924194336
ell 1001, elapsed: 0.0004611015319824219
ell 1000, elapsed: 0.0004458427429199219
ell 999, elapsed: 0.0006330013275146484
ell 998, elapsed: 0.0004458427429199219
ell 902, elapsed: 0.005337953567504883
ell 901, elapsed: 0.00045990943908691406
ell 900, elapsed: 0.00043702125549316406
ell 899, elapsed: 0.0004360675811767578
ell 898, elapsed: 0.0004329681396484375
ell 802, elapsed: 0.005257844924926758
ell 801, elapsed: 0.00045108795166015625
ell 800, elapsed: 0.00043582916259765625
ell 799, elapsed: 0.00043511390686035156
ell 798, elapsed: 0.0004489421844482422
ell 702, elapsed: 0.005212068557739258
ell 701, elapsed: 0.0005300045013427734
ell 700, elapsed: 0.0004379749298095703
ell 699, elapsed: 0.00043487548828125
ell 698, elapsed: 0.0004019737243652344
ell 602, elapsed: 0.005230903625488281
ell 601, elapsed: 0.0005359649658203125
ell 600, elapsed: 0.0005469322204589844
ell 599, elapsed: 0.0004029273986816406
ell 598, elapsed: 0.0004379749298095703
ell 502, elapsed: 0.005316019058227539
ell 501, elapsed: 0.00045800209045410156
ell 500, elapsed: 0.0004398822784423828
ell 499, elapsed: 0.0004749298095703125
ell 498, elapsed: 0.0004730224609375
ell 402, elapsed: 0.005547046661376953
ell 401, elapsed: 0.0005331039428710938
ell 400, elapsed: 0.0005199909210205078
ell 399, elapsed: 0.0005290508270263672
ell 398, elapsed: 0.0007259845733642578
ell 302, elapsed: 0.005527019500732422
ell 301, elapsed: 0.0007810592651367188
ell 300, elapsed: 0.0008039474487304688
ell 299, elapsed: 0.0007770061492919922
ell 298, elapsed: 0.0007960796356201172
ell 202, elapsed: 0.005792140960693359
ell 201, elapsed: 0.0006349086761474609
ell 200, elapsed: 0.0008280277252197266
ell 199, elapsed: 0.0006668567657470703
ell 198, elapsed: 0.0008289813995361328
ell 152, elapsed: 0.003300905227661133
ell 151, elapsed: 0.0004680156707763672
ell 150, elapsed: 0.000453948974609375
ell 149, elapsed: 0.0007460117340087891
ell 148, elapsed: 0.0007519721984863281
ell 127, elapsed: 0.0018208026885986328
ell 126, elapsed: 0.0005640983581542969
ell 125, elapsed: 0.0007741451263427734
ell 124, elapsed: 0.00047707557678222656
ell 123, elapsed: 0.0005300045013427734
ell 114, elapsed: 0.001065969467163086
ell 113, elapsed: 0.0005338191986083984
ell 112, elapsed: 0.0005340576171875
ell 111, elapsed: 0.0005168914794921875
ell 110, elapsed: 0.0004379749298095703
ell 102, elapsed: 0.0009200572967529297
ell 101, elapsed: 0.0005080699920654297
ell 100, elapsed: 0.00043702125549316406
ell 99, elapsed: 0.00046896934509277344
ell 98, elapsed: 0.00046706199645996094
ell 97, elapsed: 0.0005280971527099609
ell 96, elapsed: 0.0005428791046142578
ell 95, elapsed: 0.0005180835723876953
ell 94, elapsed: 0.0005118846893310547
ell 93, elapsed: 0.0008540153503417969
ell 92, elapsed: 0.0006167888641357422
ell 91, elapsed: 0.0005159378051757812
ell 90, elapsed: 0.0005998611450195312
ell 89, elapsed: 0.0005309581756591797
ell 88, elapsed: 0.0005209445953369141
ell 87, elapsed: 0.0005140304565429688
ell 86, elapsed: 0.0008549690246582031
ell 85, elapsed: 0.0005950927734375
ell 84, elapsed: 0.0005161762237548828
ell 83, elapsed: 0.0007219314575195312
ell 82, elapsed: 0.0005919933319091797
ell 81, elapsed: 0.0005168914794921875
ell 80, elapsed: 0.0005171298980712891
ell 79, elapsed: 0.0005090236663818359
ell 78, elapsed: 0.000514984130859375
ell 77, elapsed: 0.0005080699920654297
ell 76, elapsed: 0.0005168914794921875
ell 75, elapsed: 0.0005102157592773438
ell 74, elapsed: 0.00078582763671875
ell 73, elapsed: 0.0005190372467041016
ell 72, elapsed: 0.0005099773406982422
ell 71, elapsed: 0.00051116943359375
ell 70, elapsed: 0.0005168914794921875
ell 69, elapsed: 0.0005159378051757812
ell 68, elapsed: 0.0005140304565429688
ell 67, elapsed: 0.0005102157592773438
ell 66, elapsed: 0.0005121231079101562
ell 65, elapsed: 0.0005090236663818359
ell 64, elapsed: 0.0005190372467041016
ell 63, elapsed: 0.0005068778991699219
ell 62, elapsed: 0.0005090236663818359
ell 61, elapsed: 0.0005178451538085938
ell 60, elapsed: 0.0006411075592041016
ell 59, elapsed: 0.0007631778717041016
ell 58, elapsed: 0.0006248950958251953
ell 57, elapsed: 0.0008800029754638672
ell 56, elapsed: 0.0006279945373535156
ell 55, elapsed: 0.0006208419799804688
ell 54, elapsed: 0.0006501674652099609
ell 53, elapsed: 0.0006392002105712891
ell 52, elapsed: 0.0006299018859863281
ell 51, elapsed: 0.0006368160247802734
ell 50, elapsed: 0.0008909702301025391
ell 49, elapsed: 0.0006530284881591797
ell 48, elapsed: 0.0006361007690429688
ell 47, elapsed: 0.0006520748138427734
ell 46, elapsed: 0.0006399154663085938
ell 45, elapsed: 0.0006351470947265625
ell 44, elapsed: 0.0006530284881591797
ell 43, elapsed: 0.0006349086761474609
ell 42, elapsed: 0.0006279945373535156
ell 41, elapsed: 0.0006339550018310547
ell 40, elapsed: 0.0006399154663085938
ell 39, elapsed: 0.0006299018859863281
ell 38, elapsed: 0.0008561611175537109
ell 37, elapsed: 0.0006489753723144531
ell 36, elapsed: 0.0006220340728759766
ell 35, elapsed: 0.0006160736083984375
ell 34, elapsed: 0.0006251335144042969
ell 33, elapsed: 0.0006248950958251953
ell 32, elapsed: 0.000621795654296875
ell 31, elapsed: 0.0006289482116699219
ell 30, elapsed: 0.0006411075592041016
ell 29, elapsed: 0.0006291866302490234
ell 28, elapsed: 0.0006220340728759766
ell 27, elapsed: 0.0006229877471923828
ell 26, elapsed: 0.0006339550018310547
ell 25, elapsed: 0.0006170272827148438
ell 24, elapsed: 0.0006289482116699219
ell 23, elapsed: 0.0006139278411865234
ell 22, elapsed: 0.0005750656127929688
ell 21, elapsed: 0.00047397613525390625
ell 20, elapsed: 0.00047898292541503906
ell 19, elapsed: 0.0005118846893310547
ell 18, elapsed: 0.0004711151123046875
ell 17, elapsed: 0.0005009174346923828
ell 16, elapsed: 0.0004620552062988281
ell 15, elapsed: 0.0004458427429199219
ell 14, elapsed: 0.0004520416259765625
ell 13, elapsed: 0.0004439353942871094
ell 12, elapsed: 0.000453948974609375
ell 11, elapsed: 0.0004420280456542969
ell 10, elapsed: 0.0004429817199707031
ell 9, elapsed: 0.0004680156707763672
ell 8, elapsed: 0.00044798851013183594
ell 7, elapsed: 0.00045108795166015625
ell 6, elapsed: 0.0004429817199707031
ell 5, elapsed: 0.00043892860412597656
ell 4, elapsed: 0.0004458427429199219
ell 3, elapsed: 0.0004420280456542969
ell 2, elapsed: 0.00044798851013183594
ell 1, elapsed: 0.0004420280456542969
ell 0, elapsed: 0.0004639625549316406
  0.215032 seconds (19.47 k allocations: 844.031 KiB)
elapsed: 0.0005390644073486328
step:          0.06116 sec (0 allocations: 0 byte, 0.0% gc time)
swapping:      0.000497 sec (0 allocations: 0 byte, 0.0% gc time)
calc_Mellell!: 0.0017 sec (0 allocations: 0 byte, 0.0% gc time)
  t0 :  0.000357 sec (0 allocations: 0 byte, 0.0% gc time)
  tm2 : 0.017196 sec (0 allocations: 0 byte, 0.0% gc time)
  tm2s: 0.000286 sec (0 allocations: 0 byte, 0.0% gc time)
  tm4 : 0.037852 sec (0 allocations: 0 byte, 0.0% gc time)
  tp2 : 0.0 sec (0 allocations: 0 byte, 0.0% gc time)
  tp2s: 0.0 sec (0 allocations: 0 byte, 0.0% gc time)
  tp4 : 0.0 sec (0 allocations: 0 byte, 0.0% gc time)
calc_wtdll!:   0.056547 sec (1.344 k allocations: 147.0 KB, 0.0% gc time)
calc_wljj!:    0.004314 sec (6 allocations: 96 byte, 0.0% gc time)
mult_prefac!:  0.0 sec (0 allocations: 0 byte, 0.0% gc time)
convert:       0.0 sec (0 allocations: 0 byte, 0.0% gc time)
write:         0.004315 sec (0 allocations: 0 byte, 0.0% gc time)
test_rand_2f1: 0.0 sec (0 allocations: 0 byte, 0.0% gc time)
Closing outfile out/Ml21-cache.bin...   0.000007 seconds
  0.000296 seconds (36 allocations: 27.953 KiB)
make_phi():   0.002779 seconds (8.18 k allocations: 237.844 KiB)
  0.019788 seconds (11.65 k allocations: 308.688 KiB)
tskip:       1.9e-5 sec (0 allocations: 0 byte, 0.0% gc time)
tread:       0.002631 sec (17 allocations: 2.125 KB, 0.0% gc time)
tmultphi:    0.001493 sec (0 allocations: 0 byte, 0.0% gc time)
tbrfft:      0.004641 sec (0 allocations: 0 byte, 0.0% gc time)
tmultprefac: 0.004308 sec (0 allocations: 0 byte, 0.0% gc time)
toutfunc:    0.006408 sec (10.304 k allocations: 196.0 KB, 0.0% gc time)
Testing R=0.9 ... passed
Calculating fmax: 
  dlrec    = 4
  dlrecRg1 = -4
  q=1.1, R=0.8:	  0.357028 seconds (103.25 k allocations: 14.856 MiB)

  0.357433 seconds (103.48 k allocations: 14.893 MiB)
ℓ = 1202
Δℓ = 4
ΔℓRg1 = -4
N = 1600
q = 1.1
kmin = 1.0e-5
kmax = 100000.00000000004
χ0 = 0.023029999999999995
RR = RR.tsv
ℓmax = ℓmax.bin
f21 = f21.bin
kmin = 1.0e-5
kmax = 100000.0
dlrec    = 4
dlrecRg1 = -4
Output size: 5741568 bytes = 0.005347251892089844 GiB
Output size: 51264 bytes = 4.774332046508789e-5 GiB
Reading 'out/F21EllCache'...   0.000942 seconds (197 allocations: 84.203 KiB)
ellmax: 1202
lmaxcache: 1202
fell[:,1,1] = ComplexF64[7.519068145690986e-120 - 1.8416405474382574e-135im, 7.541664537386155e-120 - 1.847175067190611e-135im]
ell 1202, elapsed: 7.009506225585938e-5
ell 1201, elapsed: 0.0005829334259033203
ell 1200, elapsed: 0.0004949569702148438
ell 1199, elapsed: 0.00048089027404785156
ell 1198, elapsed: 0.0005481243133544922
ell 1002, elapsed: 0.011322021484375
ell 1001, elapsed: 0.0004830360412597656
ell 1000, elapsed: 0.0005810260772705078
ell 999, elapsed: 0.0004029273986816406
ell 998, elapsed: 0.00045299530029296875
ell 902, elapsed: 0.0053119659423828125
ell 901, elapsed: 0.0004642009735107422
ell 900, elapsed: 0.00043582916259765625
ell 899, elapsed: 0.00043487548828125
ell 898, elapsed: 0.00043487548828125
ell 802, elapsed: 0.005343914031982422
ell 801, elapsed: 0.00045800209045410156
ell 800, elapsed: 0.0005519390106201172
ell 799, elapsed: 0.000453948974609375
ell 798, elapsed: 0.0004329681396484375
ell 702, elapsed: 0.005226850509643555
ell 701, elapsed: 0.00045609474182128906
ell 700, elapsed: 0.000431060791015625
ell 699, elapsed: 0.0004329681396484375
ell 698, elapsed: 0.00043892860412597656
ell 602, elapsed: 0.005263090133666992
ell 601, elapsed: 0.0004391670227050781
ell 600, elapsed: 0.000431060791015625
ell 599, elapsed: 0.0004508495330810547
ell 598, elapsed: 0.0004489421844482422
ell 502, elapsed: 0.005260944366455078
ell 501, elapsed: 0.0004818439483642578
ell 500, elapsed: 0.00045800209045410156
ell 499, elapsed: 0.0004611015319824219
ell 498, elapsed: 0.0004551410675048828
ell 402, elapsed: 0.0052487850189208984
ell 401, elapsed: 0.0004792213439941406
ell 400, elapsed: 0.00045108795166015625
ell 399, elapsed: 0.0004680156707763672
ell 398, elapsed: 0.0004799365997314453
ell 302, elapsed: 0.005026102066040039
ell 301, elapsed: 0.0004570484161376953
ell 300, elapsed: 0.0004658699035644531
ell 299, elapsed: 0.0004138946533203125
ell 298, elapsed: 0.00041604042053222656
ell 202, elapsed: 0.005168914794921875
ell 201, elapsed: 0.0004439353942871094
ell 200, elapsed: 0.0004050731658935547
ell 199, elapsed: 0.0004150867462158203
ell 198, elapsed: 0.00041985511779785156
ell 152, elapsed: 0.0028340816497802734
ell 151, elapsed: 0.00040912628173828125
ell 150, elapsed: 0.0003979206085205078
ell 149, elapsed: 0.00043201446533203125
ell 148, elapsed: 0.0003960132598876953
ell 127, elapsed: 0.0015518665313720703
ell 126, elapsed: 0.00042319297790527344
ell 125, elapsed: 0.0004169940948486328
ell 124, elapsed: 0.0004119873046875
ell 123, elapsed: 0.00039696693420410156
ell 114, elapsed: 0.0009160041809082031
ell 113, elapsed: 0.0003948211669921875
ell 112, elapsed: 0.0003960132598876953
ell 111, elapsed: 0.0003941059112548828
ell 110, elapsed: 0.00041413307189941406
ell 102, elapsed: 0.0008518695831298828
ell 101, elapsed: 0.0003979206085205078
ell 100, elapsed: 0.0003972053527832031
ell 99, elapsed: 0.0003790855407714844
ell 98, elapsed: 0.00039505958557128906
ell 97, elapsed: 0.0004799365997314453
ell 96, elapsed: 0.00046515464782714844
ell 95, elapsed: 0.00047397613525390625
ell 94, elapsed: 0.0004639625549316406
ell 93, elapsed: 0.00046896934509277344
ell 92, elapsed: 0.0004858970642089844
ell 91, elapsed: 0.0004649162292480469
ell 90, elapsed: 0.0004699230194091797
ell 89, elapsed: 0.0004620552062988281
ell 88, elapsed: 0.0004630088806152344
ell 87, elapsed: 0.0004680156707763672
ell 86, elapsed: 0.0004649162292480469
ell 85, elapsed: 0.00046706199645996094
ell 84, elapsed: 0.00046181678771972656
ell 83, elapsed: 0.0004620552062988281
ell 82, elapsed: 0.0004711151123046875
ell 81, elapsed: 0.0004608631134033203
ell 80, elapsed: 0.0004699230194091797
ell 79, elapsed: 0.0004620552062988281
ell 78, elapsed: 0.0004642009735107422
ell 77, elapsed: 0.00047779083251953125
ell 76, elapsed: 0.0004639625549316406
ell 75, elapsed: 0.0004639625549316406
ell 74, elapsed: 0.00046515464782714844
ell 73, elapsed: 0.0004611015319824219
ell 72, elapsed: 0.0004699230194091797
ell 71, elapsed: 0.00046515464782714844
ell 70, elapsed: 0.0004899501800537109
ell 69, elapsed: 0.00047206878662109375
ell 68, elapsed: 0.00047087669372558594
ell 67, elapsed: 0.00046706199645996094
ell 66, elapsed: 0.00046896934509277344
ell 65, elapsed: 0.00047397613525390625
ell 64, elapsed: 0.0004680156707763672
ell 63, elapsed: 0.0004630088806152344
ell 62, elapsed: 0.0004830360412597656
ell 61, elapsed: 0.0004642009735107422
ell 60, elapsed: 0.00047206878662109375
ell 59, elapsed: 0.0004680156707763672
ell 58, elapsed: 0.0004661083221435547
ell 57, elapsed: 0.00046896934509277344
ell 56, elapsed: 0.0004620552062988281
ell 55, elapsed: 0.0004799365997314453
ell 54, elapsed: 0.0004680156707763672
ell 53, elapsed: 0.0004730224609375
ell 52, elapsed: 0.0004630088806152344
ell 51, elapsed: 0.0004649162292480469
ell 50, elapsed: 0.0004658699035644531
ell 49, elapsed: 0.00046706199645996094
ell 48, elapsed: 0.00047397613525390625
ell 47, elapsed: 0.0004642009735107422
ell 46, elapsed: 0.0004630088806152344
ell 45, elapsed: 0.00046896934509277344
ell 44, elapsed: 0.0004649162292480469
ell 43, elapsed: 0.0004699230194091797
ell 42, elapsed: 0.0004642009735107422
ell 41, elapsed: 0.00046706199645996094
[...]
ell 788, elapsed: 0.0009570121765136719
ell 782, elapsed: 0.0016560554504394531
ell 781, elapsed: 0.0009169578552246094
ell 780, elapsed: 0.0009300708770751953
ell 779, elapsed: 0.0009169578552246094
ell 778, elapsed: 0.0009369850158691406
ell 772, elapsed: 0.0016679763793945312
ell 771, elapsed: 0.0009288787841796875
ell 770, elapsed: 0.0009207725524902344
ell 769, elapsed: 0.0009119510650634766
ell 768, elapsed: 0.0009200572967529297
ell 762, elapsed: 0.0016400814056396484
ell 761, elapsed: 0.00084686279296875
ell 760, elapsed: 0.0009140968322753906
ell 759, elapsed: 0.0009329319000244141
ell 758, elapsed: 0.0008549690246582031
ell 752, elapsed: 0.0016460418701171875
ell 751, elapsed: 0.0008981227874755859
ell 750, elapsed: 0.0009150505065917969
ell 749, elapsed: 0.0009181499481201172
ell 748, elapsed: 0.0009069442749023438
ell 742, elapsed: 0.0016489028930664062
ell 741, elapsed: 0.0009129047393798828
ell 740, elapsed: 0.0009160041809082031
ell 739, elapsed: 0.0008380413055419922
ell 738, elapsed: 0.0009169578552246094
ell 732, elapsed: 0.0019390583038330078
ell 731, elapsed: 0.0008361339569091797
ell 730, elapsed: 0.0008759498596191406
ell 729, elapsed: 0.0009069442749023438
ell 728, elapsed: 0.0009357929229736328
ell 722, elapsed: 0.0016319751739501953
ell 721, elapsed: 0.0011260509490966797
ell 720, elapsed: 0.0008809566497802734
ell 719, elapsed: 0.0009050369262695312
ell 718, elapsed: 0.0009348392486572266
ell 712, elapsed: 0.001631021499633789
ell 711, elapsed: 0.0009241104125976562
ell 710, elapsed: 0.0009250640869140625
ell 709, elapsed: 0.0009281635284423828
ell 708, elapsed: 0.0009210109710693359
ell 702, elapsed: 0.00164794921875
ell 701, elapsed: 0.0009729862213134766
ell 700, elapsed: 0.0009601116180419922
ell 699, elapsed: 0.0009429454803466797
ell 698, elapsed: 0.0009410381317138672
ell 692, elapsed: 0.0017879009246826172
ell 691, elapsed: 0.0008270740509033203
ell 690, elapsed: 0.001188039779663086
ell 689, elapsed: 0.0012359619140625
ell 688, elapsed: 0.0009200572967529297
ell 682, elapsed: 0.0021109580993652344
ell 681, elapsed: 0.0009028911590576172
ell 680, elapsed: 0.0013141632080078125
ell 679, elapsed: 0.0008940696716308594
ell 678, elapsed: 0.0012629032135009766
ell 672, elapsed: 0.0017049312591552734
ell 671, elapsed: 0.0009179115295410156
ell 670, elapsed: 0.0009250640869140625
ell 669, elapsed: 0.0009150505065917969
ell 668, elapsed: 0.0009071826934814453
ell 662, elapsed: 0.0015649795532226562
ell 661, elapsed: 0.0009000301361083984
ell 660, elapsed: 0.0009160041809082031
ell 659, elapsed: 0.0009179115295410156
ell 658, elapsed: 0.0009109973907470703
ell 652, elapsed: 0.001589059829711914
ell 651, elapsed: 0.0009191036224365234
ell 650, elapsed: 0.0009388923645019531
ell 649, elapsed: 0.0008940696716308594
ell 648, elapsed: 0.0008881092071533203
ell 642, elapsed: 0.0015828609466552734
ell 641, elapsed: 0.0012240409851074219
ell 640, elapsed: 0.0008220672607421875
ell 639, elapsed: 0.0009138584136962891
ell 638, elapsed: 0.000888824462890625
ell 632, elapsed: 0.0017571449279785156
ell 631, elapsed: 0.0008699893951416016
ell 630, elapsed: 0.0009338855743408203
ell 629, elapsed: 0.0009169578552246094
ell 628, elapsed: 0.0009291172027587891
ell 622, elapsed: 0.0017900466918945312
ell 621, elapsed: 0.0008809566497802734
ell 620, elapsed: 0.000904083251953125
ell 619, elapsed: 0.0009310245513916016
ell 618, elapsed: 0.0008959770202636719
ell 612, elapsed: 0.0015430450439453125
ell 611, elapsed: 0.0009241104125976562
ell 610, elapsed: 0.0009500980377197266
ell 609, elapsed: 0.0009570121765136719
ell 608, elapsed: 0.0009839534759521484
ell 602, elapsed: 0.0051729679107666016
ell 601, elapsed: 0.0008680820465087891
ell 600, elapsed: 0.0009229183197021484
ell 599, elapsed: 0.000926971435546875
ell 598, elapsed: 0.0009529590606689453
ell 592, elapsed: 0.0016241073608398438
ell 591, elapsed: 0.0009160041809082031
ell 590, elapsed: 0.0009360313415527344
ell 589, elapsed: 0.0009119510650634766
ell 588, elapsed: 0.0008940696716308594
ell 582, elapsed: 0.0016248226165771484
ell 581, elapsed: 0.0008950233459472656
ell 580, elapsed: 0.0009090900421142578
ell 579, elapsed: 0.0009331703186035156
ell 578, elapsed: 0.0009100437164306641
ell 572, elapsed: 0.0016338825225830078
ell 571, elapsed: 0.0008969306945800781
ell 570, elapsed: 0.0013620853424072266
ell 569, elapsed: 0.0013840198516845703
ell 568, elapsed: 0.0009319782257080078
ell 562, elapsed: 0.002007007598876953
ell 561, elapsed: 0.0009441375732421875
ell 560, elapsed: 0.0012981891632080078
ell 559, elapsed: 0.0009388923645019531
ell 558, elapsed: 0.0013890266418457031
ell 552, elapsed: 0.0019800662994384766
ell 551, elapsed: 0.0007810592651367188
ell 550, elapsed: 0.0007679462432861328
ell 549, elapsed: 0.0007648468017578125
ell 548, elapsed: 0.0008189678192138672
ell 542, elapsed: 0.002093076705932617
ell 541, elapsed: 0.0009069442749023438
ell 540, elapsed: 0.0012831687927246094
ell 539, elapsed: 0.0008549690246582031
ell 538, elapsed: 0.0011630058288574219
ell 532, elapsed: 0.0017271041870117188
ell 531, elapsed: 0.0008509159088134766
ell 530, elapsed: 0.0009109973907470703
ell 529, elapsed: 0.0008919239044189453
ell 528, elapsed: 0.0009160041809082031
ell 522, elapsed: 0.002251148223876953
ell 521, elapsed: 0.0009059906005859375
ell 520, elapsed: 0.0013260841369628906
ell 519, elapsed: 0.0009319782257080078
ell 518, elapsed: 0.0013341903686523438
ell 512, elapsed: 0.0019249916076660156
ell 511, elapsed: 0.0009288787841796875
ell 510, elapsed: 0.0012969970703125
ell 509, elapsed: 0.0009500980377197266
ell 508, elapsed: 0.0011899471282958984
ell 502, elapsed: 0.0018620491027832031
ell 501, elapsed: 0.0009372234344482422
ell 500, elapsed: 0.001238107681274414
ell 499, elapsed: 0.0008950233459472656
ell 498, elapsed: 0.001338958740234375
ell 492, elapsed: 0.0022530555725097656
ell 491, elapsed: 0.0013549327850341797
ell 490, elapsed: 0.0009548664093017578
ell 489, elapsed: 0.0013120174407958984
ell 488, elapsed: 0.0013170242309570312
ell 482, elapsed: 0.0019049644470214844
ell 481, elapsed: 0.0009400844573974609
ell 480, elapsed: 0.001316070556640625
ell 479, elapsed: 0.0009360313415527344
ell 478, elapsed: 0.0013148784637451172
ell 472, elapsed: 0.002274036407470703
ell 471, elapsed: 0.0009009838104248047
ell 470, elapsed: 0.0013580322265625
ell 469, elapsed: 0.0013058185577392578
ell 468, elapsed: 0.0009222030639648438
ell 462, elapsed: 0.0022430419921875
ell 461, elapsed: 0.0009520053863525391
ell 460, elapsed: 0.0013229846954345703
ell 459, elapsed: 0.0012898445129394531
ell 458, elapsed: 0.0007870197296142578
ell 452, elapsed: 0.001291036605834961
ell 451, elapsed: 0.0007650852203369141
ell 450, elapsed: 0.001116037368774414
ell 449, elapsed: 0.0009260177612304688
ell 448, elapsed: 0.0013010501861572266
ell 442, elapsed: 0.002199888229370117
ell 441, elapsed: 0.0009160041809082031
ell 440, elapsed: 0.0012629032135009766
ell 439, elapsed: 0.0008878707885742188
ell 438, elapsed: 0.0013170242309570312
ell 432, elapsed: 0.001833200454711914
ell 431, elapsed: 0.0008790493011474609
ell 430, elapsed: 0.0012879371643066406
ell 429, elapsed: 0.0008790493011474609
ell 428, elapsed: 0.0011789798736572266
ell 422, elapsed: 0.0017480850219726562
ell 421, elapsed: 0.0008828639984130859
ell 420, elapsed: 0.0011529922485351562
ell 419, elapsed: 0.0011849403381347656
ell 418, elapsed: 0.0008778572082519531
ell 412, elapsed: 0.001981973648071289
ell 411, elapsed: 0.0009210109710693359
ell 410, elapsed: 0.0009300708770751953
ell 409, elapsed: 0.0009291172027587891
ell 408, elapsed: 0.001329183578491211
ell 402, elapsed: 0.0018968582153320312
ell 401, elapsed: 0.0009229183197021484
ell 400, elapsed: 0.0012249946594238281
ell 399, elapsed: 0.0009369850158691406
ell 398, elapsed: 0.0013420581817626953
ell 392, elapsed: 0.0016779899597167969
ell 391, elapsed: 0.0012559890747070312
ell 390, elapsed: 0.0009272098541259766
ell 389, elapsed: 0.0013248920440673828
ell 388, elapsed: 0.0008709430694580078
ell 382, elapsed: 0.0016388893127441406
ell 381, elapsed: 0.0009260177612304688
ell 380, elapsed: 0.0009210109710693359
ell 379, elapsed: 0.0009050369262695312
ell 378, elapsed: 0.0008780956268310547
ell 372, elapsed: 0.0015020370483398438
ell 371, elapsed: 0.0008821487426757812
ell 370, elapsed: 0.0008549690246582031
ell 369, elapsed: 0.0008771419525146484
ell 368, elapsed: 0.0009169578552246094
ell 362, elapsed: 0.0016031265258789062
ell 361, elapsed: 0.0009238719940185547
ell 360, elapsed: 0.0009131431579589844
ell 359, elapsed: 0.0009160041809082031
ell 358, elapsed: 0.0009088516235351562
ell 352, elapsed: 0.001600027084350586
ell 351, elapsed: 0.0008997917175292969
ell 350, elapsed: 0.0009319782257080078
ell 349, elapsed: 0.0009310245513916016
ell 348, elapsed: 0.0009260177612304688
ell 342, elapsed: 0.0016009807586669922
ell 341, elapsed: 0.0009119510650634766
ell 340, elapsed: 0.0009510517120361328
ell 339, elapsed: 0.0009298324584960938
ell 338, elapsed: 0.0009348392486572266
ell 332, elapsed: 0.0013070106506347656
ell 331, elapsed: 0.0007519721984863281
ell 330, elapsed: 0.0007829666137695312
ell 329, elapsed: 0.00080108642578125
ell 328, elapsed: 0.0009291172027587891
ell 322, elapsed: 0.001605987548828125
ell 321, elapsed: 0.0009200572967529297
ell 320, elapsed: 0.0009150505065917969
ell 319, elapsed: 0.0009100437164306641
ell 318, elapsed: 0.0009050369262695312
ell 312, elapsed: 0.0016169548034667969
ell 311, elapsed: 0.0008900165557861328
ell 310, elapsed: 0.0009241104125976562
ell 309, elapsed: 0.0009129047393798828
ell 308, elapsed: 0.0009109973907470703
ell 302, elapsed: 0.0015568733215332031
ell 301, elapsed: 0.0008361339569091797
ell 300, elapsed: 0.0008099079132080078
ell 299, elapsed: 0.0008208751678466797
ell 298, elapsed: 0.0011970996856689453
ell 292, elapsed: 0.0018620491027832031
ell 291, elapsed: 0.0008890628814697266
ell 290, elapsed: 0.0008981227874755859
ell 289, elapsed: 0.0009050369262695312
ell 288, elapsed: 0.0008969306945800781
ell 282, elapsed: 0.0016131401062011719
ell 281, elapsed: 0.0009119510650634766
ell 280, elapsed: 0.0009279251098632812
ell 279, elapsed: 0.00092315673828125
ell 278, elapsed: 0.0009000301361083984
ell 272, elapsed: 0.001631021499633789
ell 271, elapsed: 0.0009388923645019531
ell 270, elapsed: 0.0008990764617919922
ell 269, elapsed: 0.0009331703186035156
ell 268, elapsed: 0.000904083251953125
ell 262, elapsed: 0.0016620159149169922
ell 261, elapsed: 0.0009300708770751953
ell 260, elapsed: 0.0009019374847412109
ell 259, elapsed: 0.0009188652038574219
ell 258, elapsed: 0.0009121894836425781
ell 252, elapsed: 0.0015828609466552734
ell 251, elapsed: 0.0008990764617919922
ell 250, elapsed: 0.0008981227874755859
ell 249, elapsed: 0.0008921623229980469
ell 248, elapsed: 0.0009009838104248047
ell 242, elapsed: 0.0014870166778564453
ell 241, elapsed: 0.0008969306945800781
ell 240, elapsed: 0.0009148120880126953
ell 239, elapsed: 0.0009059906005859375
ell 238, elapsed: 0.0009088516235351562
ell 232, elapsed: 0.0016429424285888672
ell 231, elapsed: 0.0009341239929199219
ell 230, elapsed: 0.0009119510650634766
ell 229, elapsed: 0.0009100437164306641
ell 228, elapsed: 0.0009160041809082031
ell 222, elapsed: 0.0016100406646728516
ell 221, elapsed: 0.0009341239929199219
ell 220, elapsed: 0.0009160041809082031
ell 219, elapsed: 0.0008969306945800781
ell 218, elapsed: 0.0009100437164306641
ell 212, elapsed: 0.0016798973083496094
ell 211, elapsed: 0.001180887222290039
ell 210, elapsed: 0.0008649826049804688
ell 209, elapsed: 0.0011699199676513672
ell 208, elapsed: 0.0007269382476806641
ell 202, elapsed: 0.001291036605834961
ell 201, elapsed: 0.0007550716400146484
ell 200, elapsed: 0.0013010501861572266
ell 199, elapsed: 0.0008900165557861328
ell 198, elapsed: 0.0009050369262695312
ell 192, elapsed: 0.0017750263214111328
ell 191, elapsed: 0.0009570121765136719
ell 190, elapsed: 0.0011680126190185547
ell 189, elapsed: 0.0009100437164306641
ell 188, elapsed: 0.0011899471282958984
ell 182, elapsed: 0.0016140937805175781
ell 181, elapsed: 0.0009272098541259766
ell 180, elapsed: 0.0009150505065917969
ell 179, elapsed: 0.0009469985961914062
ell 178, elapsed: 0.0012331008911132812
ell 172, elapsed: 0.001573801040649414
ell 171, elapsed: 0.0009150505065917969
ell 170, elapsed: 0.0009248256683349609
ell 169, elapsed: 0.0009138584136962891
ell 168, elapsed: 0.0009219646453857422
ell 162, elapsed: 0.001653909683227539
ell 161, elapsed: 0.0009200572967529297
ell 160, elapsed: 0.0009350776672363281
ell 159, elapsed: 0.0008959770202636719
ell 158, elapsed: 0.0009081363677978516
ell 152, elapsed: 0.0016269683837890625
ell 151, elapsed: 0.0008990764617919922
ell 150, elapsed: 0.0009369850158691406
ell 149, elapsed: 0.0009179115295410156
ell 148, elapsed: 0.0009009838104248047
ell 142, elapsed: 0.0016279220581054688
ell 141, elapsed: 0.0009319782257080078
ell 140, elapsed: 0.0009171962738037109
ell 139, elapsed: 0.0009028911590576172
ell 138, elapsed: 0.0009138584136962891
ell 132, elapsed: 0.0015599727630615234
ell 131, elapsed: 0.0009191036224365234
ell 130, elapsed: 0.0009632110595703125
ell 129, elapsed: 0.0009059906005859375
ell 128, elapsed: 0.0009238719940185547
ell 122, elapsed: 0.0016300678253173828
ell 121, elapsed: 0.0009260177612304688
ell 120, elapsed: 0.0009250640869140625
ell 119, elapsed: 0.000926971435546875
ell 118, elapsed: 0.0009109973907470703
ell 112, elapsed: 0.0015499591827392578
ell 111, elapsed: 0.0009191036224365234
ell 110, elapsed: 0.0009000301361083984
ell 109, elapsed: 0.0009009838104248047
ell 108, elapsed: 0.0009620189666748047
ell 102, elapsed: 0.0016350746154785156
ell 101, elapsed: 0.0034689903259277344
ell 100, elapsed: 0.0036008358001708984
ell 99, elapsed: 0.0034618377685546875
ell 98, elapsed: 0.0033528804779052734
ell 92, elapsed: 0.0063169002532958984
ell 91, elapsed: 0.003484964370727539
ell 90, elapsed: 0.003780841827392578
ell 89, elapsed: 0.0037889480590820312
ell 88, elapsed: 0.003512144088745117
ell 82, elapsed: 0.006420135498046875
ell 81, elapsed: 0.0035262107849121094
ell 80, elapsed: 0.003481149673461914
ell 79, elapsed: 0.003980875015258789
ell 78, elapsed: 0.003979921340942383
ell 72, elapsed: 0.006946086883544922
ell 71, elapsed: 0.0038878917694091797
ell 70, elapsed: 0.0037958621978759766
ell 69, elapsed: 0.0036840438842773438
ell 68, elapsed: 0.0034332275390625
ell 62, elapsed: 0.006369829177856445
ell 61, elapsed: 0.004002809524536133
ell 60, elapsed: 0.0034978389739990234
ell 59, elapsed: 0.0034971237182617188
ell 58, elapsed: 0.003493070602416992
ell 52, elapsed: 0.006270170211791992
ell 51, elapsed: 0.0033957958221435547
ell 50, elapsed: 0.0035240650177001953
ell 49, elapsed: 0.003520965576171875
ell 48, elapsed: 0.003782987594604492
ell 42, elapsed: 0.009286880493164062
ell 41, elapsed: 0.0035119056701660156
ell 40, elapsed: 0.0035240650177001953
ell 39, elapsed: 0.0035037994384765625
ell 38, elapsed: 0.004062175750732422
ell 32, elapsed: 0.007011890411376953
ell 31, elapsed: 0.0043489933013916016
ell 30, elapsed: 0.004757881164550781
ell 29, elapsed: 0.007314920425415039
ell 28, elapsed: 0.003741025924682617
ell 22, elapsed: 0.006913900375366211
ell 21, elapsed: 0.0034329891204833984
ell 20, elapsed: 0.003693103790283203
ell 19, elapsed: 0.0035049915313720703
ell 18, elapsed: 0.003286123275756836
ell 12, elapsed: 0.006606101989746094
ell 11, elapsed: 0.0035638809204101562
ell 10, elapsed: 0.003576993942260742
ell 9, elapsed: 0.0035398006439208984
ell 8, elapsed: 0.0034868717193603516
  1.009500 seconds (97.10 k allocations: 12.612 MiB)
elapsed: 0.00480198860168457
step:          0.070579 sec (0 allocations: 0 byte, 0.0% gc time)
swapping:      0.000742 sec (0 allocations: 0 byte, 0.0% gc time)
calc_Mellell!: 0.044117 sec (0 allocations: 0 byte, 0.0% gc time)
  t0 :  0.010416 sec (0 allocations: 0 byte, 0.0% gc time)
  tm2 : 0.080206 sec (0 allocations: 0 byte, 0.0% gc time)
  tm2s: 0.008294 sec (0 allocations: 0 byte, 0.0% gc time)
  tm4 : 0.188949 sec (0 allocations: 0 byte, 0.0% gc time)
  tp2 : 0.0 sec (0 allocations: 0 byte, 0.0% gc time)
  tp2s: 0.0 sec (0 allocations: 0 byte, 0.0% gc time)
  tp4 : 0.0 sec (0 allocations: 0 byte, 0.0% gc time)
calc_wtdll!:   0.562893 sec (48.6 k allocations: 11.096 MB, 0.0% gc time)
calc_wljj!:    0.041452 sec (69 allocations: 1.078 KB, 0.0% gc time)
mult_prefac!:  0.0 sec (0 allocations: 0 byte, 0.0% gc time)
convert:       0.0 sec (0 allocations: 0 byte, 0.0% gc time)
write:         0.033659 sec (0 allocations: 0 byte, 0.0% gc time)
test_rand_2f1: 0.0 sec (0 allocations: 0 byte, 0.0% gc time)
Closing outfile out/MlCache/MlCache.bin...   0.000007 seconds
xi, l=0, nu=0:   0.463442 seconds (602.53 k allocations: 32.891 MiB, 6.17% gc time)
xi, l=0, nu=-2:  0.003368 seconds (114 allocations: 148.969 KiB)
Created 'out/xi.tsv'.
  q=1.1, R=0.6:	  0.827629 seconds (264.52 k allocations: 38.099 MiB, 2.48% gc time)
  q=1.1, R=0.7:	  0.978798 seconds (276.46 k allocations: 40.114 MiB)
  q=1.1, R=0.8:	  0.984076 seconds (271.68 k allocations: 39.302 MiB, 3.82% gc time)
  q=1.1, R=0.9:	  1.095703 seconds (266.62 k allocations: 38.459 MiB, 0.83% gc time)
  q=1.1, R=0.998:	 21.080103 seconds (114.96 k allocations: 7.588 MiB)
  q=1.1, R=1.0:	  0.004142 seconds (8.20 k allocations: 704.344 KiB)

ℓ = 1000
Δℓ = 4
ΔℓRg1 = -4
N = 4096
q = 1.1
kmin = 1.0e-5
kmax = 1000.0
χ0 = 0.001
RR = RR.tsv
ℓmax = ℓmax.bin
f21 = f21.bin
kmin = 1.0e-5
kmax = 1000.0
dlrec    = 4
dlrecRg1 = -4
Output size: 1573632 bytes = 0.0014655590057373047 GiB
Output size: 786816 bytes = 0.0007327795028686523 GiB
Reading 'out/F21EllCache'...   0.001435 seconds (198 allocations: 533.078 KiB)
ellmax: 1002
lmaxcache: 1000
fell[:,1,1] = ComplexF64[1.7262928128202118e-224 - 4.2281979352226944e-240im, 1.7282693092099662e-224 - 4.233038955177176e-240im]
ell 1002, elapsed: 2.4080276489257812e-5
ell 1001, elapsed: 0.0007760524749755859
ell 1000, elapsed: 0.0013241767883300781
ell 999, elapsed: 0.00808095932006836
ell 998, elapsed: 0.008101940155029297
ell 44, elapsed: 0.7172660827636719
ell 43, elapsed: 0.008528947830200195
ell 42, elapsed: 0.008293867111206055
ell 41, elapsed: 0.008219003677368164
ell 40, elapsed: 0.008270025253295898
  0.779451 seconds (5.05 k allocations: 329.328 KiB)
elapsed: 0.009733915328979492
step:          0.713857 sec (0 allocations: 0 byte, 0.0% gc time)
swapping:      0.000436 sec (0 allocations: 0 byte, 0.0% gc time)
calc_Mellell!: 0.001154 sec (0 allocations: 0 byte, 0.0% gc time)
  t0 :  0.000823 sec (0 allocations: 0 byte, 0.0% gc time)
  tm2 : 0.01421 sec (0 allocations: 0 byte, 0.0% gc time)
  tm2s: 0.000655 sec (0 allocations: 0 byte, 0.0% gc time)
  tm4 : 0.041162 sec (0 allocations: 0 byte, 0.0% gc time)
  tp2 : 0.0 sec (0 allocations: 0 byte, 0.0% gc time)
  tp2s: 0.0 sec (0 allocations: 0 byte, 0.0% gc time)
  tp4 : 0.0 sec (0 allocations: 0 byte, 0.0% gc time)
calc_wtdll!:   0.057064 sec (480 allocations: 52.5 KB, 0.0% gc time)
calc_wljj!:    0.002198 sec (1 allocations: 16 byte, 0.0% gc time)
mult_prefac!:  0.0 sec (0 allocations: 0 byte, 0.0% gc time)
convert:       0.0 sec (0 allocations: 0 byte, 0.0% gc time)
write:         0.001346 sec (0 allocations: 0 byte, 0.0% gc time)
test_rand_2f1: 0.0 sec (0 allocations: 0 byte, 0.0% gc time)
Closing outfile out/MlCache/MlCache.bin...   0.000007 seconds
  0.494932 seconds (38 allocations: 66.859 KiB)
make_phi():   0.010072 seconds (65 allocations: 275.984 KiB)
  0.042040 seconds (11.51 k allocations: 716.413 KiB)
tskip:       1.0e-6 sec (0 allocations: 0 byte, 0.0% gc time)
tread:       0.000781 sec (17 allocations: 1.266 KB, 0.0% gc time)
tmultphi:    0.000366 sec (0 allocations: 0 byte, 0.0% gc time)
tbrfft:      0.001453 sec (0 allocations: 0 byte, 0.0% gc time)
tmultprefac: 0.001161 sec (0 allocations: 0 byte, 0.0% gc time)
toutfunc:    0.000148 sec (0 allocations: 0 byte, 0.0% gc time)
Created 'out/wl42_jj00.tsv'.
Created 'out/wl42_jj02.tsv'.
    Testing TwoFAST tests passed 
