Running tests with Julia v1.3.1-pre.12
 Resolving package versions...
 Installed URIParser ──────── v0.4.0
 Installed Reexport ───────── v0.2.0
 Installed Conda ──────────── v1.3.0
 Installed BinDeps ────────── v0.8.10
 Installed SpecialFunctions ─ v0.8.0
 Installed AbstractAlgebra ── v0.7.1
 Installed Nemo ───────────── v0.15.1
 Installed Compat ─────────── v2.2.0
 Installed IncGammaBeta ───── v0.1.0
 Installed JSON ───────────── v0.21.0
 Installed BinaryProvider ─── v0.5.8
 Installed VersionParsing ─── v1.1.3
 Installed AbstractFFTs ───── v0.5.0
 Installed Parsers ────────── v0.3.10
 Installed TwoFAST ────────── v0.1.0
 Installed FFTW ───────────── v1.1.0
  Updating `~/.julia/environments/v1.3/Project.toml`
  [0dd23c3e] + TwoFAST v0.1.0
  Updating `~/.julia/environments/v1.3/Manifest.toml`
  [c3fe647b] + AbstractAlgebra v0.7.1
  [621f4979] + AbstractFFTs v0.5.0
  [9e28174c] + BinDeps v0.8.10
  [b99e7846] + BinaryProvider v0.5.8
  [34da2185] + Compat v2.2.0
  [8f4d0f93] + Conda v1.3.0
  [7a1cc6ca] + FFTW v1.1.0
  [5087d2c0] + IncGammaBeta v0.1.0
  [682c06a0] + JSON v0.21.0
  [2edaba10] + Nemo v0.15.1
  [69de0a69] + Parsers v0.3.10
  [189a3867] + Reexport v0.2.0
  [276daf66] + SpecialFunctions v0.8.0
  [0dd23c3e] + TwoFAST v0.1.0
  [30578b45] + URIParser v0.4.0
  [81def892] + VersionParsing v1.1.3
  [2a0f44e3] + Base64 
  [ade2ca70] + Dates 
  [8bb1440f] + DelimitedFiles 
  [8ba89e20] + Distributed 
  [b77e0a4c] + InteractiveUtils 
  [76f85450] + LibGit2 
  [8f399da3] + Libdl 
  [37e2e46d] + LinearAlgebra 
  [56ddb016] + Logging 
  [d6f4376e] + Markdown 
  [a63ad114] + Mmap 
  [44cfe95a] + Pkg 
  [de0858da] + Printf 
  [3fa0cd96] + REPL 
  [9a3f8284] + Random 
  [ea8e919c] + SHA 
  [9e88b42a] + Serialization 
  [1a1011a3] + SharedArrays 
  [6462fe0b] + Sockets 
  [2f01184e] + SparseArrays 
  [10745b16] + Statistics 
  [8dfed614] + Test 
  [cf7118a7] + UUIDs 
  [4ec0a83e] + Unicode 
  Building Nemo ────────────→ `~/.julia/packages/Nemo/qzx0m/deps/build.log`
  Building SpecialFunctions → `~/.julia/packages/SpecialFunctions/ne2iw/deps/build.log`
  Building Conda ───────────→ `~/.julia/packages/Conda/kLXeC/deps/build.log`
  Building FFTW ────────────→ `~/.julia/packages/FFTW/loJ3F/deps/build.log`
   Testing TwoFAST
 Resolving package versions...
 Installed Dierckx ─ v0.4.1
  Building Dierckx → `~/.julia/packages/Dierckx/9SY4A/deps/build.log`
    Status `/tmp/jl_4EXmfY/Manifest.toml`
  [c3fe647b] AbstractAlgebra v0.7.1
  [621f4979] AbstractFFTs v0.5.0
  [9e28174c] BinDeps v0.8.10
  [b99e7846] BinaryProvider v0.5.8
  [34da2185] Compat v2.2.0
  [8f4d0f93] Conda v1.3.0
  [39dd38d3] Dierckx v0.4.1
  [7a1cc6ca] FFTW v1.1.0
  [5087d2c0] IncGammaBeta v0.1.0
  [682c06a0] JSON v0.21.0
  [2edaba10] Nemo v0.15.1
  [69de0a69] Parsers v0.3.10
  [189a3867] Reexport v0.2.0
  [276daf66] SpecialFunctions v0.8.0
  [0dd23c3e] TwoFAST v0.1.0
  [30578b45] URIParser v0.4.0
  [81def892] VersionParsing v1.1.3
  [2a0f44e3] Base64  [`@stdlib/Base64`]
  [ade2ca70] Dates  [`@stdlib/Dates`]
  [8bb1440f] DelimitedFiles  [`@stdlib/DelimitedFiles`]
  [8ba89e20] Distributed  [`@stdlib/Distributed`]
  [b77e0a4c] InteractiveUtils  [`@stdlib/InteractiveUtils`]
  [76f85450] LibGit2  [`@stdlib/LibGit2`]
  [8f399da3] Libdl  [`@stdlib/Libdl`]
  [37e2e46d] LinearAlgebra  [`@stdlib/LinearAlgebra`]
  [56ddb016] Logging  [`@stdlib/Logging`]
  [d6f4376e] Markdown  [`@stdlib/Markdown`]
  [a63ad114] Mmap  [`@stdlib/Mmap`]
  [44cfe95a] Pkg  [`@stdlib/Pkg`]
  [de0858da] Printf  [`@stdlib/Printf`]
  [3fa0cd96] REPL  [`@stdlib/REPL`]
  [9a3f8284] Random  [`@stdlib/Random`]
  [ea8e919c] SHA  [`@stdlib/SHA`]
  [9e88b42a] Serialization  [`@stdlib/Serialization`]
  [1a1011a3] SharedArrays  [`@stdlib/SharedArrays`]
  [6462fe0b] Sockets  [`@stdlib/Sockets`]
  [2f01184e] SparseArrays  [`@stdlib/SparseArrays`]
  [10745b16] Statistics  [`@stdlib/Statistics`]
  [8dfed614] Test  [`@stdlib/Test`]
  [cf7118a7] UUIDs  [`@stdlib/UUIDs`]
  [4ec0a83e] Unicode  [`@stdlib/Unicode`]

Welcome to Nemo version 0.15.1

Nemo comes with absolutely no warranty whatsoever


Welcome to Nemo version 0.15.1

Nemo comes with absolutely no warranty whatsoever

Testing ξ(r), ℓ=0, ν=-1 ... passed
Testing ξ(r), ℓ=0, ν=0 ... passed
Testing ξ(r), ℓ=0, ν=1 ... passed
Testing ξ(r), ℓ=0, ν=2 ... passed
Testing ξ(r), ℓ=0, ν=3 ... passed
Testing ξ(r), ℓ=1, ν=0 ... passed
Testing ξ(r), ℓ=1, ν=1 ... passed
Testing ξ(r), ℓ=1, ν=2 ... passed
Testing ξ(r), ℓ=1, ν=3 ... passed
Testing ξ(r), ℓ=2, ν=-1 ... passed
Testing ξ(r), ℓ=2, ν=0 ... passed
Testing ξ(r), ℓ=2, ν=1 ... passed
Testing ξ(r), ℓ=2, ν=2 ... passed
Testing ξ(r), ℓ=2, ν=3 ... passed
Testing ξ(r), ℓ=3, ν=-1 ... passed
Testing ξ(r), ℓ=3, ν=0 ... passed
Testing ξ(r), ℓ=3, ν=1 ... passed
Testing ξ(r), ℓ=3, ν=2 ... passed
Testing ξ(r), ℓ=3, ν=3 ... passed
Testing ξ(r), ℓ=4, ν=-1 ... passed
Testing ξ(r), ℓ=4, ν=0 ... passed
Testing ξ(r), ℓ=4, ν=1 ... passed
Testing ξ(r), ℓ=4, ν=2 ... passed
Testing ξ(r), ℓ=4, ν=3 ... passed
Testing ξ(r) ... passed
Testing ξ′(r) ... passed
Testing ξ″(r) ... passed
Calculating fmax: 
  dlrec    = 4
  dlrecRg1 = -4
  q=1.1, R=1.1:	  3.832885 seconds (1.11 M allocations: 119.130 MiB, 2.72% gc time)

  3.856632 seconds (1.11 M allocations: 119.487 MiB, 2.71% gc time)
ℓ = 1202
Δℓ = 4
ΔℓRg1 = -4
N = 1600
q = 1.1
kmin = 1.0e-5
kmax = 100000.00000000004
χ0 = 0.023029999999999995
RR = RR.tsv
ℓmax = ℓmax.bin
f21 = f21.bin
kmin = 1.0e-5
kmax = 100000.0
dlrec    = 4
dlrecRg1 = -4
Output size: 5741568 bytes = 0.005347251892089844 GiB
Output size: 51264 bytes = 4.774332046508789e-5 GiB
Reading 'out/F21EllCache'...   0.651191 seconds (348.12 k allocations: 17.866 MiB, 18.21% gc time)
ellmax: 1202
lmaxcache: 1202
fell[:,1,1] = Complex{Float64}[3.9583795592771634e-52 - 9.695233714158177e-68im, 3.990121772925759e-52 - 9.772979714843386e-68im]
ell 1202, elapsed: 0.0029039382934570312
ell 1201, elapsed: 2.0629680156707764
ell 1200, elapsed: 0.0005528926849365234
ell 1199, elapsed: 0.00047278404235839844
ell 1198, elapsed: 0.00046515464782714844
ell 1002, elapsed: 0.009865045547485352
ell 1001, elapsed: 0.0004680156707763672
ell 1000, elapsed: 0.0004589557647705078
ell 999, elapsed: 0.0006160736083984375
ell 998, elapsed: 0.0004889965057373047
ell 902, elapsed: 0.005163908004760742
ell 901, elapsed: 0.0005249977111816406
ell 900, elapsed: 0.00045800209045410156
ell 899, elapsed: 0.0004608631134033203
ell 898, elapsed: 0.00047016143798828125
ell 802, elapsed: 0.005157947540283203
ell 801, elapsed: 0.0005240440368652344
ell 800, elapsed: 0.0004589557647705078
ell 799, elapsed: 0.0005390644073486328
ell 798, elapsed: 0.0005540847778320312
ell 702, elapsed: 0.004992961883544922
ell 701, elapsed: 0.0004780292510986328
ell 700, elapsed: 0.00045180320739746094
ell 699, elapsed: 0.0005869865417480469
ell 698, elapsed: 0.00045609474182128906
ell 602, elapsed: 0.005074024200439453
ell 601, elapsed: 0.0005450248718261719
ell 600, elapsed: 0.0005369186401367188
ell 599, elapsed: 0.0004780292510986328
ell 598, elapsed: 0.00047397613525390625
ell 502, elapsed: 0.0050640106201171875
ell 501, elapsed: 0.0026040077209472656
ell 500, elapsed: 0.00048089027404785156
ell 499, elapsed: 0.0004780292510986328
ell 498, elapsed: 0.00045490264892578125
ell 402, elapsed: 0.005153179168701172
ell 401, elapsed: 0.0005459785461425781
ell 400, elapsed: 0.0005629062652587891
ell 399, elapsed: 0.0005338191986083984
ell 398, elapsed: 0.0005331039428710938
ell 302, elapsed: 0.005007028579711914
ell 301, elapsed: 0.0005218982696533203
ell 300, elapsed: 0.0005211830139160156
ell 299, elapsed: 0.0005240440368652344
ell 298, elapsed: 0.000537872314453125
ell 202, elapsed: 0.0051097869873046875
ell 201, elapsed: 0.0005419254302978516
ell 200, elapsed: 0.0005190372467041016
ell 199, elapsed: 0.000514984130859375
ell 198, elapsed: 0.0005211830139160156
ell 152, elapsed: 0.0026929378509521484
ell 151, elapsed: 0.0005309581756591797
ell 150, elapsed: 0.0005030632019042969
ell 149, elapsed: 0.0005130767822265625
ell 148, elapsed: 0.0005970001220703125
ell 127, elapsed: 0.001592874526977539
ell 126, elapsed: 0.0005509853363037109
ell 125, elapsed: 0.0005199909210205078
ell 124, elapsed: 0.0005309581756591797
ell 123, elapsed: 0.0005118846893310547
ell 114, elapsed: 0.0008661746978759766
ell 113, elapsed: 0.00043392181396484375
ell 112, elapsed: 0.00043487548828125
ell 111, elapsed: 0.00044798851013183594
ell 110, elapsed: 0.00043487548828125
ell 102, elapsed: 0.0009260177612304688
ell 101, elapsed: 0.000431060791015625
ell 100, elapsed: 0.000431060791015625
ell 99, elapsed: 0.00043201446533203125
ell 98, elapsed: 0.00043392181396484375
ell 97, elapsed: 0.0004980564117431641
ell 96, elapsed: 0.0006151199340820312
ell 95, elapsed: 0.0005388259887695312
ell 94, elapsed: 0.0005750656127929688
ell 93, elapsed: 0.0004830360412597656
ell 92, elapsed: 0.0005691051483154297
ell 91, elapsed: 0.0004868507385253906
ell 90, elapsed: 0.0005729198455810547
ell 89, elapsed: 0.0004801750183105469
ell 88, elapsed: 0.0005710124969482422
ell 87, elapsed: 0.00047898292541503906
ell 86, elapsed: 0.0005650520324707031
ell 85, elapsed: 0.00046896934509277344
ell 84, elapsed: 0.0005838871002197266
ell 83, elapsed: 0.0004630088806152344
ell 82, elapsed: 0.0005538463592529297
ell 81, elapsed: 0.0004730224609375
ell 80, elapsed: 0.0005590915679931641
ell 79, elapsed: 0.00047516822814941406
ell 78, elapsed: 0.0005850791931152344
ell 77, elapsed: 0.0004980564117431641
ell 76, elapsed: 0.0005588531494140625
ell 75, elapsed: 0.00047707557678222656
ell 74, elapsed: 0.0005590915679931641
ell 73, elapsed: 0.0004811286926269531
ell 72, elapsed: 0.0005609989166259766
ell 71, elapsed: 0.00047206878662109375
ell 70, elapsed: 0.0005829334259033203
ell 69, elapsed: 0.00047898292541503906
ell 68, elapsed: 0.0005550384521484375
ell 67, elapsed: 0.00046896934509277344
ell 66, elapsed: 0.0005571842193603516
ell 65, elapsed: 0.0004699230194091797
ell 64, elapsed: 0.0005519390106201172
ell 63, elapsed: 0.00047898292541503906
ell 62, elapsed: 0.0005528926849365234
ell 61, elapsed: 0.00047278404235839844
ell 60, elapsed: 0.0005581378936767578
ell 59, elapsed: 0.0004680156707763672
ell 58, elapsed: 0.0005679130554199219
ell 57, elapsed: 0.0004749298095703125
ell 56, elapsed: 0.0005719661712646484
ell 55, elapsed: 0.00047397613525390625
ell 54, elapsed: 0.0005619525909423828
ell 53, elapsed: 0.0004780292510986328
ell 52, elapsed: 0.0005629062652587891
ell 51, elapsed: 0.0004799365997314453
ell 50, elapsed: 0.0005600452423095703
ell 49, elapsed: 0.0004851818084716797
ell 48, elapsed: 0.0005648136138916016
ell 47, elapsed: 0.0004761219024658203
ell 46, elapsed: 0.0005638599395751953
ell 45, elapsed: 0.0004761219024658203
ell 44, elapsed: 0.0005559921264648438
ell 43, elapsed: 0.00047397613525390625
ell 42, elapsed: 0.0005719661712646484
ell 41, elapsed: 0.0004699230194091797
ell 40, elapsed: 0.0005609989166259766
ell 39, elapsed: 0.0004608631134033203
ell 38, elapsed: 0.0005500316619873047
ell 37, elapsed: 0.0004639625549316406
ell 36, elapsed: 0.0005559921264648438
ell 35, elapsed: 0.00047588348388671875
ell 34, elapsed: 0.0005562305450439453
ell 33, elapsed: 0.00046706199645996094
ell 32, elapsed: 0.0005509853363037109
ell 31, elapsed: 0.00046706199645996094
ell 30, elapsed: 0.0005548000335693359
ell 29, elapsed: 0.0004811286926269531
ell 28, elapsed: 0.0005660057067871094
ell 27, elapsed: 0.00048613548278808594
ell 26, elapsed: 0.0005679130554199219
ell 25, elapsed: 0.00047206878662109375
ell 24, elapsed: 0.0005559921264648438
ell 23, elapsed: 0.00047206878662109375
ell 22, elapsed: 0.000579833984375
ell 21, elapsed: 0.0004730224609375
ell 20, elapsed: 0.0005500316619873047
ell 19, elapsed: 0.0004639625549316406
ell 18, elapsed: 0.0005519390106201172
ell 17, elapsed: 0.0004649162292480469
ell 16, elapsed: 0.00055694580078125
ell 15, elapsed: 0.0004820823669433594
ell 14, elapsed: 0.000553131103515625
ell 13, elapsed: 0.00047397613525390625
ell 12, elapsed: 0.0005598068237304688
ell 11, elapsed: 0.00047206878662109375
ell 10, elapsed: 0.0005590915679931641
ell 9, elapsed: 0.0004718303680419922
ell 8, elapsed: 0.0006320476531982422
ell 7, elapsed: 0.0005221366882324219
ell 6, elapsed: 0.0006079673767089844
ell 5, elapsed: 0.0005350112915039062
ell 4, elapsed: 0.0005748271942138672
ell 3, elapsed: 0.00047898292541503906
ell 2, elapsed: 0.0005521774291992188
ell 1, elapsed: 0.0004899501800537109
ell 0, elapsed: 0.0005600452423095703
  2.321533 seconds (1.51 M allocations: 74.525 MiB, 0.91% gc time)
elapsed: 0.0006120204925537109
step:          0.680621 sec (478.154 k allocations: 23.745 MB, 0.0% gc time)
swapping:      0.000594 sec (0 allocations: 0 byte, 0.0% gc time)
calc_Mellell!: 0.503644 sec (371.703 k allocations: 18.416 MB, 0.0% gc time)
  t0 :  0.0 sec (0 allocations: 0 byte, 0.0% gc time)
  tm2 : 0.0 sec (0 allocations: 0 byte, 0.0% gc time)
  tm2s: 0.0 sec (0 allocations: 0 byte, 0.0% gc time)
  tm4 : 0.0 sec (0 allocations: 0 byte, 0.0% gc time)
  tp2 : 0.0 sec (0 allocations: 0 byte, 0.0% gc time)
  tp2s: 0.0 sec (0 allocations: 0 byte, 0.0% gc time)
  tp4 : 0.0 sec (0 allocations: 0 byte, 0.0% gc time)
calc_wtdll!:   0.997119 sec (571.762 k allocations: 28.059 MB, 2.13% gc time)
calc_wljj!:    0.003427 sec (6 allocations: 96 byte, 0.0% gc time)
mult_prefac!:  0.0 sec (0 allocations: 0 byte, 0.0% gc time)
convert:       0.0 sec (0 allocations: 0 byte, 0.0% gc time)
write:         0.005467 sec (0 allocations: 0 byte, 0.0% gc time)
test_rand_2f1: 0.0 sec (0 allocations: 0 byte, 0.0% gc time)
Closing outfile out/Ml21-cache.bin...   0.000128 seconds
  1.024705 seconds (8.63 k allocations: 420.063 KiB)
make_phi():   0.013016 seconds (8.20 k allocations: 238.016 KiB)
  0.229450 seconds (121.94 k allocations: 5.915 MiB)
tskip:       3.1e-5 sec (0 allocations: 0 byte, 0.0% gc time)
tread:       0.003269 sec (20 allocations: 2.188 KB, 0.0% gc time)
tmultphi:    0.031619 sec (26.146 k allocations: 1.344 MB, 0.0% gc time)
tbrfft:      0.006327 sec (896 allocations: 42.0 KB, 0.0% gc time)
tmultprefac: 0.004352 sec (0 allocations: 0 byte, 0.0% gc time)
toutfunc:    0.183696 sec (94.224 k allocations: 4.458 MB, 0.0% gc time)
Testing R=1.1 ... passed
Calculating fmax: 
  dlrec    = 4
  dlrecRg1 = -4
  q=1.1, R=1.0:	  0.014802 seconds (4.81 k allocations: 3.569 MiB)

  0.017019 seconds (4.87 k allocations: 3.601 MiB)
ℓ = 1202
Δℓ = 4
ΔℓRg1 = -4
N = 1600
q = 1.1
kmin = 1.0e-5
kmax = 100000.00000000004
χ0 = 0.023029999999999995
RR = RR.tsv
ℓmax = ℓmax.bin
f21 = f21.bin
kmin = 1.0e-5
kmax = 100000.0
dlrec    = 4
dlrecRg1 = -4
Output size: 61465536 bytes = 0.05724424123764038 GiB
Output size: 51264 bytes = 4.774332046508789e-5 GiB
Reading 'out/F21EllCache'...   0.000854 seconds (271 allocations: 84.719 KiB)
ellmax: 1202
lmaxcache: 1202
fell[:,1,1] = Complex{Float64}[809.6031528389767 - 1.9829558194077161e-13im, 0.0 + 0.0im]
ell 1202, elapsed: 3.4809112548828125e-5
ell 1201, elapsed: 0.014564990997314453
ell 1200, elapsed: 0.00041604042053222656
ell 1199, elapsed: 0.0003838539123535156
ell 1198, elapsed: 0.0003809928894042969
ell 1197, elapsed: 0.00047898292541503906
ell 1196, elapsed: 0.0004210472106933594
ell 1195, elapsed: 0.0004868507385253906
ell 1194, elapsed: 0.0004551410675048828
ell 1193, elapsed: 0.0005280971527099609
ell 1192, elapsed: 0.0006020069122314453
ell 1191, elapsed: 0.0005619525909423828
ell 1190, elapsed: 0.0004229545593261719
ell 1189, elapsed: 0.0005578994750976562
ell 1188, elapsed: 0.0006349086761474609
ell 1187, elapsed: 0.0005519390106201172
ell 1186, elapsed: 0.0004589557647705078
ell 1185, elapsed: 0.0006721019744873047
ell 1184, elapsed: 0.0003910064697265625
ell 1183, elapsed: 0.0004780292510986328
ell 1182, elapsed: 0.00037598609924316406
ell 1181, elapsed: 0.0004761219024658203
ell 1180, elapsed: 0.00037407875061035156
ell 1179, elapsed: 0.00046706199645996094
ell 1178, elapsed: 0.0003898143768310547
ell 1177, elapsed: 0.0004010200500488281
ell 1176, elapsed: 0.00028395652770996094
ell 1175, elapsed: 0.00033283233642578125
ell 1174, elapsed: 0.0002560615539550781
ell 1173, elapsed: 0.0003139972686767578
ell 1172, elapsed: 0.0002529621124267578
ell 1171, elapsed: 0.00031304359436035156
ell 1170, elapsed: 0.0002551078796386719
ell 1169, elapsed: 0.00031304359436035156
ell 1168, elapsed: 0.00025200843811035156
ell 1167, elapsed: 0.00031185150146484375
ell 1166, elapsed: 0.0002658367156982422
ell 1165, elapsed: 0.0003249645233154297
ell 1164, elapsed: 0.00025391578674316406
ell 1163, elapsed: 0.0003120899200439453
ell 1162, elapsed: 0.0002510547637939453
ell 1161, elapsed: 0.00031495094299316406
ell 1160, elapsed: 0.0002529621124267578
ell 1159, elapsed: 0.0003120899200439453
ell 1158, elapsed: 0.00025391578674316406
ell 1157, elapsed: 0.000308990478515625
ell 1156, elapsed: 0.0002541542053222656
ell 1155, elapsed: 0.00034308433532714844
ell 1154, elapsed: 0.00025200843811035156
ell 1153, elapsed: 0.0003559589385986328
ell 1152, elapsed: 0.0002830028533935547
ell 1151, elapsed: 0.0003368854522705078
ell 1150, elapsed: 0.0002779960632324219
ell 1149, elapsed: 0.0003268718719482422
ell 1148, elapsed: 0.00026988983154296875
ell 1147, elapsed: 0.00032019615173339844
ell 1146, elapsed: 0.0002639293670654297
ell 1145, elapsed: 0.0003211498260498047
ell 1144, elapsed: 0.0003108978271484375
ell 1143, elapsed: 0.00032782554626464844
ell 1142, elapsed: 0.0002620220184326172
ell 1141, elapsed: 0.0003211498260498047
ell 1140, elapsed: 0.0002598762512207031
ell 1139, elapsed: 0.0003211498260498047
ell 1138, elapsed: 0.00026297569274902344
ell 1137, elapsed: 0.0003230571746826172
ell 1136, elapsed: 0.00026297569274902344
ell 1135, elapsed: 0.0003180503845214844
ell 1134, elapsed: 0.0002617835998535156
ell 1133, elapsed: 0.0003409385681152344
ell 1132, elapsed: 0.00024819374084472656
ell 1131, elapsed: 0.0003020763397216797
ell 1130, elapsed: 0.00024390220642089844
ell 1129, elapsed: 0.0002968311309814453
ell 1128, elapsed: 0.00024390220642089844
ell 1127, elapsed: 0.0002989768981933594
ell 1126, elapsed: 0.00026297569274902344
ell 1125, elapsed: 0.0003261566162109375
ell 1124, elapsed: 0.00025010108947753906
ell 1123, elapsed: 0.00031685829162597656
ell 1122, elapsed: 0.0002529621124267578
ell 1121, elapsed: 0.0003190040588378906
ell 1120, elapsed: 0.0002639293670654297
ell 1119, elapsed: 0.0003108978271484375
ell 1118, elapsed: 0.0002548694610595703
ell 1117, elapsed: 0.0003139972686767578
ell 1116, elapsed: 0.0002651214599609375
ell 1115, elapsed: 0.0003199577331542969
ell 1114, elapsed: 0.00025391578674316406
ell 1113, elapsed: 0.00032806396484375
ell 1112, elapsed: 0.0002570152282714844
ell 1111, elapsed: 0.00032901763916015625
ell 1110, elapsed: 0.00026106834411621094
ell 1109, elapsed: 0.00034499168395996094
ell 1108, elapsed: 0.0002579689025878906
ell 1107, elapsed: 0.0004229545593261719
ell 1106, elapsed: 0.0003190040588378906
ell 1105, elapsed: 0.0004019737243652344
ell 1104, elapsed: 0.0002760887145996094
ell 1103, elapsed: 0.0004050731658935547
ell 1102, elapsed: 0.00032401084899902344
ell 1101, elapsed: 0.0004630088806152344
ell 1100, elapsed: 0.0002598762512207031
ell 1099, elapsed: 0.00034999847412109375
ell 1098, elapsed: 0.0002548694610595703
ell 1097, elapsed: 0.0003120899200439453
ell 1096, elapsed: 0.00026702880859375
ell 1095, elapsed: 0.0004551410675048828
ell 1094, elapsed: 0.0003879070281982422
ell 1093, elapsed: 0.0004410743713378906
ell 1092, elapsed: 0.0002739429473876953
ell 1091, elapsed: 0.00043487548828125
ell 1090, elapsed: 0.0002639293670654297
ell 1089, elapsed: 0.00034809112548828125
ell 1088, elapsed: 0.0002589225769042969
ell 1087, elapsed: 0.0003180503845214844
ell 1086, elapsed: 0.0002579689025878906
ell 1085, elapsed: 0.0003650188446044922
ell 1084, elapsed: 0.00037598609924316406
ell 1083, elapsed: 0.0004699230194091797
ell 1082, elapsed: 0.0003199577331542969
ell 1081, elapsed: 0.00047707557678222656
ell 1080, elapsed: 0.0003769397735595703
ell 1079, elapsed: 0.00047707557678222656
ell 1078, elapsed: 0.00037288665771484375
ell 1077, elapsed: 0.0004601478576660156
ell 1076, elapsed: 0.00037407875061035156
ell 1075, elapsed: 0.0004649162292480469
ell 1074, elapsed: 0.0003750324249267578
ell 1073, elapsed: 0.0006430149078369141
ell 1072, elapsed: 0.0004639625549316406
ell 1071, elapsed: 0.0005290508270263672
ell 1070, elapsed: 0.0004229545593261719
ell 1069, elapsed: 0.0005171298980712891
ell 1068, elapsed: 0.0004169940948486328
ell 1067, elapsed: 0.0005280971527099609
ell 1066, elapsed: 0.0004119873046875
ell 1065, elapsed: 0.0004990100860595703
ell 1064, elapsed: 0.00040793418884277344
ell 1063, elapsed: 0.0004839897155761719
ell 1062, elapsed: 0.0004620552062988281
ell 1061, elapsed: 0.0005350112915039062
ell 1060, elapsed: 0.0004730224609375
ell 1059, elapsed: 0.0005128383636474609
ell 1058, elapsed: 0.0004849433898925781
ell 1057, elapsed: 0.0005588531494140625
ell 1056, elapsed: 0.0004131793975830078
ell 1055, elapsed: 0.0005769729614257812
ell 1054, elapsed: 0.000370025634765625
ell 1053, elapsed: 0.00035691261291503906
ell 1052, elapsed: 0.0002760887145996094
ell 1051, elapsed: 0.00033211708068847656
ell 1050, elapsed: 0.0002741813659667969
ell 1049, elapsed: 0.0003361701965332031
ell 1048, elapsed: 0.0002770423889160156
ell 1047, elapsed: 0.0003380775451660156
ell 1046, elapsed: 0.0003228187561035156
ell 1045, elapsed: 0.0006778240203857422
ell 1044, elapsed: 0.0004658699035644531
ell 1043, elapsed: 0.00034499168395996094
ell 1042, elapsed: 0.0002701282501220703
ell 1041, elapsed: 0.0003228187561035156
ell 1040, elapsed: 0.00026798248291015625
ell 1039, elapsed: 0.00032806396484375
ell 1038, elapsed: 0.00026798248291015625
ell 1037, elapsed: 0.0003509521484375
ell 1036, elapsed: 0.0002799034118652344
ell 1035, elapsed: 0.0003509521484375
ell 1034, elapsed: 0.0002911090850830078
ell 1033, elapsed: 0.00035309791564941406
ell 1032, elapsed: 0.0002830028533935547
ell 1031, elapsed: 0.0003371238708496094
ell 1030, elapsed: 0.0002827644348144531
ell 1029, elapsed: 0.0003399848937988281
ell 1028, elapsed: 0.0002770423889160156
ell 1027, elapsed: 0.00033783912658691406
ell 1026, elapsed: 0.0003349781036376953
ell 1025, elapsed: 0.0003559589385986328
ell 1024, elapsed: 0.0002930164337158203
ell 1023, elapsed: 0.00035881996154785156
ell 1022, elapsed: 0.0002639293670654297
ell 1021, elapsed: 0.0003180503845214844
ell 1020, elapsed: 0.00025916099548339844
ell 1019, elapsed: 0.00031495094299316406
ell 1018, elapsed: 0.0002570152282714844
ell 1017, elapsed: 0.0005819797515869141
ell 1016, elapsed: 0.0004661083221435547
ell 1015, elapsed: 0.000804901123046875
ell 1014, elapsed: 0.0005860328674316406
ell 1013, elapsed: 0.0007171630859375
ell 1012, elapsed: 0.0006670951843261719
ell 1011, elapsed: 0.0005259513854980469
ell 1010, elapsed: 0.0004200935363769531
ell 1009, elapsed: 0.0005080699920654297
ell 1008, elapsed: 0.0004639625549316406
ell 1007, elapsed: 0.0005381107330322266
ell 1006, elapsed: 0.0003981590270996094
ell 1005, elapsed: 0.00048089027404785156
ell 1004, elapsed: 0.00039696693420410156
ell 1003, elapsed: 0.00047898292541503906
ell 1002, elapsed: 0.0006239414215087891
ell 1001, elapsed: 0.0005109310150146484
ell 1000, elapsed: 0.00039505958557128906
ell 999, elapsed: 0.0004749298095703125
ell 998, elapsed: 0.0003981590270996094
ell 997, elapsed: 0.0005300045013427734
ell 996, elapsed: 0.0004401206970214844
ell 995, elapsed: 0.0005471706390380859
ell 994, elapsed: 0.0004458427429199219
ell 993, elapsed: 0.0005500316619873047
ell 992, elapsed: 0.0004630088806152344
ell 991, elapsed: 0.0005710124969482422
ell 990, elapsed: 0.00043892860412597656
ell 989, elapsed: 0.0005249977111816406
ell 988, elapsed: 0.00041294097900390625
ell 987, elapsed: 0.0007250308990478516
ell 986, elapsed: 0.0006449222564697266
ell 985, elapsed: 0.0007340908050537109
ell 984, elapsed: 0.0006010532379150391
ell 983, elapsed: 0.0007560253143310547
ell 982, elapsed: 0.0006239414215087891
ell 981, elapsed: 0.0007898807525634766
ell 980, elapsed: 0.0005199909210205078
ell 979, elapsed: 0.0007269382476806641
ell 978, elapsed: 0.0006468296051025391
ell 977, elapsed: 0.0007851123809814453
ell 976, elapsed: 0.0004520416259765625
ell 975, elapsed: 0.0005471706390380859
ell 974, elapsed: 0.00043702125549316406
ell 973, elapsed: 0.0005249977111816406
ell 972, elapsed: 0.00042700767517089844
ell 971, elapsed: 0.0005259513854980469
ell 970, elapsed: 0.0004589557647705078
ell 969, elapsed: 0.0005199909210205078
ell 968, elapsed: 0.0006530284881591797
ell 967, elapsed: 0.0007548332214355469
ell 966, elapsed: 0.00045800209045410156
ell 965, elapsed: 0.0007648468017578125
ell 964, elapsed: 0.0006289482116699219
ell 963, elapsed: 0.0007798671722412109
ell 962, elapsed: 0.00067901611328125
ell 961, elapsed: 0.0007839202880859375
ell 960, elapsed: 0.0005898475646972656
ell 959, elapsed: 0.0005640983581542969
ell 958, elapsed: 0.00044989585876464844
ell 957, elapsed: 0.0005490779876708984
ell 956, elapsed: 0.00043201446533203125
ell 955, elapsed: 0.0005440711975097656
ell 954, elapsed: 0.000453948974609375
ell 953, elapsed: 0.000576019287109375
ell 952, elapsed: 0.00045680999755859375
ell 951, elapsed: 0.0005559921264648438
ell 950, elapsed: 0.0006098747253417969
ell 949, elapsed: 0.0010180473327636719
ell 948, elapsed: 0.0006029605865478516
ell 947, elapsed: 0.0007779598236083984
ell 946, elapsed: 0.0006430149078369141
ell 945, elapsed: 0.0007710456848144531
ell 944, elapsed: 0.0005979537963867188
ell 943, elapsed: 0.0007479190826416016
ell 942, elapsed: 0.00045490264892578125
ell 941, elapsed: 0.0007398128509521484
ell 940, elapsed: 0.0004200935363769531
ell 939, elapsed: 0.0005259513854980469
ell 938, elapsed: 0.0006389617919921875
ell 937, elapsed: 0.0005230903625488281
ell 936, elapsed: 0.0006108283996582031
ell 935, elapsed: 0.0007259845733642578
ell 934, elapsed: 0.00041985511779785156
ell 933, elapsed: 0.0004570484161376953
ell 932, elapsed: 0.0003788471221923828
ell 931, elapsed: 0.0006570816040039062
ell 930, elapsed: 0.0004858970642089844
ell 929, elapsed: 0.0004630088806152344
ell 928, elapsed: 0.0005469322204589844
ell 927, elapsed: 0.0007460117340087891
ell 926, elapsed: 0.0005710124969482422
ell 925, elapsed: 0.0005278587341308594
ell 924, elapsed: 0.0005748271942138672
ell 923, elapsed: 0.0005271434783935547
ell 922, elapsed: 0.00043010711669921875
ell 921, elapsed: 0.0007488727569580078
ell 920, elapsed: 0.0006058216094970703
ell 919, elapsed: 0.0006921291351318359
ell 918, elapsed: 0.0006330013275146484
ell 917, elapsed: 0.0005440711975097656
ell 916, elapsed: 0.0006299018859863281
ell 915, elapsed: 0.0007510185241699219
ell 914, elapsed: 0.0004489421844482422
ell 913, elapsed: 0.0007238388061523438
ell 912, elapsed: 0.0006361007690429688
ell 911, elapsed: 0.0007789134979248047
ell 910, elapsed: 0.0006568431854248047
ell 909, elapsed: 0.0007450580596923828
ell 908, elapsed: 0.0006330013275146484
ell 907, elapsed: 0.0007760524749755859
ell 906, elapsed: 0.0006291866302490234
ell 905, elapsed: 0.0005550384521484375
ell 904, elapsed: 0.00045299530029296875
ell 903, elapsed: 0.0007381439208984375
ell 902, elapsed: 0.0006539821624755859
ell 901, elapsed: 0.0007381439208984375
ell 900, elapsed: 0.0005428791046142578
ell 899, elapsed: 0.0007839202880859375
ell 898, elapsed: 0.0006041526794433594
ell 897, elapsed: 0.0005681514739990234
ell 896, elapsed: 0.0006449222564697266
ell 895, elapsed: 0.0007941722869873047
ell 894, elapsed: 0.0006620883941650391
ell 893, elapsed: 0.0007910728454589844
ell 892, elapsed: 0.0004661083221435547
ell 891, elapsed: 0.0005538463592529297
ell 890, elapsed: 0.00044608116149902344
ell 889, elapsed: 0.0006840229034423828
ell 888, elapsed: 0.0005838871002197266
ell 887, elapsed: 0.0005559921264648438
ell 886, elapsed: 0.0004470348358154297
ell 885, elapsed: 0.0005328655242919922
ell 884, elapsed: 0.00039696693420410156
ell 883, elapsed: 0.0005640983581542969
ell 882, elapsed: 0.00045299530029296875
ell 881, elapsed: 0.000537872314453125
ell 880, elapsed: 0.00045299530029296875
ell 879, elapsed: 0.0007159709930419922
ell 878, elapsed: 0.0004520416259765625
ell 877, elapsed: 0.0005548000335693359
ell 876, elapsed: 0.0004520416259765625
ell 875, elapsed: 0.0005509853363037109
ell 874, elapsed: 0.0007259845733642578
ell 873, elapsed: 0.0007109642028808594
ell 872, elapsed: 0.0004658699035644531
ell 871, elapsed: 0.0005409717559814453
ell 870, elapsed: 0.0006489753723144531
ell 869, elapsed: 0.0005550384521484375
ell 868, elapsed: 0.0004420280456542969
ell 867, elapsed: 0.0005469322204589844
ell 866, elapsed: 0.0004639625549316406
ell 865, elapsed: 0.0005440711975097656
ell 864, elapsed: 0.0004470348358154297
ell 863, elapsed: 0.0005428791046142578
ell 862, elapsed: 0.00044417381286621094
ell 861, elapsed: 0.0005409717559814453
ell 860, elapsed: 0.00044608116149902344
ell 859, elapsed: 0.0007128715515136719
ell 858, elapsed: 0.0005481243133544922
ell 857, elapsed: 0.0005440711975097656
ell 856, elapsed: 0.0004379749298095703
ell 855, elapsed: 0.0005369186401367188
ell 854, elapsed: 0.0004379749298095703
ell 853, elapsed: 0.0005419254302978516
ell 852, elapsed: 0.00044918060302734375
ell 851, elapsed: 0.000492095947265625
ell 850, elapsed: 0.0003879070281982422
ell 849, elapsed: 0.0005400180816650391
ell 848, elapsed: 0.0004000663757324219
ell 847, elapsed: 0.0004820823669433594
ell 846, elapsed: 0.0003859996795654297
ell 845, elapsed: 0.00048613548278808594
ell 844, elapsed: 0.0003821849822998047
ell 843, elapsed: 0.00046706199645996094
ell 842, elapsed: 0.0004570484161376953
ell 841, elapsed: 0.0006010532379150391
ell 840, elapsed: 0.0003840923309326172
ell 839, elapsed: 0.00047707557678222656
ell 838, elapsed: 0.0005638599395751953
ell 837, elapsed: 0.0005588531494140625
ell 836, elapsed: 0.0004439353942871094
ell 835, elapsed: 0.00057220458984375
ell 834, elapsed: 0.00044608116149902344
ell 833, elapsed: 0.0007250308990478516
ell 832, elapsed: 0.0005581378936767578
ell 831, elapsed: 0.00074005126953125
ell 830, elapsed: 0.00045800209045410156
ell 829, elapsed: 0.0005428791046142578
ell 828, elapsed: 0.00044989585876464844
ell 827, elapsed: 0.0005419254302978516
ell 826, elapsed: 0.0004489421844482422
ell 825, elapsed: 0.0005497932434082031
ell 824, elapsed: 0.0004630088806152344
ell 823, elapsed: 0.0005478858947753906
ell 822, elapsed: 0.00044918060302734375
ell 821, elapsed: 0.0005459785461425781
ell 820, elapsed: 0.0004630088806152344
ell 819, elapsed: 0.0005481243133544922
ell 818, elapsed: 0.00045990943908691406
ell 817, elapsed: 0.0005481243133544922
ell 816, elapsed: 0.0004410743713378906
ell 815, elapsed: 0.0005350112915039062
ell 814, elapsed: 0.0003979206085205078
ell 813, elapsed: 0.0004718303680419922
ell 812, elapsed: 0.0005269050598144531
ell 811, elapsed: 0.0005397796630859375
ell 810, elapsed: 0.0005519390106201172
ell 809, elapsed: 0.0005409717559814453
ell 808, elapsed: 0.000453948974609375
ell 807, elapsed: 0.0007038116455078125
ell 806, elapsed: 0.00047206878662109375
ell 805, elapsed: 0.0007269382476806641
ell 804, elapsed: 0.0005979537963867188
ell 803, elapsed: 0.0005390644073486328
ell 802, elapsed: 0.00045013427734375
ell 801, elapsed: 0.0005290508270263672
ell 800, elapsed: 0.00043892860412597656
ell 799, elapsed: 0.0005259513854980469
ell 798, elapsed: 0.0004410743713378906
ell 797, elapsed: 0.0005559921264648438
ell 796, elapsed: 0.00045299530029296875
ell 795, elapsed: 0.0005350112915039062
ell 794, elapsed: 0.00045299530029296875
ell 793, elapsed: 0.0005359649658203125
ell 792, elapsed: 0.00041604042053222656
ell 791, elapsed: 0.00047898292541503906
ell 790, elapsed: 0.0003771781921386719
ell 789, elapsed: 0.0006680488586425781
ell 788, elapsed: 0.0004200935363769531
ell 787, elapsed: 0.0006811618804931641
ell 786, elapsed: 0.0004191398620605469
ell 785, elapsed: 0.0005159378051757812
ell 784, elapsed: 0.0004448890686035156
ell 783, elapsed: 0.0005419254302978516
ell 782, elapsed: 0.0006511211395263672
ell 781, elapsed: 0.0006959438323974609
ell 780, elapsed: 0.0004367828369140625
ell 779, elapsed: 0.0005309581756591797
ell 778, elapsed: 0.0004329681396484375
ell 777, elapsed: 0.0005249977111816406
ell 776, elapsed: 0.00043201446533203125
ell 775, elapsed: 0.00074005126953125
ell 774, elapsed: 0.0006320476531982422
ell 773, elapsed: 0.0007197856903076172
ell 772, elapsed: 0.0006389617919921875
ell 771, elapsed: 0.0007619857788085938
ell 770, elapsed: 0.0006659030914306641
ell 769, elapsed: 0.0007719993591308594
ell 768, elapsed: 0.00046515464782714844
ell 767, elapsed: 0.0007541179656982422
ell 766, elapsed: 0.0006721019744873047
ell 765, elapsed: 0.0005469322204589844
ell 764, elapsed: 0.0004382133483886719
ell 763, elapsed: 0.0006601810455322266
ell 762, elapsed: 0.0006399154663085938
ell 761, elapsed: 0.015774011611938477
ell 760, elapsed: 0.00047707557678222656
ell 759, elapsed: 0.00078582763671875
ell 758, elapsed: 0.0005600452423095703
ell 757, elapsed: 0.0006308555603027344
ell 756, elapsed: 0.00043392181396484375
ell 755, elapsed: 0.0004792213439941406
ell 754, elapsed: 0.0005810260772705078
ell 753, elapsed: 0.0007541179656982422
ell 752, elapsed: 0.0004048347473144531
ell 751, elapsed: 0.0004639625549316406
ell 750, elapsed: 0.00047397613525390625
ell 749, elapsed: 0.0006110668182373047
ell 748, elapsed: 0.0003809928894042969
ell 747, elapsed: 0.0004570484161376953
ell 746, elapsed: 0.0005290508270263672
ell 745, elapsed: 0.0005970001220703125
ell 744, elapsed: 0.0005359649658203125
ell 743, elapsed: 0.0005548000335693359
ell 742, elapsed: 0.0005340576171875
ell 741, elapsed: 0.000720977783203125
ell 740, elapsed: 0.00040602684020996094
ell 739, elapsed: 0.0004608631134033203
ell 738, elapsed: 0.00039196014404296875
ell 737, elapsed: 0.0004658699035644531
ell 736, elapsed: 0.0005159378051757812
ell 735, elapsed: 0.0005199909210205078
ell 734, elapsed: 0.0004971027374267578
ell 733, elapsed: 0.0005669593811035156
ell 732, elapsed: 0.0005261898040771484
ell 731, elapsed: 0.0005819797515869141
ell 730, elapsed: 0.0003688335418701172
ell 729, elapsed: 0.00045013427734375
ell 728, elapsed: 0.00037789344787597656
ell 727, elapsed: 0.00045299530029296875
ell 726, elapsed: 0.0004858970642089844
ell 725, elapsed: 0.0005779266357421875
ell 724, elapsed: 0.0003879070281982422
ell 723, elapsed: 0.0004520416259765625
ell 722, elapsed: 0.0003750324249267578
ell 721, elapsed: 0.0004649162292480469
ell 720, elapsed: 0.0003859996795654297
ell 719, elapsed: 0.0006439685821533203
ell 718, elapsed: 0.0003941059112548828
ell 717, elapsed: 0.00043511390686035156
ell 716, elapsed: 0.0004608631134033203
ell 715, elapsed: 0.0006918907165527344
ell 714, elapsed: 0.0004930496215820312
ell 713, elapsed: 0.0004780292510986328
ell 712, elapsed: 0.0005259513854980469
ell 711, elapsed: 0.0005390644073486328
ell 710, elapsed: 0.0005290508270263672
ell 709, elapsed: 0.0006048679351806641
ell 708, elapsed: 0.0005540847778320312
ell 707, elapsed: 0.0006389617919921875
ell 706, elapsed: 0.0005171298980712891
ell 705, elapsed: 0.0005860328674316406
ell 704, elapsed: 0.0004589557647705078
ell 703, elapsed: 0.0006139278411865234
ell 702, elapsed: 0.0003829002380371094
ell 701, elapsed: 0.0005948543548583984
ell 700, elapsed: 0.00039887428283691406
ell 699, elapsed: 0.0004208087921142578
ell 698, elapsed: 0.0003490447998046875
ell 697, elapsed: 0.0004379749298095703
ell 696, elapsed: 0.000347137451171875
ell 695, elapsed: 0.0004189014434814453
ell 694, elapsed: 0.00035500526428222656
ell 693, elapsed: 0.0004229545593261719
ell 692, elapsed: 0.00034999847412109375
ell 691, elapsed: 0.0004229545593261719
ell 690, elapsed: 0.00034809112548828125
ell 689, elapsed: 0.00042510032653808594
ell 688, elapsed: 0.0003998279571533203
ell 687, elapsed: 0.00044608116149902344
ell 686, elapsed: 0.0003559589385986328
ell 685, elapsed: 0.0004360675811767578
ell 684, elapsed: 0.0003490447998046875
ell 683, elapsed: 0.0004189014434814453
ell 682, elapsed: 0.0003478527069091797
ell 681, elapsed: 0.0004210472106933594
ell 680, elapsed: 0.0003619194030761719
ell 679, elapsed: 0.0006299018859863281
ell 678, elapsed: 0.0004611015319824219
ell 677, elapsed: 0.00045800209045410156
ell 676, elapsed: 0.0003662109375
ell 675, elapsed: 0.00047516822814941406
ell 674, elapsed: 0.00036907196044921875
ell 673, elapsed: 0.0004451274871826172
ell 672, elapsed: 0.00036907196044921875
ell 671, elapsed: 0.0004608631134033203
ell 670, elapsed: 0.00037407875061035156
ell 669, elapsed: 0.0006699562072753906
ell 668, elapsed: 0.0004470348358154297
ell 667, elapsed: 0.00045108795166015625
ell 666, elapsed: 0.0004971027374267578
ell 665, elapsed: 0.0005600452423095703
ell 664, elapsed: 0.00039577484130859375
ell 663, elapsed: 0.0004611015319824219
ell 662, elapsed: 0.00038909912109375
ell 661, elapsed: 0.0004601478576660156
ell 660, elapsed: 0.0003750324249267578
ell 659, elapsed: 0.0004589557647705078
ell 658, elapsed: 0.00036787986755371094
ell 657, elapsed: 0.00045013427734375
ell 656, elapsed: 0.0003829002380371094
ell 655, elapsed: 0.0004520416259765625
ell 654, elapsed: 0.0003819465637207031
ell 653, elapsed: 0.0004630088806152344
ell 652, elapsed: 0.00038695335388183594
ell 651, elapsed: 0.0004458427429199219
ell 650, elapsed: 0.00038123130798339844
ell 649, elapsed: 0.0004520416259765625
ell 648, elapsed: 0.0003829002380371094
ell 647, elapsed: 0.0004551410675048828
ell 646, elapsed: 0.0003898143768310547
ell 645, elapsed: 0.00046706199645996094
ell 644, elapsed: 0.00039005279541015625
ell 643, elapsed: 0.0004601478576660156
ell 642, elapsed: 0.0003769397735595703
ell 641, elapsed: 0.00044798851013183594
ell 640, elapsed: 0.0003719329833984375
ell 639, elapsed: 0.0004711151123046875
ell 638, elapsed: 0.0003750324249267578
ell 637, elapsed: 0.0004649162292480469
ell 636, elapsed: 0.0003790855407714844
ell 635, elapsed: 0.00045800209045410156
ell 634, elapsed: 0.0003819465637207031
ell 633, elapsed: 0.0004730224609375
ell 632, elapsed: 0.0004069805145263672
ell 631, elapsed: 0.0004761219024658203
ell 630, elapsed: 0.0003769397735595703
ell 629, elapsed: 0.00045990943908691406
ell 628, elapsed: 0.0003750324249267578
ell 627, elapsed: 0.0004811286926269531
ell 626, elapsed: 0.0002980232238769531
ell 625, elapsed: 0.0003368854522705078
ell 624, elapsed: 0.00026488304138183594
ell 623, elapsed: 0.00037598609924316406
ell 622, elapsed: 0.00026702880859375
ell 621, elapsed: 0.0003230571746826172
ell 620, elapsed: 0.0002639293670654297
ell 619, elapsed: 0.0003228187561035156
ell 618, elapsed: 0.0002620220184326172
ell 617, elapsed: 0.00032591819763183594
ell 616, elapsed: 0.00026798248291015625
ell 615, elapsed: 0.0003249645233154297
ell 614, elapsed: 0.00026607513427734375
ell 613, elapsed: 0.00032210350036621094
ell 612, elapsed: 0.0002918243408203125
ell 611, elapsed: 0.0003268718719482422
ell 610, elapsed: 0.0002689361572265625
ell 609, elapsed: 0.00032711029052734375
ell 608, elapsed: 0.00026106834411621094
ell 607, elapsed: 0.0003349781036376953
ell 606, elapsed: 0.0002639293670654297
ell 605, elapsed: 0.00032806396484375
ell 604, elapsed: 0.00026702880859375
ell 603, elapsed: 0.00033402442932128906
ell 602, elapsed: 0.00026702880859375
ell 601, elapsed: 0.000347137451171875
ell 600, elapsed: 0.0002570152282714844
ell 599, elapsed: 0.00031304359436035156
ell 598, elapsed: 0.0002529621124267578
ell 597, elapsed: 0.0003190040588378906
ell 596, elapsed: 0.0002570152282714844
ell 595, elapsed: 0.00032401084899902344
ell 594, elapsed: 0.00026297569274902344
ell 593, elapsed: 0.0003228187561035156
ell 592, elapsed: 0.0002541542053222656
ell 591, elapsed: 0.0003368854522705078
ell 590, elapsed: 0.00026106834411621094
ell 589, elapsed: 0.00035691261291503906
ell 588, elapsed: 0.00027298927307128906
ell 587, elapsed: 0.0003268718719482422
ell 586, elapsed: 0.0003790855407714844
ell 585, elapsed: 0.0006258487701416016
ell 584, elapsed: 0.0006229877471923828
ell 583, elapsed: 0.0005609989166259766
ell 582, elapsed: 0.000415802001953125
ell 581, elapsed: 0.00046515464782714844
ell 580, elapsed: 0.00038695335388183594
ell 579, elapsed: 0.0005769729614257812
ell 578, elapsed: 0.00045990943908691406
ell 577, elapsed: 0.0006661415100097656
ell 576, elapsed: 0.00047016143798828125
ell 575, elapsed: 0.0006718635559082031
ell 574, elapsed: 0.0005478858947753906
ell 573, elapsed: 0.0005331039428710938
ell 572, elapsed: 0.00046706199645996094
ell 571, elapsed: 0.0006039142608642578
ell 570, elapsed: 0.0003819465637207031
ell 569, elapsed: 0.0004858970642089844
ell 568, elapsed: 0.00038313865661621094
ell 567, elapsed: 0.00045299530029296875
ell 566, elapsed: 0.0003609657287597656
ell 565, elapsed: 0.0004589557647705078
ell 564, elapsed: 0.0003781318664550781
ell 563, elapsed: 0.00044989585876464844
ell 562, elapsed: 0.00037288665771484375
ell 561, elapsed: 0.0004558563232421875
ell 560, elapsed: 0.00037789344787597656
ell 559, elapsed: 0.00045418739318847656
ell 558, elapsed: 0.0003731250762939453
ell 557, elapsed: 0.0004570484161376953
ell 556, elapsed: 0.00037217140197753906
ell 555, elapsed: 0.0004649162292480469
ell 554, elapsed: 0.00037598609924316406
ell 553, elapsed: 0.0004639625549316406
ell 552, elapsed: 0.0003712177276611328
ell 551, elapsed: 0.0004601478576660156
ell 550, elapsed: 0.0003750324249267578
ell 549, elapsed: 0.0004458427429199219
ell 548, elapsed: 0.00047397613525390625
ell 547, elapsed: 0.0005631446838378906
ell 546, elapsed: 0.0003819465637207031
ell 545, elapsed: 0.00046706199645996094
ell 544, elapsed: 0.0003771781921386719
ell 543, elapsed: 0.0004711151123046875
ell 542, elapsed: 0.0003650188446044922
ell 541, elapsed: 0.0004620552062988281
ell 540, elapsed: 0.00037097930908203125
ell 539, elapsed: 0.0005860328674316406
ell 538, elapsed: 0.0004520416259765625
ell 537, elapsed: 0.0004608631134033203
ell 536, elapsed: 0.0005071163177490234
ell 535, elapsed: 0.0005958080291748047
ell 534, elapsed: 0.00048804283142089844
ell 533, elapsed: 0.0005648136138916016
ell 532, elapsed: 0.00037789344787597656
ell 531, elapsed: 0.0004630088806152344
ell 530, elapsed: 0.0005049705505371094
ell 529, elapsed: 0.0005128383636474609
ell 528, elapsed: 0.00037097930908203125
ell 527, elapsed: 0.0005650520324707031
ell 526, elapsed: 0.0004630088806152344
ell 525, elapsed: 0.0006079673767089844
ell 524, elapsed: 0.0006051063537597656
ell 523, elapsed: 0.0007100105285644531
ell 522, elapsed: 0.00037407875061035156
ell 521, elapsed: 0.0006170272827148438
ell 520, elapsed: 0.0004169940948486328
ell 519, elapsed: 0.0004451274871826172
ell 518, elapsed: 0.0003688335418701172
ell 517, elapsed: 0.0006241798400878906
ell 516, elapsed: 0.0005590915679931641
ell 515, elapsed: 0.0005171298980712891
ell 514, elapsed: 0.00037407875061035156
ell 513, elapsed: 0.0004658699035644531
ell 512, elapsed: 0.00036907196044921875
ell 511, elapsed: 0.0004620552062988281
ell 510, elapsed: 0.0003809928894042969
ell 509, elapsed: 0.0004620552062988281
ell 508, elapsed: 0.0003681182861328125
ell 507, elapsed: 0.0005998611450195312
ell 506, elapsed: 0.0004169940948486328
ell 505, elapsed: 0.0004620552062988281
ell 504, elapsed: 0.0004448890686035156
ell 503, elapsed: 0.0007269382476806641
ell 502, elapsed: 0.00038313865661621094
ell 501, elapsed: 0.00044798851013183594
ell 500, elapsed: 0.00037479400634765625
ell 499, elapsed: 0.0006110668182373047
ell 498, elapsed: 0.0005500316619873047
ell 497, elapsed: 0.0005848407745361328
ell 496, elapsed: 0.0003819465637207031
ell 495, elapsed: 0.0004608631134033203
ell 494, elapsed: 0.0003750324249267578
ell 493, elapsed: 0.0004611015319824219
ell 492, elapsed: 0.0003750324249267578
ell 491, elapsed: 0.0004649162292480469
ell 490, elapsed: 0.00037407875061035156
ell 489, elapsed: 0.0004761219024658203
ell 488, elapsed: 0.00037097930908203125
ell 487, elapsed: 0.0004429817199707031
ell 486, elapsed: 0.0004901885986328125
ell 485, elapsed: 0.0005819797515869141
ell 484, elapsed: 0.00037217140197753906
ell 483, elapsed: 0.0006639957427978516
ell 482, elapsed: 0.0004038810729980469
ell 481, elapsed: 0.00045990943908691406
ell 480, elapsed: 0.00037288665771484375
ell 479, elapsed: 0.0006821155548095703
ell 478, elapsed: 0.00046896934509277344
ell 477, elapsed: 0.0004570484161376953
ell 476, elapsed: 0.00037288665771484375
ell 475, elapsed: 0.0004699230194091797
ell 474, elapsed: 0.0005171298980712891
ell 473, elapsed: 0.0005300045013427734
ell 472, elapsed: 0.0004611015319824219
ell 471, elapsed: 0.0006048679351806641
ell 470, elapsed: 0.0003829002380371094
ell 469, elapsed: 0.0004639625549316406
ell 468, elapsed: 0.00038814544677734375
ell 467, elapsed: 0.0004611015319824219
ell 466, elapsed: 0.00038504600524902344
ell 465, elapsed: 0.0006349086761474609
ell 464, elapsed: 0.00041985511779785156
ell 463, elapsed: 0.00045299530029296875
ell 462, elapsed: 0.0004951953887939453
ell 461, elapsed: 0.0005829334259033203
ell 460, elapsed: 0.00036907196044921875
ell 459, elapsed: 0.0004520416259765625
ell 458, elapsed: 0.0003600120544433594
ell 457, elapsed: 0.0004520416259765625
ell 456, elapsed: 0.0004949569702148438
ell 455, elapsed: 0.0005669593811035156
ell 454, elapsed: 0.0005400180816650391
ell 453, elapsed: 0.00055694580078125
ell 452, elapsed: 0.0004150867462158203
ell 451, elapsed: 0.0006430149078369141
ell 450, elapsed: 0.0005640983581542969
ell 449, elapsed: 0.0005488395690917969
ell 448, elapsed: 0.0003769397735595703
ell 447, elapsed: 0.0004470348358154297
ell 446, elapsed: 0.0005140304565429688
ell 445, elapsed: 0.0005838871002197266
ell 444, elapsed: 0.0003631114959716797
ell 443, elapsed: 0.0005419254302978516
ell 442, elapsed: 0.0004630088806152344
ell 441, elapsed: 0.00046896934509277344
ell 440, elapsed: 0.000453948974609375
ell 439, elapsed: 0.0006089210510253906
ell 438, elapsed: 0.0003681182861328125
ell 437, elapsed: 0.0004508495330810547
ell 436, elapsed: 0.0003788471221923828
ell 435, elapsed: 0.0006349086761474609
ell 434, elapsed: 0.0003840923309326172
ell 433, elapsed: 0.0005691051483154297
ell 432, elapsed: 0.00047087669372558594
ell 431, elapsed: 0.0004570484161376953
ell 430, elapsed: 0.0003650188446044922
ell 429, elapsed: 0.0005469322204589844
ell 428, elapsed: 0.0005688667297363281
ell 427, elapsed: 0.0005328655242919922
ell 426, elapsed: 0.0003750324249267578
ell 425, elapsed: 0.00045299530029296875
ell 424, elapsed: 0.000514984130859375
ell 423, elapsed: 0.0006601810455322266
ell 422, elapsed: 0.00045108795166015625
ell 421, elapsed: 0.00045108795166015625
ell 420, elapsed: 0.0003809928894042969
ell 419, elapsed: 0.00044608116149902344
ell 418, elapsed: 0.0003669261932373047
ell 417, elapsed: 0.0006079673767089844
ell 416, elapsed: 0.0004239082336425781
ell 415, elapsed: 0.0004570484161376953
ell 414, elapsed: 0.0004699230194091797
ell 413, elapsed: 0.0007100105285644531
ell 412, elapsed: 0.0005960464477539062
ell 411, elapsed: 0.0007181167602539062
ell 410, elapsed: 0.0005910396575927734
ell 409, elapsed: 0.0007469654083251953
ell 408, elapsed: 0.00061798095703125
ell 407, elapsed: 0.00074005126953125
ell 406, elapsed: 0.0005898475646972656
ell 405, elapsed: 0.0007219314575195312
ell 404, elapsed: 0.00045680999755859375
ell 403, elapsed: 0.0006730556488037109
ell 402, elapsed: 0.0005049705505371094
ell 401, elapsed: 0.0005970001220703125
ell 400, elapsed: 0.0004668235778808594
ell 399, elapsed: 0.0006928443908691406
ell 398, elapsed: 0.00048613548278808594
ell 397, elapsed: 0.0006339550018310547
ell 396, elapsed: 0.0006649494171142578
ell 395, elapsed: 0.0006208419799804688
ell 394, elapsed: 0.0004961490631103516
ell 393, elapsed: 0.0006139278411865234
ell 392, elapsed: 0.0005421638488769531
ell 391, elapsed: 0.0007128715515136719
ell 390, elapsed: 0.00041604042053222656
ell 389, elapsed: 0.0004570484161376953
ell 388, elapsed: 0.0003790855407714844
ell 387, elapsed: 0.0006780624389648438
ell 386, elapsed: 0.00039386749267578125
ell 385, elapsed: 0.0006411075592041016
ell 384, elapsed: 0.0005528926849365234
ell 383, elapsed: 0.0005650520324707031
ell 382, elapsed: 0.0005428791046142578
ell 381, elapsed: 0.0007281303405761719
ell 380, elapsed: 0.0006029605865478516
ell 379, elapsed: 0.0006160736083984375
ell 378, elapsed: 0.0004019737243652344
ell 377, elapsed: 0.0006389617919921875
ell 376, elapsed: 0.0004730224609375
ell 375, elapsed: 0.0006670951843261719
ell 374, elapsed: 0.0004811286926269531
ell 373, elapsed: 0.0005669593811035156
ell 372, elapsed: 0.0004990100860595703
ell 371, elapsed: 0.0004849433898925781
ell 370, elapsed: 0.00037980079650878906
ell 369, elapsed: 0.0004658699035644531
ell 368, elapsed: 0.00038886070251464844
ell 367, elapsed: 0.0006699562072753906
ell 366, elapsed: 0.0005362033843994141
ell 365, elapsed: 0.0005691051483154297
ell 364, elapsed: 0.00039696693420410156
ell 363, elapsed: 0.0006511211395263672
ell 362, elapsed: 0.0004329681396484375
ell 361, elapsed: 0.0004718303680419922
ell 360, elapsed: 0.0003879070281982422
ell 359, elapsed: 0.0004730224609375
ell 358, elapsed: 0.0005090236663818359
ell 357, elapsed: 0.0005879402160644531
ell 356, elapsed: 0.0005559921264648438
ell 355, elapsed: 0.0007190704345703125
ell 354, elapsed: 0.0005991458892822266
ell 353, elapsed: 0.0007228851318359375
ell 352, elapsed: 0.00043511390686035156
ell 351, elapsed: 0.0004761219024658203
ell 350, elapsed: 0.0003948211669921875
ell 349, elapsed: 0.0004668235778808594
ell 348, elapsed: 0.0004589557647705078
ell 347, elapsed: 0.0006401538848876953
ell 346, elapsed: 0.00038695335388183594
ell 345, elapsed: 0.0004680156707763672
ell 344, elapsed: 0.0004699230194091797
ell 343, elapsed: 0.0006330013275146484
ell 342, elapsed: 0.0005588531494140625
ell 341, elapsed: 0.0005238056182861328
ell 340, elapsed: 0.0003859996795654297
ell 339, elapsed: 0.0004589557647705078
ell 338, elapsed: 0.00038504600524902344
ell 337, elapsed: 0.0004870891571044922
ell 336, elapsed: 0.00038504600524902344
ell 335, elapsed: 0.0004642009735107422
ell 334, elapsed: 0.00038814544677734375
ell 333, elapsed: 0.0006070137023925781
ell 332, elapsed: 0.00047516822814941406
ell 331, elapsed: 0.0004620552062988281
ell 330, elapsed: 0.00038504600524902344
ell 329, elapsed: 0.0006260871887207031
ell 328, elapsed: 0.00045800209045410156
ell 327, elapsed: 0.00047206878662109375
ell 326, elapsed: 0.0003879070281982422
ell 325, elapsed: 0.0004718303680419922
ell 324, elapsed: 0.0003921985626220703
ell 323, elapsed: 0.0004799365997314453
ell 322, elapsed: 0.00038695335388183594
ell 321, elapsed: 0.000476837158203125
ell 320, elapsed: 0.00038814544677734375
ell 319, elapsed: 0.00047397613525390625
ell 318, elapsed: 0.00038695335388183594
ell 317, elapsed: 0.0004818439483642578
ell 316, elapsed: 0.0003879070281982422
ell 315, elapsed: 0.00046706199645996094
ell 314, elapsed: 0.00038504600524902344
ell 313, elapsed: 0.0004849433898925781
ell 312, elapsed: 0.00038886070251464844
ell 311, elapsed: 0.0004730224609375
ell 310, elapsed: 0.00046896934509277344
ell 309, elapsed: 0.0006330013275146484
ell 308, elapsed: 0.0005078315734863281
ell 307, elapsed: 0.0005791187286376953
ell 306, elapsed: 0.0004019737243652344
ell 305, elapsed: 0.0004611015319824219
ell 304, elapsed: 0.00039005279541015625
ell 303, elapsed: 0.0006120204925537109
ell 302, elapsed: 0.00044918060302734375
ell 301, elapsed: 0.0004928112030029297
ell 300, elapsed: 0.0003979206085205078
ell 299, elapsed: 0.00046706199645996094
ell 298, elapsed: 0.00038695335388183594
ell 297, elapsed: 0.0006461143493652344
ell 296, elapsed: 0.00043702125549316406
ell 295, elapsed: 0.0006289482116699219
ell 294, elapsed: 0.0005929470062255859
ell 293, elapsed: 0.0006229877471923828
ell 292, elapsed: 0.0005540847778320312
ell 291, elapsed: 0.0005578994750976562
ell 290, elapsed: 0.00038504600524902344
ell 289, elapsed: 0.0006389617919921875
ell 288, elapsed: 0.0004298686981201172
ell 287, elapsed: 0.0006349086761474609
ell 286, elapsed: 0.00043010711669921875
ell 285, elapsed: 0.000637054443359375
ell 284, elapsed: 0.0004279613494873047
ell 283, elapsed: 0.000469207763671875
ell 282, elapsed: 0.00038814544677734375
ell 281, elapsed: 0.0004649162292480469
ell 280, elapsed: 0.0005450248718261719
ell 279, elapsed: 0.0005428791046142578
ell 278, elapsed: 0.0003910064697265625
ell 277, elapsed: 0.0004658699035644531
ell 276, elapsed: 0.00038695335388183594
ell 275, elapsed: 0.0004630088806152344
ell 274, elapsed: 0.00038504600524902344
ell 273, elapsed: 0.0005860328674316406
ell 272, elapsed: 0.0004961490631103516
ell 271, elapsed: 0.0006399154663085938
ell 270, elapsed: 0.00045490264892578125
ell 269, elapsed: 0.0006618499755859375
ell 268, elapsed: 0.0004150867462158203
ell 267, elapsed: 0.0004620552062988281
ell 266, elapsed: 0.0004699230194091797
ell 265, elapsed: 0.0006279945373535156
ell 264, elapsed: 0.00039196014404296875
ell 263, elapsed: 0.00047278404235839844
ell 262, elapsed: 0.00048089027404785156
ell 261, elapsed: 0.0005910396575927734
ell 260, elapsed: 0.00038695335388183594
ell 259, elapsed: 0.00047397613525390625
ell 258, elapsed: 0.00038909912109375
ell 257, elapsed: 0.0004799365997314453
ell 256, elapsed: 0.0005350112915039062
ell 255, elapsed: 0.0005409717559814453
ell 254, elapsed: 0.0003840923309326172
ell 253, elapsed: 0.0005929470062255859
ell 252, elapsed: 0.0004508495330810547
ell 251, elapsed: 0.00047707557678222656
ell 250, elapsed: 0.00038695335388183594
ell 249, elapsed: 0.0004661083221435547
ell 248, elapsed: 0.00038313865661621094
ell 247, elapsed: 0.00047397613525390625
ell 246, elapsed: 0.0003859996795654297
ell 245, elapsed: 0.00047087669372558594
ell 244, elapsed: 0.0003819465637207031
ell 243, elapsed: 0.00046181678771972656
ell 242, elapsed: 0.0003859996795654297
ell 241, elapsed: 0.0004649162292480469
ell 240, elapsed: 0.0005228519439697266
ell 239, elapsed: 0.0005209445953369141
ell 238, elapsed: 0.0003669261932373047
ell 237, elapsed: 0.00041794776916503906
ell 236, elapsed: 0.0003440380096435547
ell 235, elapsed: 0.0004558563232421875
ell 234, elapsed: 0.00036597251892089844
ell 233, elapsed: 0.0004260540008544922
ell 232, elapsed: 0.0003399848937988281
ell 231, elapsed: 0.0004150867462158203
ell 230, elapsed: 0.00034999847412109375
ell 229, elapsed: 0.0005280971527099609
ell 228, elapsed: 0.0004379749298095703
ell 227, elapsed: 0.0004730224609375
ell 226, elapsed: 0.0003540515899658203
ell 225, elapsed: 0.0004432201385498047
ell 224, elapsed: 0.0004968643188476562
ell 223, elapsed: 0.0005300045013427734
ell 222, elapsed: 0.0003838539123535156
ell 221, elapsed: 0.0006048679351806641
ell 220, elapsed: 0.0005488395690917969
ell 219, elapsed: 0.0006110668182373047
ell 218, elapsed: 0.00046515464782714844
ell 217, elapsed: 0.0005898475646972656
ell 216, elapsed: 0.0003800392150878906
ell 215, elapsed: 0.00047206878662109375
ell 214, elapsed: 0.00035881996154785156
ell 213, elapsed: 0.0004589557647705078
ell 212, elapsed: 0.0003478527069091797
ell 211, elapsed: 0.0004329681396484375
ell 210, elapsed: 0.00037789344787597656
ell 209, elapsed: 0.0004668235778808594
ell 208, elapsed: 0.0003809928894042969
ell 207, elapsed: 0.00047087669372558594
ell 206, elapsed: 0.0004971027374267578
ell 205, elapsed: 0.0005640983581542969
ell 204, elapsed: 0.00038313865661621094
ell 203, elapsed: 0.0004570484161376953
ell 202, elapsed: 0.0003829002380371094
ell 201, elapsed: 0.0005841255187988281
ell 200, elapsed: 0.00047016143798828125
ell 199, elapsed: 0.0004639625549316406
ell 198, elapsed: 0.0005202293395996094
ell 197, elapsed: 0.0005459785461425781
ell 196, elapsed: 0.00038909912109375
ell 195, elapsed: 0.00045800209045410156
ell 194, elapsed: 0.0003800392150878906
ell 193, elapsed: 0.0004649162292480469
ell 192, elapsed: 0.0003910064697265625
ell 191, elapsed: 0.00046706199645996094
ell 190, elapsed: 0.00040602684020996094
ell 189, elapsed: 0.0004761219024658203
ell 188, elapsed: 0.0003898143768310547
ell 187, elapsed: 0.0004630088806152344
ell 186, elapsed: 0.0003879070281982422
ell 185, elapsed: 0.0006101131439208984
ell 184, elapsed: 0.0005140304565429688
ell 183, elapsed: 0.0006120204925537109
ell 182, elapsed: 0.00038695335388183594
ell 181, elapsed: 0.0004639625549316406
ell 180, elapsed: 0.0005109310150146484
ell 179, elapsed: 0.0005309581756591797
ell 178, elapsed: 0.0003819465637207031
ell 177, elapsed: 0.0004639625549316406
ell 176, elapsed: 0.0003848075866699219
ell 175, elapsed: 0.00047898292541503906
ell 174, elapsed: 0.00038814544677734375
ell 173, elapsed: 0.0004668235778808594
ell 172, elapsed: 0.00040602684020996094
ell 171, elapsed: 0.0006749629974365234
ell 170, elapsed: 0.0003960132598876953
ell 169, elapsed: 0.0005850791931152344
ell 168, elapsed: 0.0004439353942871094
ell 167, elapsed: 0.0006048679351806641
ell 166, elapsed: 0.0004489421844482422
ell 165, elapsed: 0.0004761219024658203
ell 164, elapsed: 0.00039005279541015625
ell 163, elapsed: 0.0006041526794433594
ell 162, elapsed: 0.00055694580078125
ell 161, elapsed: 0.0005090236663818359
ell 160, elapsed: 0.0005159378051757812
ell 159, elapsed: 0.0005481243133544922
ell 158, elapsed: 0.0004999637603759766
ell 157, elapsed: 0.0006659030914306641
ell 156, elapsed: 0.000514984130859375
ell 155, elapsed: 0.00042510032653808594
ell 154, elapsed: 0.00035500526428222656
ell 153, elapsed: 0.00043392181396484375
ell 152, elapsed: 0.00035691261291503906
ell 151, elapsed: 0.0004210472106933594
ell 150, elapsed: 0.0003459453582763672
ell 149, elapsed: 0.0004470348358154297
ell 148, elapsed: 0.00043392181396484375
ell 147, elapsed: 0.0004899501800537109
ell 146, elapsed: 0.00047016143798828125
ell 145, elapsed: 0.0005040168762207031
ell 144, elapsed: 0.00039505958557128906
ell 143, elapsed: 0.00047898292541503906
ell 142, elapsed: 0.00037288665771484375
ell 141, elapsed: 0.00044083595275878906
ell 140, elapsed: 0.00037598609924316406
ell 139, elapsed: 0.0005960464477539062
ell 138, elapsed: 0.0004680156707763672
ell 137, elapsed: 0.0004639625549316406
ell 136, elapsed: 0.0003809928894042969
ell 135, elapsed: 0.000476837158203125
ell 134, elapsed: 0.0003859996795654297
ell 133, elapsed: 0.00045609474182128906
ell 132, elapsed: 0.0003809928894042969
ell 131, elapsed: 0.00046706199645996094
ell 130, elapsed: 0.0004780292510986328
ell 129, elapsed: 0.0006058216094970703
ell 128, elapsed: 0.0003819465637207031
ell 127, elapsed: 0.0004839897155761719
ell 126, elapsed: 0.0004589557647705078
ell 125, elapsed: 0.0006320476531982422
ell 124, elapsed: 0.0003821849822998047
ell 123, elapsed: 0.00045013427734375
ell 122, elapsed: 0.0003790855407714844
ell 121, elapsed: 0.0004661083221435547
ell 120, elapsed: 0.00039505958557128906
ell 119, elapsed: 0.0004811286926269531
ell 118, elapsed: 0.00038504600524902344
ell 117, elapsed: 0.00047206878662109375
ell 116, elapsed: 0.0003859996795654297
ell 115, elapsed: 0.000514984130859375
ell 114, elapsed: 0.00038814544677734375
ell 113, elapsed: 0.0005519390106201172
ell 112, elapsed: 0.0005469322204589844
ell 111, elapsed: 0.00047898292541503906
ell 110, elapsed: 0.0003871917724609375
ell 109, elapsed: 0.0004620552062988281
ell 108, elapsed: 0.00038695335388183594
ell 107, elapsed: 0.0006759166717529297
ell 106, elapsed: 0.0005021095275878906
ell 105, elapsed: 0.0006420612335205078
ell 104, elapsed: 0.00039577484130859375
ell 103, elapsed: 0.00047898292541503906
ell 102, elapsed: 0.0003910064697265625
ell 101, elapsed: 0.0005950927734375
ell 100, elapsed: 0.0004639625549316406
ell 99, elapsed: 0.00047397613525390625
ell 98, elapsed: 0.0003960132598876953
ell 97, elapsed: 0.0004620552062988281
ell 96, elapsed: 0.00038695335388183594
ell 95, elapsed: 0.0004668235778808594
ell 94, elapsed: 0.0003859996795654297
ell 93, elapsed: 0.00045990943908691406
ell 92, elapsed: 0.0003848075866699219
ell 91, elapsed: 0.0006489753723144531
ell 90, elapsed: 0.00043010711669921875
ell 89, elapsed: 0.0004661083221435547
ell 88, elapsed: 0.00038695335388183594
ell 87, elapsed: 0.0004601478576660156
ell 86, elapsed: 0.0003840923309326172
ell 85, elapsed: 0.00045490264892578125
ell 84, elapsed: 0.0003840923309326172
ell 83, elapsed: 0.00045609474182128906
ell 82, elapsed: 0.00039696693420410156
ell 81, elapsed: 0.00045800209045410156
ell 80, elapsed: 0.0003809928894042969
ell 79, elapsed: 0.00045800209045410156
ell 78, elapsed: 0.0003750324249267578
ell 77, elapsed: 0.0005829334259033203
ell 76, elapsed: 0.00043511390686035156
ell 75, elapsed: 0.0004839897155761719
ell 74, elapsed: 0.0004031658172607422
ell 73, elapsed: 0.00042700767517089844
ell 72, elapsed: 0.0003418922424316406
ell 71, elapsed: 0.00045299530029296875
ell 70, elapsed: 0.00037288665771484375
ell 69, elapsed: 0.00046181678771972656
ell 68, elapsed: 0.0003788471221923828
ell 67, elapsed: 0.0004630088806152344
ell 66, elapsed: 0.0003960132598876953
ell 65, elapsed: 0.00046706199645996094
ell 64, elapsed: 0.00038504600524902344
ell 63, elapsed: 0.0004639625549316406
ell 62, elapsed: 0.0003829002380371094
ell 61, elapsed: 0.00046896934509277344
ell 60, elapsed: 0.00055694580078125
ell 59, elapsed: 0.0005309581756591797
ell 58, elapsed: 0.0004010200500488281
ell 57, elapsed: 0.00047516822814941406
ell 56, elapsed: 0.000431060791015625
ell 55, elapsed: 0.0005369186401367188
ell 54, elapsed: 0.000370025634765625
ell 53, elapsed: 0.000598907470703125
ell 52, elapsed: 0.0004279613494873047
ell 51, elapsed: 0.02234792709350586
ell 50, elapsed: 0.00044798851013183594
ell 49, elapsed: 0.00045609474182128906
ell 48, elapsed: 0.0003719329833984375
ell 47, elapsed: 0.0004379749298095703
ell 46, elapsed: 0.00031304359436035156
ell 45, elapsed: 0.00045800209045410156
ell 44, elapsed: 0.0002770423889160156
ell 43, elapsed: 0.0004589557647705078
ell 42, elapsed: 0.0003650188446044922
ell 41, elapsed: 0.00045680999755859375
ell 40, elapsed: 0.00037097930908203125
ell 39, elapsed: 0.0004858970642089844
ell 38, elapsed: 0.0005218982696533203
ell 37, elapsed: 0.0005478858947753906
ell 36, elapsed: 0.00045299530029296875
ell 35, elapsed: 0.0006399154663085938
ell 34, elapsed: 0.0003809928894042969
ell 33, elapsed: 0.0004742145538330078
ell 32, elapsed: 0.00039505958557128906
ell 31, elapsed: 0.0004749298095703125
ell 30, elapsed: 0.0004601478576660156
ell 29, elapsed: 0.0005788803100585938
ell 28, elapsed: 0.0003781318664550781
ell 27, elapsed: 0.0004591941833496094
ell 26, elapsed: 0.0004489421844482422
ell 25, elapsed: 0.0006358623504638672
ell 24, elapsed: 0.0003809928894042969
ell 23, elapsed: 0.0004630088806152344
ell 22, elapsed: 0.00047087669372558594
ell 21, elapsed: 0.0006020069122314453
ell 20, elapsed: 0.00038695335388183594
ell 19, elapsed: 0.00039005279541015625
ell 18, elapsed: 0.0002779960632324219
ell 17, elapsed: 0.0004661083221435547
ell 16, elapsed: 0.000370025634765625
ell 15, elapsed: 0.0006468296051025391
ell 14, elapsed: 0.0005631446838378906
ell 13, elapsed: 0.0005309581756591797
ell 12, elapsed: 0.0003829002380371094
ell 11, elapsed: 0.0004649162292480469
ell 10, elapsed: 0.00039696693420410156
ell 9, elapsed: 0.0004730224609375
ell 8, elapsed: 0.0003790855407714844
ell 7, elapsed: 0.0006458759307861328
ell 6, elapsed: 0.00040984153747558594
ell 5, elapsed: 0.00047016143798828125
ell 4, elapsed: 0.0005509853363037109
ell 3, elapsed: 0.0005609989166259766
ell 2, elapsed: 0.0004429817199707031
ell 1, elapsed: 0.0005390644073486328
ell 0, elapsed: 0.0004220008850097656
  0.798692 seconds (57.01 k allocations: 2.784 MiB, 2.68% gc time)
elapsed: 0.001435995101928711
step:          0.069175 sec (0 allocations: 0 byte, 0.0% gc time)
swapping:      0.000852 sec (0 allocations: 0 byte, 0.0% gc time)
calc_Mellell!: 0.009436 sec (0 allocations: 0 byte, 0.0% gc time)
  t0 :  0.002545 sec (0 allocations: 0 byte, 0.0% gc time)
  tm2 : 0.090886 sec (0 allocations: 0 byte, 0.0% gc time)
  tm2s: 0.002048 sec (0 allocations: 0 byte, 0.0% gc time)
  tm4 : 0.24887 sec (0 allocations: 0 byte, 0.0% gc time)
  tp2 : 0.0 sec (0 allocations: 0 byte, 0.0% gc time)
  tp2s: 0.0 sec (0 allocations: 0 byte, 0.0% gc time)
  tp4 : 0.0 sec (0 allocations: 0 byte, 0.0% gc time)
calc_wtdll!:   0.384522 sec (9.879 k allocations: 1.044 MB, 5.58% gc time)
calc_wljj!:    0.043075 sec (689 allocations: 10.766 KB, 0.0% gc time)
mult_prefac!:  0.0 sec (0 allocations: 0 byte, 0.0% gc time)
convert:       0.0 sec (0 allocations: 0 byte, 0.0% gc time)
write:         0.058865 sec (0 allocations: 0 byte, 0.0% gc time)
test_rand_2f1: 0.0 sec (0 allocations: 0 byte, 0.0% gc time)
Closing outfile out/Ml21-cache.bin...   0.020197 seconds
  0.000544 seconds (52 allocations: 28.297 KiB)
make_phi():   0.002438 seconds (8.20 k allocations: 238.016 KiB)
  0.163711 seconds (146.69 k allocations: 3.629 MiB)
tskip:       0.001248 sec (0 allocations: 0 byte, 0.0% gc time)
tread:       0.027094 sec (20 allocations: 10.703 KB, 0.0% gc time)
tmultphi:    0.012433 sec (0 allocations: 0 byte, 0.0% gc time)
tbrfft:      0.043051 sec (9.592 k allocations: 449.625 KB, 0.0% gc time)
tmultprefac: 0.027951 sec (0 allocations: 0 byte, 0.0% gc time)
toutfunc:    0.049858 sec (129.905 k allocations: 2.421 MB, 0.0% gc time)
Testing R=1.0 ... passed
Calculating fmax: 
  dlrec    = 4
  dlrecRg1 = -4
  q=1.1, R=0.9:	  0.557410 seconds (149.41 k allocations: 69.863 MiB, 3.35% gc time)

  0.558931 seconds (149.48 k allocations: 69.895 MiB, 3.34% gc time)
ℓ = 1202
Δℓ = 4
ΔℓRg1 = -4
N = 1600
q = 1.1
kmin = 1.0e-5
kmax = 100000.00000000004
χ0 = 0.023029999999999995
RR = RR.tsv
ℓmax = ℓmax.bin
f21 = f21.bin
kmin = 1.0e-5
kmax = 100000.0
dlrec    = 4
dlrecRg1 = -4
Output size: 5741568 bytes = 0.005347251892089844 GiB
Output size: 51264 bytes = 4.774332046508789e-5 GiB
Reading 'out/F21EllCache'...   0.001056 seconds (271 allocations: 84.719 KiB)
ellmax: 1202
lmaxcache: 1202
fell[:,1,1] = Complex{Float64}[1.3482014726274674e-57 - 3.302141236118086e-73im, 1.357860004724329e-57 - 3.3257978169518355e-73im]
ell 1202, elapsed: 9.799003601074219e-5
ell 1201, elapsed: 0.0006411075592041016
ell 1200, elapsed: 0.0004830360412597656
ell 1199, elapsed: 0.0005538463592529297
ell 1198, elapsed: 0.0003619194030761719
ell 1002, elapsed: 0.018912076950073242
ell 1001, elapsed: 0.0003731250762939453
ell 1000, elapsed: 0.0003390312194824219
ell 999, elapsed: 0.0003409385681152344
ell 998, elapsed: 0.00041103363037109375
ell 902, elapsed: 0.005681037902832031
ell 901, elapsed: 0.0003581047058105469
ell 900, elapsed: 0.00034689903259277344
ell 899, elapsed: 0.0004360675811767578
ell 898, elapsed: 0.0004649162292480469
ell 802, elapsed: 0.01144719123840332
ell 801, elapsed: 0.0004551410675048828
ell 800, elapsed: 0.0004050731658935547
ell 799, elapsed: 0.0003948211669921875
ell 798, elapsed: 0.00049591064453125
ell 702, elapsed: 0.005554914474487305
ell 701, elapsed: 0.00040411949157714844
ell 700, elapsed: 0.00035691261291503906
ell 699, elapsed: 0.00032711029052734375
ell 698, elapsed: 0.00034999847412109375
ell 602, elapsed: 0.00551605224609375
ell 601, elapsed: 0.0003578662872314453
ell 600, elapsed: 0.0003349781036376953
ell 599, elapsed: 0.0003399848937988281
ell 598, elapsed: 0.0003380775451660156
ell 502, elapsed: 0.005436897277832031
ell 501, elapsed: 0.0003731250762939453
ell 500, elapsed: 0.0004918575286865234
ell 499, elapsed: 0.0004019737243652344
ell 498, elapsed: 0.0003490447998046875
ell 402, elapsed: 0.005564212799072266
ell 401, elapsed: 0.00035691261291503906
ell 400, elapsed: 0.0004200935363769531
ell 399, elapsed: 0.0004949569702148438
ell 398, elapsed: 0.0004398822784423828
ell 302, elapsed: 0.0056209564208984375
ell 301, elapsed: 0.00045299530029296875
ell 300, elapsed: 0.0005421638488769531
ell 299, elapsed: 0.0004608631134033203
ell 298, elapsed: 0.0004780292510986328
ell 202, elapsed: 0.005625009536743164
ell 201, elapsed: 0.0003960132598876953
ell 200, elapsed: 0.0003490447998046875
ell 199, elapsed: 0.00036716461181640625
ell 198, elapsed: 0.00034308433532714844
ell 152, elapsed: 0.0030069351196289062
ell 151, elapsed: 0.000370025634765625
ell 150, elapsed: 0.00034880638122558594
ell 149, elapsed: 0.0004019737243652344
ell 148, elapsed: 0.0005130767822265625
ell 127, elapsed: 0.0015859603881835938
ell 126, elapsed: 0.00034809112548828125
ell 125, elapsed: 0.00033211708068847656
ell 124, elapsed: 0.00033211708068847656
ell 123, elapsed: 0.0004630088806152344
ell 114, elapsed: 0.0009279251098632812
ell 113, elapsed: 0.00032591819763183594
ell 112, elapsed: 0.0003578662872314453
ell 111, elapsed: 0.0003418922424316406
ell 110, elapsed: 0.0003440380096435547
ell 102, elapsed: 0.0008749961853027344
ell 101, elapsed: 0.00032782554626464844
ell 100, elapsed: 0.0003769397735595703
ell 99, elapsed: 0.0005118846893310547
ell 98, elapsed: 0.00035309791564941406
ell 97, elapsed: 0.0003859996795654297
ell 96, elapsed: 0.0004820823669433594
ell 95, elapsed: 0.0003790855407714844
ell 94, elapsed: 0.0004870891571044922
ell 93, elapsed: 0.00037407875061035156
ell 92, elapsed: 0.0004608631134033203
ell 91, elapsed: 0.0003800392150878906
ell 90, elapsed: 0.0006730556488037109
ell 89, elapsed: 0.0003910064697265625
ell 88, elapsed: 0.0004711151123046875
ell 87, elapsed: 0.00036787986755371094
ell 86, elapsed: 0.0006008148193359375
ell 85, elapsed: 0.0004661083221435547
ell 84, elapsed: 0.0004699230194091797
ell 83, elapsed: 0.00037980079650878906
ell 82, elapsed: 0.00047206878662109375
ell 81, elapsed: 0.0003719329833984375
ell 80, elapsed: 0.0004520416259765625
ell 79, elapsed: 0.000370025634765625
ell 78, elapsed: 0.0004379749298095703
ell 77, elapsed: 0.000370025634765625
ell 76, elapsed: 0.0004291534423828125
ell 75, elapsed: 0.0003609657287597656
ell 74, elapsed: 0.0004508495330810547
ell 73, elapsed: 0.0003600120544433594
ell 72, elapsed: 0.000453948974609375
ell 71, elapsed: 0.0003781318664550781
ell 70, elapsed: 0.0004639625549316406
ell 69, elapsed: 0.0004439353942871094
ell 68, elapsed: 0.00047206878662109375
ell 67, elapsed: 0.0003771781921386719
ell 66, elapsed: 0.00047206878662109375
ell 65, elapsed: 0.00037598609924316406
ell 64, elapsed: 0.0006570816040039062
ell 63, elapsed: 0.00037598609924316406
ell 62, elapsed: 0.00047016143798828125
ell 61, elapsed: 0.00037097930908203125
ell 60, elapsed: 0.0006458759307861328
ell 59, elapsed: 0.0004050731658935547
ell 58, elapsed: 0.0004591941833496094
ell 57, elapsed: 0.0003650188446044922
ell 56, elapsed: 0.0004458427429199219
ell 55, elapsed: 0.0003619194030761719
ell 54, elapsed: 0.00043487548828125
ell 53, elapsed: 0.0003619194030761719
ell 52, elapsed: 0.00043702125549316406
ell 51, elapsed: 0.00037384033203125
ell 50, elapsed: 0.00047206878662109375
ell 49, elapsed: 0.0004889965057373047
ell 48, elapsed: 0.0005860328674316406
ell 47, elapsed: 0.0003719329833984375
ell 46, elapsed: 0.0004410743713378906
ell 45, elapsed: 0.0003600120544433594
ell 44, elapsed: 0.0004391670227050781
ell 43, elapsed: 0.00038695335388183594
ell 42, elapsed: 0.0006339550018310547
ell 41, elapsed: 0.00042510032653808594
ell 40, elapsed: 0.0004589557647705078
ell 39, elapsed: 0.00037097930908203125
ell 38, elapsed: 0.0005710124969482422
ell 37, elapsed: 0.0004749298095703125
ell 36, elapsed: 0.0005199909210205078
ell 35, elapsed: 0.00037407875061035156
ell 34, elapsed: 0.0004470348358154297
ell 33, elapsed: 0.00036597251892089844
ell 32, elapsed: 0.00045108795166015625
ell 31, elapsed: 0.0003628730773925781
ell 30, elapsed: 0.0004379749298095703
ell 29, elapsed: 0.00040602684020996094
ell 28, elapsed: 0.0007359981536865234
ell 27, elapsed: 0.0003829002380371094
ell 26, elapsed: 0.0006101131439208984
ell 25, elapsed: 0.0004730224609375
ell 24, elapsed: 0.00046896934509277344
ell 23, elapsed: 0.00037598609924316406
ell 22, elapsed: 0.0004661083221435547
ell 21, elapsed: 0.0003840923309326172
ell 20, elapsed: 0.00045013427734375
ell 19, elapsed: 0.0003788471221923828
ell 18, elapsed: 0.0004680156707763672
ell 17, elapsed: 0.0003719329833984375
ell 16, elapsed: 0.0006289482116699219
ell 15, elapsed: 0.00047898292541503906
ell 14, elapsed: 0.00046181678771972656
ell 13, elapsed: 0.0003879070281982422
ell 12, elapsed: 0.0004718303680419922
ell 11, elapsed: 0.0004639625549316406
ell 10, elapsed: 0.0006029605865478516
ell 9, elapsed: 0.0003719329833984375
ell 8, elapsed: 0.0004439353942871094
ell 7, elapsed: 0.0003688335418701172
ell 6, elapsed: 0.0004420280456542969
ell 5, elapsed: 0.0004940032958984375
ell 4, elapsed: 0.0005769729614257812
ell 3, elapsed: 0.000370025634765625
ell 2, elapsed: 0.0004470348358154297
ell 1, elapsed: 0.00037097930908203125
ell 0, elapsed: 0.0005738735198974609
  0.160270 seconds (13.00 k allocations: 674.766 KiB)
elapsed: 0.0006501674652099609
step:          0.075762 sec (0 allocations: 0 byte, 0.0% gc time)
swapping:      0.000609 sec (0 allocations: 0 byte, 0.0% gc time)
calc_Mellell!: 0.001273 sec (0 allocations: 0 byte, 0.0% gc time)
  t0 :  0.000357 sec (0 allocations: 0 byte, 0.0% gc time)
  tm2 : 0.012502 sec (0 allocations: 0 byte, 0.0% gc time)
  tm2s: 0.000299 sec (0 allocations: 0 byte, 0.0% gc time)
  tm4 : 0.033096 sec (0 allocations: 0 byte, 0.0% gc time)
  tp2 : 0.0 sec (0 allocations: 0 byte, 0.0% gc time)
  tp2s: 0.0 sec (0 allocations: 0 byte, 0.0% gc time)
  tp4 : 0.0 sec (0 allocations: 0 byte, 0.0% gc time)
calc_wtdll!:   0.04695 sec (1.344 k allocations: 147.0 KB, 0.0% gc time)
calc_wljj!:    0.003988 sec (6 allocations: 96 byte, 0.0% gc time)
mult_prefac!:  0.0 sec (0 allocations: 0 byte, 0.0% gc time)
convert:       0.0 sec (0 allocations: 0 byte, 0.0% gc time)
write:         0.005598 sec (0 allocations: 0 byte, 0.0% gc time)
test_rand_2f1: 0.0 sec (0 allocations: 0 byte, 0.0% gc time)
Closing outfile out/Ml21-cache.bin...   0.003130 seconds
  0.002690 seconds (52 allocations: 28.297 KiB)
make_phi():   0.002831 seconds (8.20 k allocations: 238.016 KiB)
  0.021309 seconds (12.10 k allocations: 322.000 KiB)
tskip:       2.9e-5 sec (0 allocations: 0 byte, 0.0% gc time)
tread:       0.00302 sec (20 allocations: 2.188 KB, 0.0% gc time)
tmultphi:    0.001658 sec (0 allocations: 0 byte, 0.0% gc time)
tbrfft:      0.005659 sec (896 allocations: 42.0 KB, 0.0% gc time)
tmultprefac: 0.003823 sec (0 allocations: 0 byte, 0.0% gc time)
toutfunc:    0.006992 sec (10.528 k allocations: 206.5 KB, 0.0% gc time)
Testing R=0.9 ... passed
Calculating fmax: 
  dlrec    = 4
  dlrecRg1 = -4
  q=1.1, R=0.8:	  0.488186 seconds (145.59 k allocations: 68.095 MiB, 2.69% gc time)

  0.488420 seconds (145.66 k allocations: 68.127 MiB, 2.69% gc time)
ℓ = 1202
Δℓ = 4
ΔℓRg1 = -4
N = 1600
q = 1.1
kmin = 1.0e-5
kmax = 100000.00000000004
χ0 = 0.023029999999999995
RR = RR.tsv
ℓmax = ℓmax.bin
f21 = f21.bin
kmin = 1.0e-5
kmax = 100000.0
dlrec    = 4
dlrecRg1 = -4
Output size: 5741568 bytes = 0.005347251892089844 GiB
Output size: 51264 bytes = 4.774332046508789e-5 GiB
Reading 'out/F21EllCache'...   0.001930 seconds (271 allocations: 84.719 KiB)
ellmax: 1202
lmaxcache: 1202
fell[:,1,1] = Complex{Float64}[7.519068145690986e-120 - 1.8416405474382574e-135im, 7.541664537386155e-120 - 1.847175067190611e-135im]
ell 1202, elapsed: 3.218650817871094e-5
ell 1201, elapsed: 0.0003859996795654297
ell 1200, elapsed: 0.00033211708068847656
ell 1199, elapsed: 0.00033092498779296875
ell 1198, elapsed: 0.000331878662109375
ell 1002, elapsed: 0.009508132934570312
ell 1001, elapsed: 0.000392913818359375
ell 1000, elapsed: 0.0003399848937988281
ell 999, elapsed: 0.0003230571746826172
ell 998, elapsed: 0.0003199577331542969
ell 902, elapsed: 0.005048036575317383
ell 901, elapsed: 0.00034999847412109375
ell 900, elapsed: 0.00037217140197753906
ell 899, elapsed: 0.00033211708068847656
ell 898, elapsed: 0.00032210350036621094
ell 802, elapsed: 0.004900932312011719
ell 801, elapsed: 0.0003490447998046875
ell 800, elapsed: 0.0003249645233154297
ell 799, elapsed: 0.0003800392150878906
ell 798, elapsed: 0.00032591819763183594
ell 702, elapsed: 0.0047969818115234375
ell 701, elapsed: 0.00035691261291503906
ell 700, elapsed: 0.0003368854522705078
ell 699, elapsed: 0.0003268718719482422
ell 698, elapsed: 0.0003771781921386719
ell 602, elapsed: 0.0048830509185791016
ell 601, elapsed: 0.0003528594970703125
ell 600, elapsed: 0.0003209114074707031
ell 599, elapsed: 0.0003209114074707031
ell 598, elapsed: 0.0003459453582763672
ell 502, elapsed: 0.005204916000366211
ell 501, elapsed: 0.0003478527069091797
ell 500, elapsed: 0.0003218650817871094
ell 499, elapsed: 0.0003230571746826172
ell 498, elapsed: 0.00034308433532714844
ell 402, elapsed: 0.005620002746582031
ell 401, elapsed: 0.0003628730773925781
ell 400, elapsed: 0.0003209114074707031
ell 399, elapsed: 0.00034308433532714844
ell 398, elapsed: 0.0003590583801269531
ell 302, elapsed: 0.0047779083251953125
ell 301, elapsed: 0.00035500526428222656
ell 300, elapsed: 0.0003230571746826172
ell 299, elapsed: 0.0003228187561035156
ell 298, elapsed: 0.00034999847412109375
ell 202, elapsed: 0.004948854446411133
ell 201, elapsed: 0.00035500526428222656
ell 200, elapsed: 0.0003230571746826172
ell 199, elapsed: 0.0003299713134765625
ell 198, elapsed: 0.0003218650817871094
ell 152, elapsed: 0.0028650760650634766
ell 151, elapsed: 0.00037097930908203125
ell 150, elapsed: 0.0003211498260498047
ell 149, elapsed: 0.0003209114074707031
ell 148, elapsed: 0.0003218650817871094
ell 127, elapsed: 0.0017440319061279297
ell 126, elapsed: 0.0003459453582763672
ell 125, elapsed: 0.0003211498260498047
ell 124, elapsed: 0.0003211498260498047
ell 123, elapsed: 0.00037217140197753906
ell 114, elapsed: 0.0007719993591308594
ell 113, elapsed: 0.0003230571746826172
ell 112, elapsed: 0.00045108795166015625
ell 111, elapsed: 0.0003440380096435547
ell 110, elapsed: 0.0003619194030761719
ell 102, elapsed: 0.0008220672607421875
ell 101, elapsed: 0.0003218650817871094
ell 100, elapsed: 0.0003261566162109375
ell 99, elapsed: 0.0003490447998046875
ell 98, elapsed: 0.0003528594970703125
ell 97, elapsed: 0.0003998279571533203
ell 96, elapsed: 0.0004630088806152344
ell 95, elapsed: 0.00035500526428222656
ell 94, elapsed: 0.00045108795166015625
ell 93, elapsed: 0.00040602684020996094
ell 92, elapsed: 0.0004329681396484375
ell 91, elapsed: 0.0003509521484375
ell 90, elapsed: 0.0004241466522216797
ell 89, elapsed: 0.00034999847412109375
ell 88, elapsed: 0.0005140304565429688
ell 87, elapsed: 0.0003581047058105469
ell 86, elapsed: 0.0004291534423828125
ell 85, elapsed: 0.00034999847412109375
ell 84, elapsed: 0.0004279613494873047
ell 83, elapsed: 0.0005588531494140625
ell 82, elapsed: 0.00045299530029296875
ell 81, elapsed: 0.00034999847412109375
ell 80, elapsed: 0.00043702125549316406
ell 79, elapsed: 0.00034999847412109375
ell 78, elapsed: 0.0004601478576660156
ell 77, elapsed: 0.000701904296875
ell 76, elapsed: 0.00043892860412597656
ell 75, elapsed: 0.00035190582275390625
ell 74, elapsed: 0.00043392181396484375
ell 73, elapsed: 0.000431060791015625
ell 72, elapsed: 0.0004608631134033203
ell 71, elapsed: 0.00034999847412109375
ell 70, elapsed: 0.0004229545593261719
ell 69, elapsed: 0.0003459453582763672
ell 68, elapsed: 0.0004611015319824219
ell 67, elapsed: 0.0003991127014160156
ell 66, elapsed: 0.0004260540008544922
ell 65, elapsed: 0.0003490447998046875
ell 64, elapsed: 0.0004200935363769531
ell 63, elapsed: 0.0008640289306640625
ell 62, elapsed: 0.0004470348358154297
ell 61, elapsed: 0.0003490447998046875
ell 60, elapsed: 0.00042891502380371094
ell 59, elapsed: 0.0003478527069091797
ell 58, elapsed: 0.0005087852478027344
ell 57, elapsed: 0.00034999847412109375
ell 56, elapsed: 0.0004229545593261719
ell 55, elapsed: 0.0003581047058105469
ell 54, elapsed: 0.000431060791015625
ell 53, elapsed: 0.0004210472106933594
ell 52, elapsed: 0.00045180320739746094
ell 51, elapsed: 0.0003509521484375
ell 50, elapsed: 0.0004241466522216797
ell 49, elapsed: 0.00034999847412109375
ell 48, elapsed: 0.00045800209045410156
ell 47, elapsed: 0.0006968975067138672
ell 46, elapsed: 0.0004279613494873047
ell 45, elapsed: 0.00035190582275390625
ell 44, elapsed: 0.00041985511779785156
ell 43, elapsed: 0.00041294097900390625
ell 42, elapsed: 0.0004458427429199219
ell 41, elapsed: 0.0003490447998046875
ell 40, elapsed: 0.0004169940948486328
ell 39, elapsed: 0.0006709098815917969
[...]
ell 788, elapsed: 0.00061798095703125
ell 782, elapsed: 0.001132965087890625
ell 781, elapsed: 0.0006251335144042969
ell 780, elapsed: 0.000621795654296875
ell 779, elapsed: 0.0006170272827148438
ell 778, elapsed: 0.0006279945373535156
ell 772, elapsed: 0.0011169910430908203
ell 771, elapsed: 0.0006041526794433594
ell 770, elapsed: 0.0006139278411865234
ell 769, elapsed: 0.0006039142608642578
ell 768, elapsed: 0.0006339550018310547
ell 762, elapsed: 0.0011069774627685547
ell 761, elapsed: 0.0005979537963867188
ell 760, elapsed: 0.0005898475646972656
ell 759, elapsed: 0.0006020069122314453
ell 758, elapsed: 0.0006299018859863281
ell 752, elapsed: 0.0011188983917236328
ell 751, elapsed: 0.0006039142608642578
ell 750, elapsed: 0.0006091594696044922
ell 749, elapsed: 0.0006561279296875
ell 748, elapsed: 0.0006289482116699219
ell 742, elapsed: 0.0011398792266845703
ell 741, elapsed: 0.0005879402160644531
ell 740, elapsed: 0.0006101131439208984
ell 739, elapsed: 0.0006029605865478516
ell 738, elapsed: 0.0006279945373535156
ell 732, elapsed: 0.0011599063873291016
ell 731, elapsed: 0.0006000995635986328
ell 730, elapsed: 0.0006401538848876953
ell 729, elapsed: 0.000598907470703125
ell 728, elapsed: 0.0006189346313476562
ell 722, elapsed: 0.001110076904296875
ell 721, elapsed: 0.0006070137023925781
ell 720, elapsed: 0.0006079673767089844
ell 719, elapsed: 0.0006000995635986328
ell 718, elapsed: 0.0006110668182373047
ell 712, elapsed: 0.0011289119720458984
ell 711, elapsed: 0.0006041526794433594
ell 710, elapsed: 0.0006029605865478516
ell 709, elapsed: 0.0005931854248046875
ell 708, elapsed: 0.0006089210510253906
ell 702, elapsed: 0.00115203857421875
ell 701, elapsed: 0.0006167888641357422
ell 700, elapsed: 0.00061798095703125
ell 699, elapsed: 0.0006101131439208984
ell 698, elapsed: 0.0006129741668701172
ell 692, elapsed: 0.0011529922485351562
ell 691, elapsed: 0.0006117820739746094
ell 690, elapsed: 0.0006098747253417969
ell 689, elapsed: 0.0006091594696044922
ell 688, elapsed: 0.0006148815155029297
ell 682, elapsed: 0.0011401176452636719
ell 681, elapsed: 0.0005979537963867188
ell 680, elapsed: 0.0005960464477539062
ell 679, elapsed: 0.0005950927734375
ell 678, elapsed: 0.0006871223449707031
ell 672, elapsed: 0.0011169910430908203
ell 671, elapsed: 0.0005710124969482422
ell 670, elapsed: 0.0005810260772705078
ell 669, elapsed: 0.000576019287109375
ell 668, elapsed: 0.0005948543548583984
ell 662, elapsed: 0.0011649131774902344
ell 661, elapsed: 0.0005950927734375
ell 660, elapsed: 0.0005929470062255859
ell 659, elapsed: 0.0006048679351806641
ell 658, elapsed: 0.0005769729614257812
ell 652, elapsed: 0.001146078109741211
ell 651, elapsed: 0.0006020069122314453
ell 650, elapsed: 0.0007469654083251953
ell 649, elapsed: 0.0006880760192871094
ell 648, elapsed: 0.0006940364837646484
ell 642, elapsed: 0.0014140605926513672
ell 641, elapsed: 0.0006928443908691406
ell 640, elapsed: 0.0006899833679199219
ell 639, elapsed: 0.0007560253143310547
ell 638, elapsed: 0.0006899833679199219
ell 632, elapsed: 0.0013659000396728516
ell 631, elapsed: 0.0007028579711914062
ell 630, elapsed: 0.0006759166717529297
ell 629, elapsed: 0.0007140636444091797
ell 628, elapsed: 0.0007221698760986328
ell 622, elapsed: 0.001277923583984375
ell 621, elapsed: 0.0007460117340087891
ell 620, elapsed: 0.0006818771362304688
ell 619, elapsed: 0.0006728172302246094
ell 618, elapsed: 0.0007719993591308594
ell 612, elapsed: 0.0013060569763183594
ell 611, elapsed: 0.0007669925689697266
ell 610, elapsed: 0.0006959438323974609
ell 609, elapsed: 0.0006899833679199219
ell 608, elapsed: 0.0007290840148925781
ell 602, elapsed: 0.0013217926025390625
ell 601, elapsed: 0.0006868839263916016
ell 600, elapsed: 0.0007808208465576172
ell 599, elapsed: 0.0006768703460693359
ell 598, elapsed: 0.0006771087646484375
ell 592, elapsed: 0.0013921260833740234
ell 591, elapsed: 0.0006818771362304688
ell 590, elapsed: 0.0006999969482421875
ell 589, elapsed: 0.0006918907165527344
ell 588, elapsed: 0.0007278919219970703
ell 582, elapsed: 0.0013430118560791016
ell 581, elapsed: 0.0007009506225585938
ell 580, elapsed: 0.0007641315460205078
ell 579, elapsed: 0.0006811618804931641
ell 578, elapsed: 0.0006799697875976562
ell 572, elapsed: 0.0056989192962646484
ell 571, elapsed: 0.0007250308990478516
ell 570, elapsed: 0.0007789134979248047
ell 569, elapsed: 0.0006940364837646484
ell 568, elapsed: 0.000720977783203125
ell 562, elapsed: 0.0014400482177734375
ell 561, elapsed: 0.0006899833679199219
ell 560, elapsed: 0.0006849765777587891
ell 559, elapsed: 0.0007669925689697266
ell 558, elapsed: 0.0006928443908691406
ell 552, elapsed: 0.0013790130615234375
ell 551, elapsed: 0.0006890296936035156
ell 550, elapsed: 0.0006899833679199219
ell 549, elapsed: 0.0007817745208740234
ell 548, elapsed: 0.0006880760192871094
ell 542, elapsed: 0.0013899803161621094
ell 541, elapsed: 0.0007088184356689453
ell 540, elapsed: 0.0007009506225585938
ell 539, elapsed: 0.0008020401000976562
ell 538, elapsed: 0.0007290840148925781
ell 532, elapsed: 0.0013878345489501953
ell 531, elapsed: 0.0007011890411376953
ell 530, elapsed: 0.0006949901580810547
ell 529, elapsed: 0.0007619857788085938
ell 528, elapsed: 0.0006940364837646484
ell 522, elapsed: 0.001374959945678711
ell 521, elapsed: 0.0007250308990478516
ell 520, elapsed: 0.000682830810546875
ell 519, elapsed: 0.000701904296875
ell 518, elapsed: 0.0007231235504150391
ell 512, elapsed: 0.0013260841369628906
ell 511, elapsed: 0.000762939453125
ell 510, elapsed: 0.0006799697875976562
ell 509, elapsed: 0.0006809234619140625
ell 508, elapsed: 0.0007600784301757812
ell 502, elapsed: 0.0012919902801513672
ell 501, elapsed: 0.0007619857788085938
ell 500, elapsed: 0.0006780624389648438
ell 499, elapsed: 0.0006840229034423828
ell 498, elapsed: 0.0007741451263427734
ell 492, elapsed: 0.0012969970703125
ell 491, elapsed: 0.0007200241088867188
ell 490, elapsed: 0.0007140636444091797
ell 489, elapsed: 0.0006921291351318359
ell 488, elapsed: 0.0007109642028808594
ell 482, elapsed: 0.0013380050659179688
ell 481, elapsed: 0.0006780624389648438
ell 480, elapsed: 0.0007688999176025391
ell 479, elapsed: 0.0006740093231201172
ell 478, elapsed: 0.00067901611328125
ell 472, elapsed: 0.0013718605041503906
ell 471, elapsed: 0.0006880760192871094
ell 470, elapsed: 0.0007450580596923828
ell 469, elapsed: 0.0007181167602539062
ell 468, elapsed: 0.0006849765777587891
ell 462, elapsed: 0.0013628005981445312
ell 461, elapsed: 0.0006899833679199219
ell 460, elapsed: 0.00067901611328125
ell 459, elapsed: 0.0007491111755371094
ell 458, elapsed: 0.0006809234619140625
ell 452, elapsed: 0.0013709068298339844
ell 451, elapsed: 0.000698089599609375
ell 450, elapsed: 0.00067901611328125
ell 449, elapsed: 0.0007269382476806641
ell 448, elapsed: 0.0007081031799316406
ell 442, elapsed: 0.0013098716735839844
ell 441, elapsed: 0.0007700920104980469
ell 440, elapsed: 0.0006859302520751953
ell 439, elapsed: 0.0006837844848632812
ell 438, elapsed: 0.0007698535919189453
ell 432, elapsed: 0.0012650489807128906
ell 431, elapsed: 0.0005810260772705078
ell 430, elapsed: 0.0005869865417480469
ell 429, elapsed: 0.0005779266357421875
ell 428, elapsed: 0.0005919933319091797
ell 422, elapsed: 0.005464076995849609
ell 421, elapsed: 0.0008339881896972656
ell 420, elapsed: 0.0007369518280029297
ell 419, elapsed: 0.0008029937744140625
ell 418, elapsed: 0.0007719993591308594
ell 412, elapsed: 0.0014231204986572266
ell 411, elapsed: 0.0007638931274414062
ell 410, elapsed: 0.0007519721984863281
ell 409, elapsed: 0.0008170604705810547
ell 408, elapsed: 0.00074005126953125
ell 402, elapsed: 0.0014579296112060547
ell 401, elapsed: 0.0007660388946533203
ell 400, elapsed: 0.0007328987121582031
ell 399, elapsed: 0.0007989406585693359
ell 398, elapsed: 0.0007340908050537109
ell 392, elapsed: 0.0014820098876953125
ell 391, elapsed: 0.0007300376892089844
ell 390, elapsed: 0.0007770061492919922
ell 389, elapsed: 0.0007460117340087891
ell 388, elapsed: 0.0007431507110595703
ell 382, elapsed: 0.0014309883117675781
ell 381, elapsed: 0.0007059574127197266
ell 380, elapsed: 0.0008070468902587891
ell 379, elapsed: 0.0007331371307373047
ell 378, elapsed: 0.0007719993591308594
ell 372, elapsed: 0.0014159679412841797
ell 371, elapsed: 0.0009431838989257812
ell 370, elapsed: 0.0006880760192871094
ell 369, elapsed: 0.0006749629974365234
ell 368, elapsed: 0.0007600784301757812
ell 362, elapsed: 0.0015010833740234375
ell 361, elapsed: 0.0008511543273925781
ell 360, elapsed: 0.0007698535919189453
ell 359, elapsed: 0.0008399486541748047
ell 358, elapsed: 0.0008549690246582031
ell 352, elapsed: 0.0015261173248291016
ell 351, elapsed: 0.0008020401000976562
ell 350, elapsed: 0.0008990764617919922
ell 349, elapsed: 0.0008139610290527344
ell 348, elapsed: 0.0008060932159423828
ell 342, elapsed: 0.0015230178833007812
ell 341, elapsed: 0.0008080005645751953
ell 340, elapsed: 0.0008680820465087891
ell 339, elapsed: 0.0008008480072021484
ell 338, elapsed: 0.0008840560913085938
ell 332, elapsed: 0.0014328956604003906
ell 331, elapsed: 0.0008749961853027344
ell 330, elapsed: 0.0008020401000976562
ell 329, elapsed: 0.0008740425109863281
ell 328, elapsed: 0.0008571147918701172
ell 322, elapsed: 0.0014660358428955078
ell 321, elapsed: 0.0008270740509033203
ell 320, elapsed: 0.0006799697875976562
ell 319, elapsed: 0.0007178783416748047
ell 318, elapsed: 0.0007050037384033203
ell 312, elapsed: 0.0013020038604736328
ell 311, elapsed: 0.0009510517120361328
ell 310, elapsed: 0.0008111000061035156
ell 309, elapsed: 0.0008871555328369141
ell 308, elapsed: 0.000804901123046875
ell 302, elapsed: 0.0016281604766845703
ell 301, elapsed: 0.0008029937744140625
ell 300, elapsed: 0.0008130073547363281
ell 299, elapsed: 0.0008909702301025391
ell 298, elapsed: 0.0008018016815185547
ell 292, elapsed: 0.0015048980712890625
ell 291, elapsed: 0.0008070468902587891
ell 290, elapsed: 0.0008318424224853516
ell 289, elapsed: 0.0006718635559082031
ell 288, elapsed: 0.0006771087646484375
ell 282, elapsed: 0.001371145248413086
ell 281, elapsed: 0.0008828639984130859
ell 280, elapsed: 0.000759124755859375
ell 279, elapsed: 0.0006730556488037109
ell 278, elapsed: 0.0006718635559082031
ell 272, elapsed: 0.0014998912811279297
ell 271, elapsed: 0.0006811618804931641
ell 270, elapsed: 0.0007381439208984375
ell 269, elapsed: 0.0006949901580810547
ell 268, elapsed: 0.0006802082061767578
ell 262, elapsed: 0.0015740394592285156
ell 261, elapsed: 0.0006749629974365234
ell 260, elapsed: 0.0007050037384033203
ell 259, elapsed: 0.0007138252258300781
ell 258, elapsed: 0.0006749629974365234
ell 252, elapsed: 0.0013890266418457031
ell 251, elapsed: 0.000675201416015625
ell 250, elapsed: 0.00067901611328125
ell 249, elapsed: 0.0007510185241699219
ell 248, elapsed: 0.0008780956268310547
ell 242, elapsed: 0.001371145248413086
ell 241, elapsed: 0.0006711483001708984
ell 240, elapsed: 0.0006740093231201172
ell 239, elapsed: 0.0008599758148193359
ell 238, elapsed: 0.0006759166717529297
ell 232, elapsed: 0.0013501644134521484
ell 231, elapsed: 0.000698089599609375
ell 230, elapsed: 0.0007970333099365234
ell 229, elapsed: 0.0007338523864746094
ell 228, elapsed: 0.0006999969482421875
ell 222, elapsed: 0.0013360977172851562
ell 221, elapsed: 0.0008637905120849609
ell 220, elapsed: 0.0006799697875976562
ell 219, elapsed: 0.0006721019744873047
ell 218, elapsed: 0.0007419586181640625
ell 212, elapsed: 0.0012979507446289062
ell 211, elapsed: 0.0010352134704589844
ell 210, elapsed: 0.0006880760192871094
ell 209, elapsed: 0.0006840229034423828
ell 208, elapsed: 0.0007529258728027344
ell 202, elapsed: 0.00131988525390625
ell 201, elapsed: 0.0007750988006591797
ell 200, elapsed: 0.0006840229034423828
ell 199, elapsed: 0.0006799697875976562
ell 198, elapsed: 0.0007569789886474609
ell 192, elapsed: 0.0013859272003173828
ell 191, elapsed: 0.0007450580596923828
ell 190, elapsed: 0.0006999969482421875
ell 189, elapsed: 0.0006799697875976562
ell 188, elapsed: 0.0007379055023193359
ell 182, elapsed: 0.0013420581817626953
ell 181, elapsed: 0.00067901611328125
ell 180, elapsed: 0.0007619857788085938
ell 179, elapsed: 0.0006849765777587891
ell 178, elapsed: 0.0006909370422363281
ell 172, elapsed: 0.0013780593872070312
ell 171, elapsed: 0.0006849765777587891
ell 170, elapsed: 0.0007569789886474609
ell 169, elapsed: 0.0006918907165527344
ell 168, elapsed: 0.000682830810546875
ell 162, elapsed: 0.0013909339904785156
ell 161, elapsed: 0.0006768703460693359
ell 160, elapsed: 0.000701904296875
ell 159, elapsed: 0.0007238388061523438
ell 158, elapsed: 0.0006780624389648438
ell 152, elapsed: 0.0013768672943115234
ell 151, elapsed: 0.0006809234619140625
ell 150, elapsed: 0.0006940364837646484
ell 149, elapsed: 0.0007560253143310547
ell 148, elapsed: 0.0006818771362304688
ell 142, elapsed: 0.0013461112976074219
ell 141, elapsed: 0.0007131099700927734
ell 140, elapsed: 0.0006818771362304688
ell 139, elapsed: 0.0007050037384033203
ell 138, elapsed: 0.0007119178771972656
ell 132, elapsed: 0.0012919902801513672
ell 131, elapsed: 0.0007700920104980469
ell 130, elapsed: 0.0006780624389648438
ell 129, elapsed: 0.0006749629974365234
ell 128, elapsed: 0.0007610321044921875
ell 122, elapsed: 0.0013129711151123047
ell 121, elapsed: 0.0007758140563964844
ell 120, elapsed: 0.0006899833679199219
ell 119, elapsed: 0.0006811618804931641
ell 118, elapsed: 0.0007359981536865234
ell 112, elapsed: 0.0013461112976074219
ell 111, elapsed: 0.0006818771362304688
ell 110, elapsed: 0.0007691383361816406
ell 109, elapsed: 0.0006749629974365234
ell 108, elapsed: 0.0006759166717529297
ell 102, elapsed: 0.0013568401336669922
ell 101, elapsed: 0.0029249191284179688
ell 100, elapsed: 0.0029790401458740234
ell 99, elapsed: 0.002946138381958008
ell 98, elapsed: 0.003153085708618164
ell 92, elapsed: 0.005738973617553711
ell 91, elapsed: 0.0031290054321289062
ell 90, elapsed: 0.0032129287719726562
ell 89, elapsed: 0.003183126449584961
ell 88, elapsed: 0.0029249191284179688
ell 82, elapsed: 0.005616903305053711
ell 81, elapsed: 0.0021250247955322266
ell 80, elapsed: 0.002151012420654297
ell 79, elapsed: 0.002129077911376953
ell 78, elapsed: 0.00321197509765625
ell 72, elapsed: 0.0060901641845703125
ell 71, elapsed: 0.004060983657836914
ell 70, elapsed: 0.0033969879150390625
ell 69, elapsed: 0.004213094711303711
ell 68, elapsed: 0.0040400028228759766
ell 62, elapsed: 0.006064891815185547
ell 61, elapsed: 0.003660917282104492
ell 60, elapsed: 0.003225088119506836
ell 59, elapsed: 0.003751993179321289
ell 58, elapsed: 0.0036280155181884766
ell 52, elapsed: 0.007771968841552734
ell 51, elapsed: 0.003641843795776367
ell 50, elapsed: 0.003365039825439453
ell 49, elapsed: 0.003053903579711914
ell 48, elapsed: 0.003342151641845703
ell 42, elapsed: 0.0062410831451416016
ell 41, elapsed: 0.0030541419982910156
ell 40, elapsed: 0.0035469532012939453
ell 39, elapsed: 0.003262042999267578
ell 38, elapsed: 0.0035779476165771484
ell 32, elapsed: 0.006520986557006836
ell 31, elapsed: 0.003832101821899414
ell 30, elapsed: 0.00302886962890625
ell 29, elapsed: 0.0035970211029052734
ell 28, elapsed: 0.0036389827728271484
ell 22, elapsed: 0.00655817985534668
ell 21, elapsed: 0.004117012023925781
ell 20, elapsed: 0.0032958984375
ell 19, elapsed: 0.0038251876831054688
ell 18, elapsed: 0.0030798912048339844
ell 12, elapsed: 0.006840944290161133
ell 11, elapsed: 0.0036580562591552734
ell 10, elapsed: 0.0037848949432373047
ell 9, elapsed: 0.004004955291748047
ell 8, elapsed: 0.004052877426147461
  0.744113 seconds (74.15 k allocations: 12.051 MiB)
elapsed: 0.004203081130981445
step:          0.06505 sec (0 allocations: 0 byte, 0.0% gc time)
swapping:      0.000671 sec (0 allocations: 0 byte, 0.0% gc time)
calc_Mellell!: 0.029743 sec (0 allocations: 0 byte, 0.0% gc time)
  t0 :  0.009533 sec (0 allocations: 0 byte, 0.0% gc time)
  tm2 : 0.062847 sec (0 allocations: 0 byte, 0.0% gc time)
  tm2s: 0.008049 sec (0 allocations: 0 byte, 0.0% gc time)
  tm4 : 0.155593 sec (0 allocations: 0 byte, 0.0% gc time)
  tp2 : 0.0 sec (0 allocations: 0 byte, 0.0% gc time)
  tp2s: 0.0 sec (0 allocations: 0 byte, 0.0% gc time)
  tp4 : 0.0 sec (0 allocations: 0 byte, 0.0% gc time)
calc_wtdll!:   0.472156 sec (49.2 k allocations: 11.133 MB, 0.0% gc time)
calc_wljj!:    0.037876 sec (69 allocations: 1.078 KB, 0.0% gc time)
mult_prefac!:  0.0 sec (0 allocations: 0 byte, 0.0% gc time)
convert:       0.0 sec (0 allocations: 0 byte, 0.0% gc time)
write:         0.033215 sec (0 allocations: 0 byte, 0.0% gc time)
test_rand_2f1: 0.0 sec (0 allocations: 0 byte, 0.0% gc time)
Closing outfile out/MlCache/MlCache.bin...   0.000008 seconds
xi, l=0, nu=0:   0.350560 seconds (556.07 k allocations: 27.070 MiB)
xi, l=0, nu=-2:  0.001996 seconds (144 allocations: 149.563 KiB)
Created 'out/xi.tsv'.
  q=1.1, R=0.6:	  1.114584 seconds (373.06 k allocations: 174.511 MiB, 4.36% gc time)
  q=1.1, R=0.7:	  1.123389 seconds (391.29 k allocations: 182.916 MiB, 1.75% gc time)
  q=1.1, R=0.8:	  1.236959 seconds (383.81 k allocations: 179.466 MiB, 1.64% gc time)
  q=1.1, R=0.9:	  1.262132 seconds (376.40 k allocations: 176.056 MiB, 1.59% gc time)
  q=1.1, R=0.998:	 20.557793 seconds (10.67 M allocations: 831.832 MiB, 0.56% gc time)
  q=1.1, R=1.0:	  0.079538 seconds (12.29 k allocations: 9.129 MiB, 7.83% gc time)

ℓ = 1000
Δℓ = 4
ΔℓRg1 = -4
N = 4096
q = 1.1
kmin = 1.0e-5
kmax = 1000.0
χ0 = 0.001
RR = RR.tsv
ℓmax = ℓmax.bin
f21 = f21.bin
kmin = 1.0e-5
kmax = 1000.0
dlrec    = 4
dlrecRg1 = -4
Output size: 1573632 bytes = 0.0014655590057373047 GiB
Output size: 786816 bytes = 0.0007327795028686523 GiB
Reading 'out/F21EllCache'...   0.001727 seconds (272 allocations: 533.594 KiB)
ellmax: 1002
lmaxcache: 1000
fell[:,1,1] = Complex{Float64}[1.7262928128202118e-224 - 4.2281979352226944e-240im, 1.7282693092099662e-224 - 4.233038955177176e-240im]
ell 1002, elapsed: 4.00543212890625e-5
ell 1001, elapsed: 0.0012638568878173828
ell 1000, elapsed: 0.0012919902801513672
ell 999, elapsed: 0.007231950759887695
ell 998, elapsed: 0.011322975158691406
ell 44, elapsed: 0.7838249206542969
ell 43, elapsed: 0.00497889518737793
ell 42, elapsed: 0.004991054534912109
ell 41, elapsed: 0.005323886871337891
ell 40, elapsed: 0.00505518913269043
  0.833038 seconds (4.64 k allocations: 318.000 KiB)
elapsed: 0.006953001022338867
step:          0.774385 sec (0 allocations: 0 byte, 0.0% gc time)
swapping:      0.000679 sec (0 allocations: 0 byte, 0.0% gc time)
calc_Mellell!: 0.001237 sec (0 allocations: 0 byte, 0.0% gc time)
  t0 :  0.000948 sec (0 allocations: 0 byte, 0.0% gc time)
  tm2 : 0.010082 sec (0 allocations: 0 byte, 0.0% gc time)
  tm2s: 0.008938 sec (0 allocations: 0 byte, 0.0% gc time)
  tm4 : 0.028108 sec (0 allocations: 0 byte, 0.0% gc time)
  tp2 : 0.0 sec (0 allocations: 0 byte, 0.0% gc time)
  tp2s: 0.0 sec (0 allocations: 0 byte, 0.0% gc time)
  tp4 : 0.0 sec (0 allocations: 0 byte, 0.0% gc time)
calc_wtdll!:   0.048387 sec (480 allocations: 52.5 KB, 0.0% gc time)
calc_wljj!:    0.001451 sec (1 allocations: 16 byte, 0.0% gc time)
mult_prefac!:  0.0 sec (0 allocations: 0 byte, 0.0% gc time)
convert:       0.0 sec (0 allocations: 0 byte, 0.0% gc time)
write:         0.001027 sec (0 allocations: 0 byte, 0.0% gc time)
test_rand_2f1: 0.0 sec (0 allocations: 0 byte, 0.0% gc time)
Closing outfile out/MlCache/MlCache.bin...   0.000322 seconds
  0.549787 seconds (54 allocations: 67.203 KiB)
make_phi():   0.010794 seconds (80 allocations: 276.297 KiB)
  0.004498 seconds (108 allocations: 5.813 KiB)
tskip:       1.1e-5 sec (0 allocations: 0 byte, 0.0% gc time)
tread:       0.000734 sec (20 allocations: 1.328 KB, 0.0% gc time)
tmultphi:    0.000306 sec (0 allocations: 0 byte, 0.0% gc time)
tbrfft:      0.002018 sec (96 allocations: 4.5 KB, 0.0% gc time)
tmultprefac: 0.001258 sec (0 allocations: 0 byte, 0.0% gc time)
toutfunc:    0.000299 sec (0 allocations: 0 byte, 0.0% gc time)
Created 'out/wl42_jj00.tsv'.
Created 'out/wl42_jj02.tsv'.
   Testing TwoFAST tests passed 
