Running tests with Julia v1.3.1-pre.12
   Cloning default registries into `~/.julia`
   Cloning registry from "https://github.com/JuliaRegistries/General.git"
[?25l    Fetching: [>                                        ]  0.0 %    Fetching: [============>                            ]  28.8 %    Fetching: [=========================>               ]  61.5 %[2K[?25h     Added registry `General` to `~/.julia/registries/General`
 Resolving package versions...
 Installed URIParser ──────── v0.4.0
 Installed VersionParsing ─── v1.1.3
 Installed Conda ──────────── v1.3.0
 Installed BinDeps ────────── v1.0.0
 Installed SpecialFunctions ─ v0.8.0
 Installed JSON ───────────── v0.21.0
 Installed AbstractAlgebra ── v0.7.1
 Installed BinaryProvider ─── v0.5.8
 Installed IncGammaBeta ───── v0.1.0
 Installed Parsers ────────── v0.3.10
 Installed Reexport ───────── v0.2.0
 Installed Compat ─────────── v2.2.0
 Installed AbstractFFTs ───── v0.5.0
 Installed FFTW ───────────── v1.1.0
 Installed TwoFAST ────────── v0.1.0
 Installed Nemo ───────────── v0.15.1
  Updating `~/.julia/environments/v1.3/Project.toml`
  [0dd23c3e] + TwoFAST v0.1.0
  Updating `~/.julia/environments/v1.3/Manifest.toml`
  [c3fe647b] + AbstractAlgebra v0.7.1
  [621f4979] + AbstractFFTs v0.5.0
  [9e28174c] + BinDeps v1.0.0
  [b99e7846] + BinaryProvider v0.5.8
  [34da2185] + Compat v2.2.0
  [8f4d0f93] + Conda v1.3.0
  [7a1cc6ca] + FFTW v1.1.0
  [5087d2c0] + IncGammaBeta v0.1.0
  [682c06a0] + JSON v0.21.0
  [2edaba10] + Nemo v0.15.1
  [69de0a69] + Parsers v0.3.10
  [189a3867] + Reexport v0.2.0
  [276daf66] + SpecialFunctions v0.8.0
  [0dd23c3e] + TwoFAST v0.1.0
  [30578b45] + URIParser v0.4.0
  [81def892] + VersionParsing v1.1.3
  [2a0f44e3] + Base64 
  [ade2ca70] + Dates 
  [8bb1440f] + DelimitedFiles 
  [8ba89e20] + Distributed 
  [b77e0a4c] + InteractiveUtils 
  [76f85450] + LibGit2 
  [8f399da3] + Libdl 
  [37e2e46d] + LinearAlgebra 
  [56ddb016] + Logging 
  [d6f4376e] + Markdown 
  [a63ad114] + Mmap 
  [44cfe95a] + Pkg 
  [de0858da] + Printf 
  [3fa0cd96] + REPL 
  [9a3f8284] + Random 
  [ea8e919c] + SHA 
  [9e88b42a] + Serialization 
  [1a1011a3] + SharedArrays 
  [6462fe0b] + Sockets 
  [2f01184e] + SparseArrays 
  [10745b16] + Statistics 
  [8dfed614] + Test 
  [cf7118a7] + UUIDs 
  [4ec0a83e] + Unicode 
  Building SpecialFunctions → `~/.julia/packages/SpecialFunctions/ne2iw/deps/build.log`
  Building Conda ───────────→ `~/.julia/packages/Conda/kLXeC/deps/build.log`
  Building FFTW ────────────→ `~/.julia/packages/FFTW/loJ3F/deps/build.log`
  Building Nemo ────────────→ `~/.julia/packages/Nemo/qzx0m/deps/build.log`
   Testing TwoFAST
 Resolving package versions...
 Installed Dierckx ─ v0.4.1
  Building Dierckx → `~/.julia/packages/Dierckx/9SY4A/deps/build.log`
    Status `/tmp/jl_rvelHB/Manifest.toml`
  [c3fe647b] AbstractAlgebra v0.7.1
  [621f4979] AbstractFFTs v0.5.0
  [9e28174c] BinDeps v1.0.0
  [b99e7846] BinaryProvider v0.5.8
  [34da2185] Compat v2.2.0
  [8f4d0f93] Conda v1.3.0
  [39dd38d3] Dierckx v0.4.1
  [7a1cc6ca] FFTW v1.1.0
  [5087d2c0] IncGammaBeta v0.1.0
  [682c06a0] JSON v0.21.0
  [2edaba10] Nemo v0.15.1
  [69de0a69] Parsers v0.3.10
  [189a3867] Reexport v0.2.0
  [276daf66] SpecialFunctions v0.8.0
  [0dd23c3e] TwoFAST v0.1.0
  [30578b45] URIParser v0.4.0
  [81def892] VersionParsing v1.1.3
  [2a0f44e3] Base64  [`@stdlib/Base64`]
  [ade2ca70] Dates  [`@stdlib/Dates`]
  [8bb1440f] DelimitedFiles  [`@stdlib/DelimitedFiles`]
  [8ba89e20] Distributed  [`@stdlib/Distributed`]
  [b77e0a4c] InteractiveUtils  [`@stdlib/InteractiveUtils`]
  [76f85450] LibGit2  [`@stdlib/LibGit2`]
  [8f399da3] Libdl  [`@stdlib/Libdl`]
  [37e2e46d] LinearAlgebra  [`@stdlib/LinearAlgebra`]
  [56ddb016] Logging  [`@stdlib/Logging`]
  [d6f4376e] Markdown  [`@stdlib/Markdown`]
  [a63ad114] Mmap  [`@stdlib/Mmap`]
  [44cfe95a] Pkg  [`@stdlib/Pkg`]
  [de0858da] Printf  [`@stdlib/Printf`]
  [3fa0cd96] REPL  [`@stdlib/REPL`]
  [9a3f8284] Random  [`@stdlib/Random`]
  [ea8e919c] SHA  [`@stdlib/SHA`]
  [9e88b42a] Serialization  [`@stdlib/Serialization`]
  [1a1011a3] SharedArrays  [`@stdlib/SharedArrays`]
  [6462fe0b] Sockets  [`@stdlib/Sockets`]
  [2f01184e] SparseArrays  [`@stdlib/SparseArrays`]
  [10745b16] Statistics  [`@stdlib/Statistics`]
  [8dfed614] Test  [`@stdlib/Test`]
  [cf7118a7] UUIDs  [`@stdlib/UUIDs`]
  [4ec0a83e] Unicode  [`@stdlib/Unicode`]

Welcome to Nemo version 0.15.1

Nemo comes with absolutely no warranty whatsoever


Welcome to Nemo version 0.15.1

Nemo comes with absolutely no warranty whatsoever

Testing ξ(r), ℓ=0, ν=-1 ... passed
Testing ξ(r), ℓ=0, ν=0 ... passed
Testing ξ(r), ℓ=0, ν=1 ... passed
Testing ξ(r), ℓ=0, ν=2 ... passed
Testing ξ(r), ℓ=0, ν=3 ... passed
Testing ξ(r), ℓ=1, ν=0 ... passed
Testing ξ(r), ℓ=1, ν=1 ... passed
Testing ξ(r), ℓ=1, ν=2 ... passed
Testing ξ(r), ℓ=1, ν=3 ... passed
Testing ξ(r), ℓ=2, ν=-1 ... passed
Testing ξ(r), ℓ=2, ν=0 ... passed
Testing ξ(r), ℓ=2, ν=1 ... passed
Testing ξ(r), ℓ=2, ν=2 ... passed
Testing ξ(r), ℓ=2, ν=3 ... passed
Testing ξ(r), ℓ=3, ν=-1 ... passed
Testing ξ(r), ℓ=3, ν=0 ... passed
Testing ξ(r), ℓ=3, ν=1 ... passed
Testing ξ(r), ℓ=3, ν=2 ... passed
Testing ξ(r), ℓ=3, ν=3 ... passed
Testing ξ(r), ℓ=4, ν=-1 ... passed
Testing ξ(r), ℓ=4, ν=0 ... passed
Testing ξ(r), ℓ=4, ν=1 ... passed
Testing ξ(r), ℓ=4, ν=2 ... passed
Testing ξ(r), ℓ=4, ν=3 ... passed
Testing ξ(r) ... passed
Testing ξ′(r) ... passed
Testing ξ″(r) ... passed
Calculating fmax: 
  dlrec    = 4
  dlrecRg1 = -4
  q=1.1, R=1.1:	  3.818301 seconds (1.11 M allocations: 119.130 MiB, 3.17% gc time)

  3.846023 seconds (1.11 M allocations: 119.487 MiB, 3.14% gc time)
ℓ = 1202
Δℓ = 4
ΔℓRg1 = -4
N = 1600
q = 1.1
kmin = 1.0e-5
kmax = 100000.00000000004
χ0 = 0.023029999999999995
RR = RR.tsv
ℓmax = ℓmax.bin
f21 = f21.bin
kmin = 1.0e-5
kmax = 100000.0
dlrec    = 4
dlrecRg1 = -4
Output size: 5741568 bytes = 0.005347251892089844 GiB
Output size: 51264 bytes = 4.774332046508789e-5 GiB
Reading 'out/F21EllCache'...   0.752534 seconds (348.12 k allocations: 17.864 MiB, 5.61% gc time)
ellmax: 1202
lmaxcache: 1202
fell[:,1,1] = Complex{Float64}[3.9583795592771634e-52 - 9.695233714158177e-68im, 3.990121772925759e-52 - 9.772979714843386e-68im]
ell 1202, elapsed: 0.0036580562591552734
ell 1201, elapsed: 2.3978490829467773
ell 1200, elapsed: 0.0005400180816650391
ell 1199, elapsed: 0.0005488395690917969
ell 1198, elapsed: 0.0004980564117431641
ell 1002, elapsed: 0.011642932891845703
ell 1001, elapsed: 0.0005199909210205078
ell 1000, elapsed: 0.0005259513854980469
ell 999, elapsed: 0.0005230903625488281
ell 998, elapsed: 0.0005259513854980469
ell 902, elapsed: 0.006040811538696289
ell 901, elapsed: 0.0005230903625488281
ell 900, elapsed: 0.0006530284881591797
ell 899, elapsed: 0.0005319118499755859
ell 898, elapsed: 0.0005240440368652344
ell 802, elapsed: 0.006448030471801758
ell 801, elapsed: 0.0005269050598144531
ell 800, elapsed: 0.0005240440368652344
ell 799, elapsed: 0.0006020069122314453
ell 798, elapsed: 0.0005769729614257812
ell 702, elapsed: 0.006022930145263672
ell 701, elapsed: 0.0005691051483154297
ell 700, elapsed: 0.0006880760192871094
ell 699, elapsed: 0.0005500316619873047
ell 698, elapsed: 0.0005199909210205078
ell 602, elapsed: 0.006916999816894531
ell 601, elapsed: 0.0006690025329589844
ell 600, elapsed: 0.0006270408630371094
ell 599, elapsed: 0.0006320476531982422
ell 598, elapsed: 0.0006120204925537109
ell 502, elapsed: 0.006819963455200195
ell 501, elapsed: 0.0006170272827148438
ell 500, elapsed: 0.0006101131439208984
ell 499, elapsed: 0.0006129741668701172
ell 498, elapsed: 0.0006029605865478516
ell 402, elapsed: 0.006855010986328125
ell 401, elapsed: 0.0006110668182373047
ell 400, elapsed: 0.000637054443359375
ell 399, elapsed: 0.000614166259765625
ell 398, elapsed: 0.0005950927734375
ell 302, elapsed: 0.006786823272705078
ell 301, elapsed: 0.0006401538848876953
ell 300, elapsed: 0.0005848407745361328
ell 299, elapsed: 0.0005950927734375
ell 298, elapsed: 0.0005888938903808594
ell 202, elapsed: 0.006494998931884766
ell 201, elapsed: 0.0008230209350585938
ell 200, elapsed: 0.0008540153503417969
ell 199, elapsed: 0.0008139610290527344
ell 198, elapsed: 0.0008561611175537109
ell 152, elapsed: 0.004609823226928711
ell 151, elapsed: 0.0009109973907470703
ell 150, elapsed: 0.0008759498596191406
ell 149, elapsed: 0.0008671283721923828
ell 148, elapsed: 0.0008130073547363281
ell 127, elapsed: 0.0022919178009033203
ell 126, elapsed: 0.0006530284881591797
ell 125, elapsed: 0.0006690025329589844
ell 124, elapsed: 0.000675201416015625
ell 123, elapsed: 0.0006258487701416016
ell 114, elapsed: 0.0012531280517578125
ell 113, elapsed: 0.0006740093231201172
ell 112, elapsed: 0.000659942626953125
ell 111, elapsed: 0.0006668567657470703
ell 110, elapsed: 0.0006871223449707031
ell 102, elapsed: 0.001466989517211914
ell 101, elapsed: 0.0010249614715576172
ell 100, elapsed: 0.001007080078125
ell 99, elapsed: 0.00102996826171875
ell 98, elapsed: 0.0010318756103515625
ell 97, elapsed: 0.0010950565338134766
ell 96, elapsed: 0.0012969970703125
ell 95, elapsed: 0.0010690689086914062
ell 94, elapsed: 0.0009989738464355469
ell 93, elapsed: 0.0007300376892089844
ell 92, elapsed: 0.0008440017700195312
ell 91, elapsed: 0.0007338523864746094
ell 90, elapsed: 0.0008509159088134766
ell 89, elapsed: 0.0007188320159912109
ell 88, elapsed: 0.0008530616760253906
ell 87, elapsed: 0.0007460117340087891
ell 86, elapsed: 0.0008230209350585938
ell 85, elapsed: 0.0008041858673095703
ell 84, elapsed: 0.0008370876312255859
ell 83, elapsed: 0.0007410049438476562
ell 82, elapsed: 0.0008389949798583984
ell 81, elapsed: 0.0007231235504150391
ell 80, elapsed: 0.000823974609375
ell 79, elapsed: 0.0007150173187255859
ell 78, elapsed: 0.0008409023284912109
ell 77, elapsed: 0.0007240772247314453
ell 76, elapsed: 0.0008609294891357422
ell 75, elapsed: 0.0007250308990478516
ell 74, elapsed: 0.0008428096771240234
ell 73, elapsed: 0.0007560253143310547
ell 72, elapsed: 0.0008499622344970703
ell 71, elapsed: 0.0007379055023193359
ell 70, elapsed: 0.0008409023284912109
ell 69, elapsed: 0.0007309913635253906
ell 68, elapsed: 0.0008399486541748047
ell 67, elapsed: 0.0007250308990478516
ell 66, elapsed: 0.0008280277252197266
ell 65, elapsed: 0.0007109642028808594
ell 64, elapsed: 0.0008089542388916016
ell 63, elapsed: 0.000720977783203125
ell 62, elapsed: 0.0008399486541748047
ell 61, elapsed: 0.0007340908050537109
ell 60, elapsed: 0.00084686279296875
ell 59, elapsed: 0.0007359981536865234
ell 58, elapsed: 0.0008320808410644531
ell 57, elapsed: 0.0007190704345703125
ell 56, elapsed: 0.0008399486541748047
ell 55, elapsed: 0.0007328987121582031
ell 54, elapsed: 0.0008461475372314453
ell 53, elapsed: 0.0006549358367919922
ell 52, elapsed: 0.0007719993591308594
ell 51, elapsed: 0.0007488727569580078
ell 50, elapsed: 0.0008590221405029297
ell 49, elapsed: 0.000659942626953125
ell 48, elapsed: 0.0007579326629638672
ell 47, elapsed: 0.0006611347198486328
ell 46, elapsed: 0.0007691383361816406
ell 45, elapsed: 0.0007300376892089844
ell 44, elapsed: 0.0008258819580078125
ell 43, elapsed: 0.0006577968597412109
ell 42, elapsed: 0.0007619857788085938
ell 41, elapsed: 0.0006639957427978516
ell 40, elapsed: 0.0007889270782470703
ell 39, elapsed: 0.0006470680236816406
ell 38, elapsed: 0.0007669925689697266
ell 37, elapsed: 0.0006289482116699219
ell 36, elapsed: 0.0007131099700927734
ell 35, elapsed: 0.0006330013275146484
ell 34, elapsed: 0.0007169246673583984
ell 33, elapsed: 0.000637054443359375
ell 32, elapsed: 0.0005340576171875
ell 31, elapsed: 0.00045990943908691406
ell 30, elapsed: 0.0005128383636474609
ell 29, elapsed: 0.00045609474182128906
ell 28, elapsed: 0.0005190372467041016
ell 27, elapsed: 0.00045800209045410156
ell 26, elapsed: 0.0005669593811035156
ell 25, elapsed: 0.0006468296051025391
ell 24, elapsed: 0.0007328987121582031
ell 23, elapsed: 0.0006320476531982422
ell 22, elapsed: 0.0007410049438476562
ell 21, elapsed: 0.0006499290466308594
ell 20, elapsed: 0.0007460117340087891
ell 19, elapsed: 0.0006420612335205078
ell 18, elapsed: 0.0007359981536865234
ell 17, elapsed: 0.0006349086761474609
ell 16, elapsed: 0.0007538795471191406
ell 15, elapsed: 0.0006639957427978516
ell 14, elapsed: 0.0007269382476806641
ell 13, elapsed: 0.0006299018859863281
ell 12, elapsed: 0.0007190704345703125
ell 11, elapsed: 0.0006330013275146484
ell 10, elapsed: 0.0007350444793701172
ell 9, elapsed: 0.000637054443359375
ell 8, elapsed: 0.0007228851318359375
ell 7, elapsed: 0.0006411075592041016
ell 6, elapsed: 0.0007410049438476562
ell 5, elapsed: 0.0006389617919921875
ell 4, elapsed: 0.0007219314575195312
ell 3, elapsed: 0.000637054443359375
ell 2, elapsed: 0.0007200241088867188
ell 1, elapsed: 0.0006349086761474609
ell 0, elapsed: 0.0007290840148925781
  2.767323 seconds (1.51 M allocations: 74.525 MiB, 2.00% gc time)
elapsed: 0.001116037368774414
step:          0.798025 sec (478.154 k allocations: 23.745 MB, 0.0% gc time)
swapping:      0.000668 sec (0 allocations: 0 byte, 0.0% gc time)
calc_Mellell!: 0.595792 sec (371.703 k allocations: 18.416 MB, 0.0% gc time)
  t0 :  0.0 sec (0 allocations: 0 byte, 0.0% gc time)
  tm2 : 0.0 sec (0 allocations: 0 byte, 0.0% gc time)
  tm2s: 0.0 sec (0 allocations: 0 byte, 0.0% gc time)
  tm4 : 0.0 sec (0 allocations: 0 byte, 0.0% gc time)
  tp2 : 0.0 sec (0 allocations: 0 byte, 0.0% gc time)
  tp2s: 0.0 sec (0 allocations: 0 byte, 0.0% gc time)
  tp4 : 0.0 sec (0 allocations: 0 byte, 0.0% gc time)
calc_wtdll!:   1.160907 sec (571.762 k allocations: 28.059 MB, 4.76% gc time)
calc_wljj!:    0.004107 sec (6 allocations: 96 byte, 0.0% gc time)
mult_prefac!:  0.0 sec (0 allocations: 0 byte, 0.0% gc time)
convert:       0.0 sec (0 allocations: 0 byte, 0.0% gc time)
write:         0.006087 sec (0 allocations: 0 byte, 0.0% gc time)
test_rand_2f1: 0.0 sec (0 allocations: 0 byte, 0.0% gc time)
Closing outfile out/Ml21-cache.bin...   0.000244 seconds
  1.127330 seconds (8.63 k allocations: 420.063 KiB)
make_phi():   0.017074 seconds (8.20 k allocations: 238.016 KiB)
  0.219418 seconds (121.94 k allocations: 5.914 MiB)
tskip:       2.4e-5 sec (0 allocations: 0 byte, 0.0% gc time)
tread:       0.00247 sec (20 allocations: 2.188 KB, 0.0% gc time)
tmultphi:    0.047557 sec (26.146 k allocations: 1.344 MB, 0.0% gc time)
tbrfft:      0.004325 sec (896 allocations: 42.0 KB, 0.0% gc time)
tmultprefac: 0.002792 sec (0 allocations: 0 byte, 0.0% gc time)
toutfunc:    0.162039 sec (94.223 k allocations: 4.457 MB, 0.0% gc time)
Testing R=1.1 ... passed
Calculating fmax: 
  dlrec    = 4
  dlrecRg1 = -4
  q=1.1, R=1.0:	  0.016276 seconds (4.81 k allocations: 3.569 MiB)

  0.016609 seconds (4.87 k allocations: 3.601 MiB)
ℓ = 1202
Δℓ = 4
ΔℓRg1 = -4
N = 1600
q = 1.1
kmin = 1.0e-5
kmax = 100000.00000000004
χ0 = 0.023029999999999995
RR = RR.tsv
ℓmax = ℓmax.bin
f21 = f21.bin
kmin = 1.0e-5
kmax = 100000.0
dlrec    = 4
dlrecRg1 = -4
Output size: 61465536 bytes = 0.05724424123764038 GiB
Output size: 51264 bytes = 4.774332046508789e-5 GiB
Reading 'out/F21EllCache'...   0.001444 seconds (271 allocations: 84.719 KiB)
ellmax: 1202
lmaxcache: 1202
fell[:,1,1] = Complex{Float64}[809.6031528389767 - 1.9829558194077161e-13im, 0.0 + 0.0im]
ell 1202, elapsed: 5.793571472167969e-5
ell 1201, elapsed: 0.01639103889465332
ell 1200, elapsed: 0.0005249977111816406
ell 1199, elapsed: 0.00043511390686035156
ell 1198, elapsed: 0.0003669261932373047
ell 1197, elapsed: 0.0006210803985595703
ell 1196, elapsed: 0.00049591064453125
ell 1195, elapsed: 0.0006518363952636719
ell 1194, elapsed: 0.0004260540008544922
ell 1193, elapsed: 0.00047516822814941406
ell 1192, elapsed: 0.0004680156707763672
ell 1191, elapsed: 0.0005960464477539062
ell 1190, elapsed: 0.00037598609924316406
ell 1189, elapsed: 0.0004639625549316406
ell 1188, elapsed: 0.0003769397735595703
ell 1187, elapsed: 0.0006799697875976562
ell 1186, elapsed: 0.0004360675811767578
ell 1185, elapsed: 0.0005140304565429688
ell 1184, elapsed: 0.0006368160247802734
ell 1183, elapsed: 0.0005869865417480469
ell 1182, elapsed: 0.0005838871002197266
ell 1181, elapsed: 0.0005481243133544922
ell 1180, elapsed: 0.0004401206970214844
ell 1179, elapsed: 0.0005390644073486328
ell 1178, elapsed: 0.00046515464782714844
ell 1177, elapsed: 0.0005381107330322266
ell 1176, elapsed: 0.00043702125549316406
ell 1175, elapsed: 0.0005300045013427734
ell 1174, elapsed: 0.0004420280456542969
ell 1173, elapsed: 0.0004951953887939453
ell 1172, elapsed: 0.0004558563232421875
ell 1171, elapsed: 0.0006289482116699219
ell 1170, elapsed: 0.0003781318664550781
ell 1169, elapsed: 0.00044798851013183594
ell 1168, elapsed: 0.0004448890686035156
ell 1167, elapsed: 0.0005080699920654297
ell 1166, elapsed: 0.00037598609924316406
ell 1165, elapsed: 0.0005559921264648438
ell 1164, elapsed: 0.00045299530029296875
ell 1163, elapsed: 0.0005629062652587891
ell 1162, elapsed: 0.00037980079650878906
ell 1161, elapsed: 0.00047898292541503906
ell 1160, elapsed: 0.0004489421844482422
ell 1159, elapsed: 0.0005688667297363281
ell 1158, elapsed: 0.0004608631134033203
ell 1157, elapsed: 0.0005772113800048828
ell 1156, elapsed: 0.0004749298095703125
ell 1155, elapsed: 0.0005500316619873047
ell 1154, elapsed: 0.0004830360412597656
ell 1153, elapsed: 0.0005509853363037109
ell 1152, elapsed: 0.0004858970642089844
ell 1151, elapsed: 0.0005698204040527344
ell 1150, elapsed: 0.0004711151123046875
ell 1149, elapsed: 0.0005640983581542969
ell 1148, elapsed: 0.00047588348388671875
ell 1147, elapsed: 0.0005619525909423828
ell 1146, elapsed: 0.00047707557678222656
ell 1145, elapsed: 0.0005769729614257812
ell 1144, elapsed: 0.0004718303680419922
ell 1143, elapsed: 0.0005600452423095703
ell 1142, elapsed: 0.00041103363037109375
ell 1141, elapsed: 0.0004730224609375
ell 1140, elapsed: 0.0003960132598876953
ell 1139, elapsed: 0.00055694580078125
ell 1138, elapsed: 0.0004620552062988281
ell 1137, elapsed: 0.00045680999755859375
ell 1136, elapsed: 0.0003809928894042969
ell 1135, elapsed: 0.00046896934509277344
ell 1134, elapsed: 0.0003750324249267578
ell 1133, elapsed: 0.0004661083221435547
ell 1132, elapsed: 0.00036597251892089844
ell 1131, elapsed: 0.00045418739318847656
ell 1130, elapsed: 0.0003750324249267578
ell 1129, elapsed: 0.00045800209045410156
ell 1128, elapsed: 0.00038504600524902344
ell 1127, elapsed: 0.0004668235778808594
ell 1126, elapsed: 0.0003609657287597656
ell 1125, elapsed: 0.0004711151123046875
ell 1124, elapsed: 0.00037598609924316406
ell 1123, elapsed: 0.0004680156707763672
ell 1122, elapsed: 0.00037598609924316406
ell 1121, elapsed: 0.000453948974609375
ell 1120, elapsed: 0.0003719329833984375
ell 1119, elapsed: 0.0004668235778808594
ell 1118, elapsed: 0.000370025634765625
ell 1117, elapsed: 0.00946497917175293
ell 1116, elapsed: 0.0006089210510253906
ell 1115, elapsed: 0.0055370330810546875
ell 1114, elapsed: 0.0005199909210205078
ell 1113, elapsed: 0.0007450580596923828
ell 1112, elapsed: 0.0004680156707763672
ell 1111, elapsed: 0.0005259513854980469
ell 1110, elapsed: 0.0004570484161376953
ell 1109, elapsed: 0.0006079673767089844
ell 1108, elapsed: 0.0003418922424316406
ell 1107, elapsed: 0.00035500526428222656
ell 1106, elapsed: 0.0002880096435546875
ell 1105, elapsed: 0.0003390312194824219
ell 1104, elapsed: 0.00027680397033691406
ell 1103, elapsed: 0.0003788471221923828
ell 1102, elapsed: 0.0002880096435546875
ell 1101, elapsed: 0.00033283233642578125
ell 1100, elapsed: 0.00027489662170410156
ell 1099, elapsed: 0.00033211708068847656
ell 1098, elapsed: 0.0002689361572265625
ell 1097, elapsed: 0.00032711029052734375
ell 1096, elapsed: 0.0002651214599609375
ell 1095, elapsed: 0.0003228187561035156
ell 1094, elapsed: 0.00028204917907714844
ell 1093, elapsed: 0.0003330707550048828
ell 1092, elapsed: 0.00032806396484375
ell 1091, elapsed: 0.00046896934509277344
ell 1090, elapsed: 0.0003731250762939453
ell 1089, elapsed: 0.0005857944488525391
ell 1088, elapsed: 0.00047707557678222656
ell 1087, elapsed: 0.0006520748138427734
ell 1086, elapsed: 0.0004909038543701172
ell 1085, elapsed: 0.0006511211395263672
ell 1084, elapsed: 0.0004398822784423828
ell 1083, elapsed: 0.0007719993591308594
ell 1082, elapsed: 0.00044417381286621094
ell 1081, elapsed: 0.0005371570587158203
ell 1080, elapsed: 0.0005490779876708984
ell 1079, elapsed: 0.0006868839263916016
ell 1078, elapsed: 0.0005631446838378906
ell 1077, elapsed: 0.0005640983581542969
ell 1076, elapsed: 0.0004909038543701172
ell 1075, elapsed: 0.0005950927734375
ell 1074, elapsed: 0.00037288665771484375
ell 1073, elapsed: 0.00045990943908691406
ell 1072, elapsed: 0.0003731250762939453
ell 1071, elapsed: 0.0006461143493652344
ell 1070, elapsed: 0.0004649162292480469
ell 1069, elapsed: 0.0006361007690429688
ell 1068, elapsed: 0.0004220008850097656
ell 1067, elapsed: 0.0005609989166259766
ell 1066, elapsed: 0.0004620552062988281
ell 1065, elapsed: 0.0005891323089599609
ell 1064, elapsed: 0.00046896934509277344
ell 1063, elapsed: 0.0006139278411865234
ell 1062, elapsed: 0.000453948974609375
ell 1061, elapsed: 0.0006110668182373047
ell 1060, elapsed: 0.0005609989166259766
ell 1059, elapsed: 0.0004849433898925781
ell 1058, elapsed: 0.0004780292510986328
ell 1057, elapsed: 0.0006039142608642578
ell 1056, elapsed: 0.00037598609924316406
ell 1055, elapsed: 0.0003578662872314453
ell 1054, elapsed: 0.0003418922424316406
ell 1053, elapsed: 0.0005269050598144531
ell 1052, elapsed: 0.00041985511779785156
ell 1051, elapsed: 0.0007028579711914062
ell 1050, elapsed: 0.0004611015319824219
ell 1049, elapsed: 0.0005640983581542969
ell 1048, elapsed: 0.0004248619079589844
ell 1047, elapsed: 0.0004980564117431641
ell 1046, elapsed: 0.0006449222564697266
ell 1045, elapsed: 0.0005500316619873047
ell 1044, elapsed: 0.00044608116149902344
ell 1043, elapsed: 0.0005528926849365234
ell 1042, elapsed: 0.00042891502380371094
ell 1041, elapsed: 0.00046896934509277344
ell 1040, elapsed: 0.0005390644073486328
ell 1039, elapsed: 0.0005948543548583984
ell 1038, elapsed: 0.00037407875061035156
ell 1037, elapsed: 0.0006139278411865234
ell 1036, elapsed: 0.00042700767517089844
ell 1035, elapsed: 0.0004391670227050781
ell 1034, elapsed: 0.000370025634765625
ell 1033, elapsed: 0.0004570484161376953
ell 1032, elapsed: 0.0003561973571777344
ell 1031, elapsed: 0.0005831718444824219
ell 1030, elapsed: 0.0005059242248535156
ell 1029, elapsed: 0.00043702125549316406
ell 1028, elapsed: 0.00049591064453125
ell 1027, elapsed: 0.0005578994750976562
ell 1026, elapsed: 0.0003669261932373047
ell 1025, elapsed: 0.0004489421844482422
ell 1024, elapsed: 0.0003771781921386719
ell 1023, elapsed: 0.0004630088806152344
ell 1022, elapsed: 0.00036907196044921875
ell 1021, elapsed: 0.0004429817199707031
ell 1020, elapsed: 0.00036597251892089844
ell 1019, elapsed: 0.00043702125549316406
ell 1018, elapsed: 0.0003731250762939453
ell 1017, elapsed: 0.0004551410675048828
ell 1016, elapsed: 0.0003540515899658203
ell 1015, elapsed: 0.00044798851013183594
ell 1014, elapsed: 0.00045299530029296875
ell 1013, elapsed: 0.00046706199645996094
ell 1012, elapsed: 0.0003631114959716797
ell 1011, elapsed: 0.0004558563232421875
ell 1010, elapsed: 0.0003631114959716797
ell 1009, elapsed: 0.00045013427734375
ell 1008, elapsed: 0.0003669261932373047
ell 1007, elapsed: 0.0005888938903808594
ell 1006, elapsed: 0.0005300045013427734
ell 1005, elapsed: 0.0004570484161376953
ell 1004, elapsed: 0.0003581047058105469
ell 1003, elapsed: 0.0006399154663085938
ell 1002, elapsed: 0.00039887428283691406
ell 1001, elapsed: 0.0006320476531982422
ell 1000, elapsed: 0.0004200935363769531
ell 999, elapsed: 0.0005309581756591797
ell 998, elapsed: 0.0003650188446044922
ell 997, elapsed: 0.0004649162292480469
ell 996, elapsed: 0.0003719329833984375
ell 995, elapsed: 0.0005578994750976562
ell 994, elapsed: 0.0004830360412597656
ell 993, elapsed: 0.0004401206970214844
ell 992, elapsed: 0.00036787986755371094
ell 991, elapsed: 0.0005459785461425781
ell 990, elapsed: 0.0003800392150878906
ell 989, elapsed: 0.00045800209045410156
ell 988, elapsed: 0.00035500526428222656
ell 987, elapsed: 0.0006098747253417969
ell 986, elapsed: 0.0005550384521484375
ell 985, elapsed: 0.0005929470062255859
ell 984, elapsed: 0.0004520416259765625
ell 983, elapsed: 0.0004391670227050781
ell 982, elapsed: 0.0003490447998046875
ell 981, elapsed: 0.0004260540008544922
ell 980, elapsed: 0.0003600120544433594
ell 979, elapsed: 0.0004410743713378906
ell 978, elapsed: 0.0005130767822265625
ell 977, elapsed: 0.0006170272827148438
ell 976, elapsed: 0.00045680999755859375
ell 975, elapsed: 0.000598907470703125
ell 974, elapsed: 0.00042319297790527344
ell 973, elapsed: 0.0006351470947265625
ell 972, elapsed: 0.00040793418884277344
ell 971, elapsed: 0.0005681514739990234
ell 970, elapsed: 0.000469207763671875
ell 969, elapsed: 0.0007009506225585938
ell 968, elapsed: 0.0004100799560546875
ell 967, elapsed: 0.0005600452423095703
ell 966, elapsed: 0.0004949569702148438
ell 965, elapsed: 0.0005729198455810547
ell 964, elapsed: 0.0004811286926269531
ell 963, elapsed: 0.0005388259887695312
ell 962, elapsed: 0.0003788471221923828
ell 961, elapsed: 0.0004570484161376953
ell 960, elapsed: 0.0003790855407714844
ell 959, elapsed: 0.0006530284881591797
ell 958, elapsed: 0.0004069805145263672
ell 957, elapsed: 0.000637054443359375
ell 956, elapsed: 0.0005071163177490234
ell 955, elapsed: 0.0004620552062988281
ell 954, elapsed: 0.0003750324249267578
ell 953, elapsed: 0.00044798851013183594
ell 952, elapsed: 0.0004999637603759766
ell 951, elapsed: 0.0005838871002197266
ell 950, elapsed: 0.0005078315734863281
ell 949, elapsed: 0.0007989406585693359
ell 948, elapsed: 0.00039696693420410156
ell 947, elapsed: 0.0006310939788818359
ell 946, elapsed: 0.0005559921264648438
ell 945, elapsed: 0.0006749629974365234
ell 944, elapsed: 0.00040912628173828125
ell 943, elapsed: 0.000453948974609375
ell 942, elapsed: 0.00045013427734375
ell 941, elapsed: 0.0005729198455810547
ell 940, elapsed: 0.0005881786346435547
ell 939, elapsed: 0.0005879402160644531
ell 938, elapsed: 0.0003809928894042969
ell 937, elapsed: 0.0004630088806152344
ell 936, elapsed: 0.0005209445953369141
ell 935, elapsed: 0.0005311965942382812
ell 934, elapsed: 0.00036787986755371094
ell 933, elapsed: 0.0004410743713378906
ell 932, elapsed: 0.00035691261291503906
ell 931, elapsed: 0.0006477832794189453
ell 930, elapsed: 0.0003910064697265625
ell 929, elapsed: 0.0004570484161376953
ell 928, elapsed: 0.00044083595275878906
ell 927, elapsed: 0.0004570484161376953
ell 926, elapsed: 0.00035500526428222656
ell 925, elapsed: 0.00042510032653808594
ell 924, elapsed: 0.0005290508270263672
ell 923, elapsed: 0.0005049705505371094
ell 922, elapsed: 0.0003638267517089844
ell 921, elapsed: 0.0005638599395751953
ell 920, elapsed: 0.0005540847778320312
ell 919, elapsed: 0.0004508495330810547
ell 918, elapsed: 0.0003509521484375
ell 917, elapsed: 0.00045800209045410156
ell 916, elapsed: 0.0003578662872314453
ell 915, elapsed: 0.0006310939788818359
ell 914, elapsed: 0.00045490264892578125
ell 913, elapsed: 0.0005140304565429688
ell 912, elapsed: 0.00037407875061035156
ell 911, elapsed: 0.0004630088806152344
ell 910, elapsed: 0.0003559589385986328
ell 909, elapsed: 0.00045299530029296875
ell 908, elapsed: 0.0003771781921386719
ell 907, elapsed: 0.0004558563232421875
ell 906, elapsed: 0.0004410743713378906
ell 905, elapsed: 0.0007829666137695312
ell 904, elapsed: 0.000392913818359375
ell 903, elapsed: 0.00045299530029296875
ell 902, elapsed: 0.00045800209045410156
ell 901, elapsed: 0.0006029605865478516
ell 900, elapsed: 0.00048089027404785156
ell 899, elapsed: 0.0005769729614257812
ell 898, elapsed: 0.00043892860412597656
ell 897, elapsed: 0.00045800209045410156
ell 896, elapsed: 0.00036597251892089844
ell 895, elapsed: 0.0004451274871826172
ell 894, elapsed: 0.00037789344787597656
ell 893, elapsed: 0.00044798851013183594
ell 892, elapsed: 0.000518798828125
ell 891, elapsed: 0.0006930828094482422
ell 890, elapsed: 0.0003750324249267578
ell 889, elapsed: 0.0004489421844482422
ell 888, elapsed: 0.00035500526428222656
ell 887, elapsed: 0.0004451274871826172
ell 886, elapsed: 0.000370025634765625
ell 885, elapsed: 0.0004642009735107422
ell 884, elapsed: 0.0003559589385986328
ell 883, elapsed: 0.0004520416259765625
ell 882, elapsed: 0.0006520748138427734
ell 881, elapsed: 0.0006799697875976562
ell 880, elapsed: 0.00038313865661621094
ell 879, elapsed: 0.0006239414215087891
ell 878, elapsed: 0.0003921985626220703
ell 877, elapsed: 0.0004470348358154297
ell 876, elapsed: 0.00037407875061035156
ell 875, elapsed: 0.0004448890686035156
ell 874, elapsed: 0.00047898292541503906
ell 873, elapsed: 0.0005688667297363281
ell 872, elapsed: 0.0003650188446044922
ell 871, elapsed: 0.00043892860412597656
ell 870, elapsed: 0.00035500526428222656
ell 869, elapsed: 0.00043392181396484375
ell 868, elapsed: 0.0003478527069091797
ell 867, elapsed: 0.00045609474182128906
ell 866, elapsed: 0.00036406517028808594
ell 865, elapsed: 0.00043892860412597656
ell 864, elapsed: 0.0003628730773925781
ell 863, elapsed: 0.00043702125549316406
ell 862, elapsed: 0.00034499168395996094
ell 861, elapsed: 0.00043892860412597656
ell 860, elapsed: 0.0005199909210205078
ell 859, elapsed: 0.0006310939788818359
ell 858, elapsed: 0.0004100799560546875
ell 857, elapsed: 0.00046896934509277344
ell 856, elapsed: 0.00041103363037109375
ell 855, elapsed: 0.0004940032958984375
ell 854, elapsed: 0.0004360675811767578
ell 853, elapsed: 0.0005240440368652344
ell 852, elapsed: 0.0004050731658935547
ell 851, elapsed: 0.0004999637603759766
ell 850, elapsed: 0.0004260540008544922
ell 849, elapsed: 0.0004928112030029297
ell 848, elapsed: 0.0004410743713378906
ell 847, elapsed: 0.0004978179931640625
ell 846, elapsed: 0.0005400180816650391
ell 845, elapsed: 0.0007250308990478516
ell 844, elapsed: 0.0006120204925537109
ell 843, elapsed: 0.0005381107330322266
ell 842, elapsed: 0.0004448890686035156
ell 841, elapsed: 0.0005550384521484375
ell 840, elapsed: 0.00045013427734375
ell 839, elapsed: 0.0005390644073486328
ell 838, elapsed: 0.00043201446533203125
ell 837, elapsed: 0.0007169246673583984
ell 836, elapsed: 0.0005769729614257812
ell 835, elapsed: 0.0008141994476318359
ell 834, elapsed: 0.0004661083221435547
ell 833, elapsed: 0.0005548000335693359
ell 832, elapsed: 0.0005979537963867188
ell 831, elapsed: 0.0005631446838378906
ell 830, elapsed: 0.0005028247833251953
ell 829, elapsed: 0.0005490779876708984
ell 828, elapsed: 0.0004558563232421875
ell 827, elapsed: 0.0006887912750244141
ell 826, elapsed: 0.0004711151123046875
ell 825, elapsed: 0.0007960796356201172
ell 824, elapsed: 0.0006458759307861328
ell 823, elapsed: 0.0005619525909423828
ell 822, elapsed: 0.000637054443359375
ell 821, elapsed: 0.0005469322204589844
ell 820, elapsed: 0.0004420280456542969
ell 819, elapsed: 0.0006768703460693359
ell 818, elapsed: 0.0006580352783203125
ell 817, elapsed: 0.0005459785461425781
ell 816, elapsed: 0.00044608116149902344
ell 815, elapsed: 0.0007100105285644531
ell 814, elapsed: 0.0004630088806152344
ell 813, elapsed: 0.0008020401000976562
ell 812, elapsed: 0.0006229877471923828
ell 811, elapsed: 0.0005478858947753906
ell 810, elapsed: 0.0004558563232421875
ell 809, elapsed: 0.0008039474487304688
ell 808, elapsed: 0.0006170272827148438
ell 807, elapsed: 0.0005650520324707031
ell 806, elapsed: 0.0004658699035644531
ell 805, elapsed: 0.0005371570587158203
ell 804, elapsed: 0.0004620552062988281
ell 803, elapsed: 0.0005409717559814453
ell 802, elapsed: 0.0006518363952636719
ell 801, elapsed: 0.0007200241088867188
ell 800, elapsed: 0.0006511211395263672
ell 799, elapsed: 0.0005629062652587891
ell 798, elapsed: 0.0005009174346923828
ell 797, elapsed: 0.0006990432739257812
ell 796, elapsed: 0.0006489753723144531
ell 795, elapsed: 0.0005741119384765625
ell 794, elapsed: 0.00045180320739746094
ell 793, elapsed: 0.0007739067077636719
ell 792, elapsed: 0.0004780292510986328
ell 791, elapsed: 0.0005578994750976562
ell 790, elapsed: 0.0006530284881591797
ell 789, elapsed: 0.0005588531494140625
ell 788, elapsed: 0.0004591941833496094
ell 787, elapsed: 0.0007700920104980469
ell 786, elapsed: 0.0006330013275146484
ell 785, elapsed: 0.0005462169647216797
ell 784, elapsed: 0.00045990943908691406
ell 783, elapsed: 0.0005679130554199219
ell 782, elapsed: 0.0005788803100585938
ell 781, elapsed: 0.0007429122924804688
ell 780, elapsed: 0.0004520416259765625
ell 779, elapsed: 0.0007839202880859375
ell 778, elapsed: 0.00045800209045410156
ell 777, elapsed: 0.00074005126953125
ell 776, elapsed: 0.0004630088806152344
ell 775, elapsed: 0.0007228851318359375
ell 774, elapsed: 0.0004379749298095703
ell 773, elapsed: 0.0007038116455078125
ell 772, elapsed: 0.0004620552062988281
ell 771, elapsed: 0.0005447864532470703
ell 770, elapsed: 0.00046706199645996094
ell 769, elapsed: 0.0006968975067138672
ell 768, elapsed: 0.0004379749298095703
ell 767, elapsed: 0.0005397796630859375
ell 766, elapsed: 0.0006330013275146484
ell 765, elapsed: 0.0007600784301757812
ell 764, elapsed: 0.00045800209045410156
ell 763, elapsed: 0.0005898475646972656
ell 762, elapsed: 0.0004589557647705078
ell 761, elapsed: 0.0005369186401367188
ell 760, elapsed: 0.0004398822784423828
ell 759, elapsed: 0.0005140304565429688
ell 758, elapsed: 0.0006229877471923828
ell 757, elapsed: 0.0005478858947753906
ell 756, elapsed: 0.0005841255187988281
ell 755, elapsed: 0.0005438327789306641
ell 754, elapsed: 0.000453948974609375
ell 753, elapsed: 0.0005881786346435547
ell 752, elapsed: 0.0004520416259765625
ell 751, elapsed: 0.0005929470062255859
ell 750, elapsed: 0.000698089599609375
ell 749, elapsed: 0.0005409717559814453
ell 748, elapsed: 0.00047087669372558594
ell 747, elapsed: 0.0008320808410644531
ell 746, elapsed: 0.0004858970642089844
ell 745, elapsed: 0.0005619525909423828
ell 744, elapsed: 0.000476837158203125
ell 743, elapsed: 0.0008399486541748047
ell 742, elapsed: 0.0006761550903320312
ell 741, elapsed: 0.0005958080291748047
ell 740, elapsed: 0.00047898292541503906
ell 739, elapsed: 0.0006229877471923828
ell 738, elapsed: 0.0006868839263916016
ell 737, elapsed: 0.0005471706390380859
ell 736, elapsed: 0.000476837158203125
ell 735, elapsed: 0.0005891323089599609
ell 734, elapsed: 0.0004711151123046875
ell 733, elapsed: 0.0005838871002197266
ell 732, elapsed: 0.0004611015319824219
ell 731, elapsed: 0.0005099773406982422
ell 730, elapsed: 0.0004010200500488281
ell 729, elapsed: 0.00047898292541503906
ell 728, elapsed: 0.0003879070281982422
ell 727, elapsed: 0.0004668235778808594
ell 726, elapsed: 0.00038814544677734375
ell 725, elapsed: 0.0004649162292480469
ell 724, elapsed: 0.00037598609924316406
ell 723, elapsed: 0.0004799365997314453
ell 722, elapsed: 0.0003848075866699219
ell 721, elapsed: 0.0004611015319824219
ell 720, elapsed: 0.0003809928894042969
ell 719, elapsed: 0.0004630088806152344
ell 718, elapsed: 0.0004780292510986328
ell 717, elapsed: 0.0006198883056640625
ell 716, elapsed: 0.0003991127014160156
ell 715, elapsed: 0.0006501674652099609
ell 714, elapsed: 0.00043010711669921875
ell 713, elapsed: 0.0006690025329589844
ell 712, elapsed: 0.0004341602325439453
ell 711, elapsed: 0.0006189346313476562
ell 710, elapsed: 0.0004520416259765625
ell 709, elapsed: 0.0005011558532714844
ell 708, elapsed: 0.0005290508270263672
ell 707, elapsed: 0.0005898475646972656
ell 706, elapsed: 0.0005879402160644531
ell 705, elapsed: 0.000698089599609375
ell 704, elapsed: 0.0004639625549316406
ell 703, elapsed: 0.0005369186401367188
ell 702, elapsed: 0.0006029605865478516
ell 701, elapsed: 0.0005469322204589844
ell 700, elapsed: 0.0004699230194091797
ell 699, elapsed: 0.0007128715515136719
ell 698, elapsed: 0.0004661083221435547
ell 697, elapsed: 0.0007650852203369141
ell 696, elapsed: 0.0004520416259765625
ell 695, elapsed: 0.0005338191986083984
ell 694, elapsed: 0.0006499290466308594
ell 693, elapsed: 0.0007631778717041016
ell 692, elapsed: 0.0006291866302490234
ell 691, elapsed: 0.0005130767822265625
ell 690, elapsed: 0.00043201446533203125
ell 689, elapsed: 0.0005211830139160156
ell 688, elapsed: 0.0006361007690429688
ell 687, elapsed: 0.00055694580078125
ell 686, elapsed: 0.0004811286926269531
ell 685, elapsed: 0.0008180141448974609
ell 684, elapsed: 0.0007410049438476562
ell 683, elapsed: 0.0005700588226318359
ell 682, elapsed: 0.0004839897155761719
ell 681, elapsed: 0.0008189678192138672
ell 680, elapsed: 0.0005009174346923828
ell 679, elapsed: 0.000827789306640625
ell 678, elapsed: 0.0004649162292480469
ell 677, elapsed: 0.0008289813995361328
ell 676, elapsed: 0.0006999969482421875
ell 675, elapsed: 0.0005800724029541016
ell 674, elapsed: 0.0004799365997314453
ell 673, elapsed: 0.0005819797515869141
ell 672, elapsed: 0.0004940032958984375
ell 671, elapsed: 0.0005609989166259766
ell 670, elapsed: 0.00046181678771972656
ell 669, elapsed: 0.0007541179656982422
ell 668, elapsed: 0.0004718303680419922
ell 667, elapsed: 0.0005471706390380859
ell 666, elapsed: 0.0005028247833251953
ell 665, elapsed: 0.0005609989166259766
ell 664, elapsed: 0.0004889965057373047
ell 663, elapsed: 0.0005538463592529297
ell 662, elapsed: 0.0004940032958984375
ell 661, elapsed: 0.0005629062652587891
ell 660, elapsed: 0.0004589557647705078
ell 659, elapsed: 0.0005438327789306641
ell 658, elapsed: 0.00048613548278808594
ell 657, elapsed: 0.0005600452423095703
ell 656, elapsed: 0.0004601478576660156
ell 655, elapsed: 0.0005691051483154297
ell 654, elapsed: 0.0004830360412597656
ell 653, elapsed: 0.000782012939453125
ell 652, elapsed: 0.00044798851013183594
ell 651, elapsed: 0.0005609989166259766
ell 650, elapsed: 0.0003800392150878906
ell 649, elapsed: 0.0006730556488037109
ell 648, elapsed: 0.0004000663757324219
ell 647, elapsed: 0.0004591941833496094
ell 646, elapsed: 0.0005271434783935547
ell 645, elapsed: 0.0005559921264648438
ell 644, elapsed: 0.0005030632019042969
ell 643, elapsed: 0.0005879402160644531
ell 642, elapsed: 0.00039005279541015625
ell 641, elapsed: 0.00047087669372558594
ell 640, elapsed: 0.0004010200500488281
ell 639, elapsed: 0.0006718635559082031
ell 638, elapsed: 0.00039505958557128906
ell 637, elapsed: 0.0004680156707763672
ell 636, elapsed: 0.0004191398620605469
ell 635, elapsed: 0.00045490264892578125
ell 634, elapsed: 0.0003838539123535156
ell 633, elapsed: 0.00047016143798828125
ell 632, elapsed: 0.00038313865661621094
ell 631, elapsed: 0.00047707557678222656
ell 630, elapsed: 0.0003879070281982422
ell 629, elapsed: 0.0006361007690429688
ell 628, elapsed: 0.0005800724029541016
ell 627, elapsed: 0.0005037784576416016
ell 626, elapsed: 0.0004639625549316406
ell 625, elapsed: 0.0006158351898193359
ell 624, elapsed: 0.0003750324249267578
ell 623, elapsed: 0.0004591941833496094
ell 622, elapsed: 0.00039696693420410156
ell 621, elapsed: 0.000453948974609375
ell 620, elapsed: 0.0003631114959716797
ell 619, elapsed: 0.0004658699035644531
ell 618, elapsed: 0.00038504600524902344
ell 617, elapsed: 0.0006279945373535156
ell 616, elapsed: 0.000453948974609375
ell 615, elapsed: 0.0004909038543701172
ell 614, elapsed: 0.0003941059112548828
ell 613, elapsed: 0.0004889965057373047
ell 612, elapsed: 0.0003972053527832031
ell 611, elapsed: 0.0004699230194091797
ell 610, elapsed: 0.0005509853363037109
ell 609, elapsed: 0.0006198883056640625
ell 608, elapsed: 0.0004742145538330078
ell 607, elapsed: 0.00047588348388671875
ell 606, elapsed: 0.0003821849822998047
ell 605, elapsed: 0.0005629062652587891
ell 604, elapsed: 0.0004730224609375
ell 603, elapsed: 0.0004940032958984375
ell 602, elapsed: 0.0005071163177490234
ell 601, elapsed: 0.0005900859832763672
ell 600, elapsed: 0.000453948974609375
ell 599, elapsed: 0.0005970001220703125
ell 598, elapsed: 0.0004000663757324219
ell 597, elapsed: 0.0004858970642089844
ell 596, elapsed: 0.0005390644073486328
ell 595, elapsed: 0.0005700588226318359
ell 594, elapsed: 0.000408172607421875
ell 593, elapsed: 0.0004968643188476562
ell 592, elapsed: 0.0005340576171875
ell 591, elapsed: 0.0005168914794921875
ell 590, elapsed: 0.0004038810729980469
ell 589, elapsed: 0.0006310939788818359
ell 588, elapsed: 0.00044608116149902344
ell 587, elapsed: 0.0006630420684814453
ell 586, elapsed: 0.0004229545593261719
ell 585, elapsed: 0.0005118846893310547
ell 584, elapsed: 0.0005350112915039062
ell 583, elapsed: 0.0006771087646484375
ell 582, elapsed: 0.0004470348358154297
ell 581, elapsed: 0.0004849433898925781
ell 580, elapsed: 0.00041794776916503906
ell 579, elapsed: 0.0005221366882324219
ell 578, elapsed: 0.0003838539123535156
ell 577, elapsed: 0.0006921291351318359
ell 576, elapsed: 0.00044798851013183594
ell 575, elapsed: 0.0004980564117431641
ell 574, elapsed: 0.0004038810729980469
ell 573, elapsed: 0.00049591064453125
ell 572, elapsed: 0.0005049705505371094
ell 571, elapsed: 0.0005230903625488281
ell 570, elapsed: 0.0005338191986083984
ell 569, elapsed: 0.0006878376007080078
ell 568, elapsed: 0.0006000995635986328
ell 567, elapsed: 0.0005152225494384766
ell 566, elapsed: 0.00038504600524902344
ell 565, elapsed: 0.0004830360412597656
ell 564, elapsed: 0.00039386749267578125
ell 563, elapsed: 0.0004711151123046875
ell 562, elapsed: 0.0003941059112548828
ell 561, elapsed: 0.0007550716400146484
ell 560, elapsed: 0.00043010711669921875
ell 559, elapsed: 0.0004699230194091797
ell 558, elapsed: 0.0004019737243652344
ell 557, elapsed: 0.0004711151123046875
ell 556, elapsed: 0.0003979206085205078
ell 555, elapsed: 0.0006639957427978516
ell 554, elapsed: 0.0005648136138916016
ell 553, elapsed: 0.0005638599395751953
ell 552, elapsed: 0.0003972053527832031
ell 551, elapsed: 0.0004878044128417969
ell 550, elapsed: 0.0004069805145263672
ell 549, elapsed: 0.0004589557647705078
ell 548, elapsed: 0.000392913818359375
ell 547, elapsed: 0.0004889965057373047
ell 546, elapsed: 0.0005002021789550781
ell 545, elapsed: 0.0006680488586425781
ell 544, elapsed: 0.00043582916259765625
ell 543, elapsed: 0.0006151199340820312
ell 542, elapsed: 0.0005528926849365234
ell 541, elapsed: 0.0005409717559814453
ell 540, elapsed: 0.0003840923309326172
ell 539, elapsed: 0.00047087669372558594
ell 538, elapsed: 0.00041794776916503906
ell 537, elapsed: 0.00061798095703125
ell 536, elapsed: 0.0004429817199707031
ell 535, elapsed: 0.00047898292541503906
ell 534, elapsed: 0.0004229545593261719
ell 533, elapsed: 0.0004909038543701172
ell 532, elapsed: 0.0004119873046875
ell 531, elapsed: 0.00049591064453125
ell 530, elapsed: 0.0004029273986816406
ell 529, elapsed: 0.0005030632019042969
ell 528, elapsed: 0.0006170272827148438
ell 527, elapsed: 0.0006000995635986328
ell 526, elapsed: 0.00038909912109375
ell 525, elapsed: 0.0004699230194091797
ell 524, elapsed: 0.0003669261932373047
ell 523, elapsed: 0.0004940032958984375
ell 522, elapsed: 0.00039196014404296875
ell 521, elapsed: 0.0004699230194091797
ell 520, elapsed: 0.0003910064697265625
ell 519, elapsed: 0.00047707557678222656
ell 518, elapsed: 0.0005619525909423828
ell 517, elapsed: 0.0005068778991699219
ell 516, elapsed: 0.00040221214294433594
ell 515, elapsed: 0.0004811286926269531
ell 514, elapsed: 0.0005130767822265625
ell 513, elapsed: 0.0007429122924804688
ell 512, elapsed: 0.0003840923309326172
ell 511, elapsed: 0.0006110668182373047
ell 510, elapsed: 0.00041985511779785156
ell 509, elapsed: 0.00047397613525390625
ell 508, elapsed: 0.00037789344787597656
ell 507, elapsed: 0.0004868507385253906
ell 506, elapsed: 0.0003979206085205078
ell 505, elapsed: 0.0006279945373535156
ell 504, elapsed: 0.0005860328674316406
ell 503, elapsed: 0.0005290508270263672
ell 502, elapsed: 0.0004999637603759766
ell 501, elapsed: 0.0005640983581542969
ell 500, elapsed: 0.0004000663757324219
ell 499, elapsed: 0.00046896934509277344
ell 498, elapsed: 0.0005078315734863281
ell 497, elapsed: 0.0005390644073486328
ell 496, elapsed: 0.0003731250762939453
ell 495, elapsed: 0.0004730224609375
ell 494, elapsed: 0.00039196014404296875
ell 493, elapsed: 0.0004470348358154297
ell 492, elapsed: 0.0003650188446044922
ell 491, elapsed: 0.0004611015319824219
ell 490, elapsed: 0.00039505958557128906
ell 489, elapsed: 0.00047206878662109375
ell 488, elapsed: 0.0005259513854980469
ell 487, elapsed: 0.0005848407745361328
ell 486, elapsed: 0.0004677772521972656
ell 485, elapsed: 0.0005919933319091797
ell 484, elapsed: 0.00041604042053222656
ell 483, elapsed: 0.0006570816040039062
ell 482, elapsed: 0.0005590915679931641
ell 481, elapsed: 0.0007331371307373047
ell 480, elapsed: 0.0005218982696533203
ell 479, elapsed: 0.0006079673767089844
ell 478, elapsed: 0.0005440711975097656
ell 477, elapsed: 0.0006921291351318359
ell 476, elapsed: 0.00043892860412597656
ell 475, elapsed: 0.0006659030914306641
ell 474, elapsed: 0.0005738735198974609
ell 473, elapsed: 0.0005669593811035156
ell 472, elapsed: 0.0005908012390136719
ell 471, elapsed: 0.0005362033843994141
ell 470, elapsed: 0.00038504600524902344
ell 469, elapsed: 0.0006251335144042969
ell 468, elapsed: 0.0004658699035644531
ell 467, elapsed: 0.0004680156707763672
ell 466, elapsed: 0.0005791187286376953
ell 465, elapsed: 0.0007159709930419922
ell 464, elapsed: 0.0005400180816650391
ell 463, elapsed: 0.0005719661712646484
ell 462, elapsed: 0.0004980564117431641
ell 461, elapsed: 0.00074005126953125
ell 460, elapsed: 0.0005910396575927734
ell 459, elapsed: 0.0007309913635253906
ell 458, elapsed: 0.0005040168762207031
ell 457, elapsed: 0.0008220672607421875
ell 456, elapsed: 0.0005068778991699219
ell 455, elapsed: 0.0005528926849365234
ell 454, elapsed: 0.00036787986755371094
ell 453, elapsed: 0.0004699230194091797
ell 452, elapsed: 0.0005309581756591797
ell 451, elapsed: 0.005400896072387695
ell 450, elapsed: 0.0005419254302978516
ell 449, elapsed: 0.0005822181701660156
ell 448, elapsed: 0.0003871917724609375
ell 447, elapsed: 0.0004608631134033203
ell 446, elapsed: 0.0008220672607421875
ell 445, elapsed: 0.00047707557678222656
ell 444, elapsed: 0.00037407875061035156
ell 443, elapsed: 0.00047206878662109375
ell 442, elapsed: 0.0003859996795654297
ell 441, elapsed: 0.0006361007690429688
ell 440, elapsed: 0.0004048347473144531
ell 439, elapsed: 0.00047206878662109375
ell 438, elapsed: 0.0003731250762939453
ell 437, elapsed: 0.00045800209045410156
ell 436, elapsed: 0.00039005279541015625
ell 435, elapsed: 0.0006539821624755859
ell 434, elapsed: 0.00039005279541015625
ell 433, elapsed: 0.0004551410675048828
ell 432, elapsed: 0.000518798828125
ell 431, elapsed: 0.0005381107330322266
ell 430, elapsed: 0.0003819465637207031
ell 429, elapsed: 0.0004591941833496094
ell 428, elapsed: 0.00038909912109375
ell 427, elapsed: 0.0006608963012695312
ell 426, elapsed: 0.00039505958557128906
ell 425, elapsed: 0.0004889965057373047
ell 424, elapsed: 0.0003829002380371094
ell 423, elapsed: 0.0004649162292480469
ell 422, elapsed: 0.00037598609924316406
ell 421, elapsed: 0.0004642009735107422
ell 420, elapsed: 0.00037288665771484375
ell 419, elapsed: 0.0006048679351806641
ell 418, elapsed: 0.0004608631134033203
ell 417, elapsed: 0.0004589557647705078
ell 416, elapsed: 0.0003800392150878906
ell 415, elapsed: 0.0006339550018310547
ell 414, elapsed: 0.0005419254302978516
ell 413, elapsed: 0.00055694580078125
ell 412, elapsed: 0.0004811286926269531
ell 411, elapsed: 0.0005259513854980469
ell 410, elapsed: 0.0004010200500488281
ell 409, elapsed: 0.0005309581756591797
ell 408, elapsed: 0.000286102294921875
ell 407, elapsed: 0.0003380775451660156
ell 406, elapsed: 0.0002582073211669922
ell 405, elapsed: 0.0004699230194091797
ell 404, elapsed: 0.00043392181396484375
ell 403, elapsed: 0.0005221366882324219
ell 402, elapsed: 0.0004699230194091797
ell 401, elapsed: 0.0005619525909423828
ell 400, elapsed: 0.0004680156707763672
ell 399, elapsed: 0.0005698204040527344
ell 398, elapsed: 0.00026416778564453125
ell 397, elapsed: 0.00045299530029296875
ell 396, elapsed: 0.0003821849822998047
ell 395, elapsed: 0.00045990943908691406
ell 394, elapsed: 0.0004050731658935547
ell 393, elapsed: 0.0004990100860595703
ell 392, elapsed: 0.0004210472106933594
ell 391, elapsed: 0.0005729198455810547
ell 390, elapsed: 0.0004210472106933594
ell 389, elapsed: 0.0005769729614257812
ell 388, elapsed: 0.0003819465637207031
ell 387, elapsed: 0.000453948974609375
ell 386, elapsed: 0.0003821849822998047
ell 385, elapsed: 0.00583195686340332
ell 384, elapsed: 0.0004119873046875
ell 383, elapsed: 0.0005550384521484375
ell 382, elapsed: 0.0004680156707763672
ell 381, elapsed: 0.0005040168762207031
ell 380, elapsed: 0.00041413307189941406
ell 379, elapsed: 0.0005049705505371094
ell 378, elapsed: 0.0004029273986816406
ell 377, elapsed: 0.0004818439483642578
ell 376, elapsed: 0.00038313865661621094
ell 375, elapsed: 0.0004699230194091797
ell 374, elapsed: 0.0003809928894042969
ell 373, elapsed: 0.00047397613525390625
ell 372, elapsed: 0.0003809928894042969
ell 371, elapsed: 0.0004811286926269531
ell 370, elapsed: 0.00043892860412597656
ell 369, elapsed: 0.0005068778991699219
ell 368, elapsed: 0.0004050731658935547
ell 367, elapsed: 0.0005280971527099609
ell 366, elapsed: 0.0004169940948486328
ell 365, elapsed: 0.0004949569702148438
ell 364, elapsed: 0.00043511390686035156
ell 363, elapsed: 0.0004830360412597656
ell 362, elapsed: 0.0004031658172607422
ell 361, elapsed: 0.00048804283142089844
ell 360, elapsed: 0.0004050731658935547
ell 359, elapsed: 0.0005269050598144531
ell 358, elapsed: 0.0005350112915039062
ell 357, elapsed: 0.0005459785461425781
ell 356, elapsed: 0.0004558563232421875
ell 355, elapsed: 0.0005400180816650391
ell 354, elapsed: 0.0004382133483886719
ell 353, elapsed: 0.0005230903625488281
ell 352, elapsed: 0.0004379749298095703
ell 351, elapsed: 0.0005390644073486328
ell 350, elapsed: 0.00042891502380371094
ell 349, elapsed: 0.0005278587341308594
ell 348, elapsed: 0.0004439353942871094
ell 347, elapsed: 0.0005278587341308594
ell 346, elapsed: 0.0004220008850097656
ell 345, elapsed: 0.0005340576171875
ell 344, elapsed: 0.0006210803985595703
ell 343, elapsed: 0.0006470680236816406
ell 342, elapsed: 0.0004379749298095703
ell 341, elapsed: 0.0005390644073486328
ell 340, elapsed: 0.0006589889526367188
ell 339, elapsed: 0.0007460117340087891
ell 338, elapsed: 0.0004649162292480469
ell 337, elapsed: 0.0006868839263916016
ell 336, elapsed: 0.0006451606750488281
ell 335, elapsed: 0.0007359981536865234
ell 334, elapsed: 0.0005919933319091797
ell 333, elapsed: 0.000720977783203125
ell 332, elapsed: 0.0006558895111083984
ell 331, elapsed: 0.0007410049438476562
ell 330, elapsed: 0.00046181678771972656
ell 329, elapsed: 0.0005390644073486328
ell 328, elapsed: 0.0004639625549316406
ell 327, elapsed: 0.0005218982696533203
ell 326, elapsed: 0.0006258487701416016
ell 325, elapsed: 0.0007088184356689453
ell 324, elapsed: 0.0004620552062988281
ell 323, elapsed: 0.0006799697875976562
ell 322, elapsed: 0.00046181678771972656
ell 321, elapsed: 0.0006940364837646484
ell 320, elapsed: 0.00045609474182128906
ell 319, elapsed: 0.0008039474487304688
ell 318, elapsed: 0.0006289482116699219
ell 317, elapsed: 0.0005390644073486328
ell 316, elapsed: 0.0004570484161376953
ell 315, elapsed: 0.0007410049438476562
ell 314, elapsed: 0.007442951202392578
ell 313, elapsed: 0.0005669593811035156
ell 312, elapsed: 0.0004019737243652344
ell 311, elapsed: 0.0006871223449707031
ell 310, elapsed: 0.0005130767822265625
ell 309, elapsed: 0.0007219314575195312
ell 308, elapsed: 0.0004611015319824219
ell 307, elapsed: 0.0006461143493652344
ell 306, elapsed: 0.0005078315734863281
ell 305, elapsed: 0.000720977783203125
ell 304, elapsed: 0.0004909038543701172
ell 303, elapsed: 0.0004780292510986328
ell 302, elapsed: 0.00038695335388183594
ell 301, elapsed: 0.0004889965057373047
ell 300, elapsed: 0.00039315223693847656
ell 299, elapsed: 0.00047588348388671875
ell 298, elapsed: 0.00039196014404296875
ell 297, elapsed: 0.00046896934509277344
ell 296, elapsed: 0.0005028247833251953
ell 295, elapsed: 0.0007200241088867188
ell 294, elapsed: 0.0007278919219970703
ell 293, elapsed: 0.0007841587066650391
ell 292, elapsed: 0.0006389617919921875
ell 291, elapsed: 0.0007789134979248047
ell 290, elapsed: 0.0006930828094482422
ell 289, elapsed: 0.0007929801940917969
ell 288, elapsed: 0.0006639957427978516
ell 287, elapsed: 0.0008709430694580078
ell 286, elapsed: 0.0006849765777587891
ell 285, elapsed: 0.0007960796356201172
ell 284, elapsed: 0.0006890296936035156
ell 283, elapsed: 0.0008058547973632812
ell 282, elapsed: 0.00067901611328125
ell 281, elapsed: 0.0005679130554199219
ell 280, elapsed: 0.0004379749298095703
ell 279, elapsed: 0.0005300045013427734
ell 278, elapsed: 0.00043487548828125
ell 277, elapsed: 0.0006880760192871094
ell 276, elapsed: 0.00042510032653808594
ell 275, elapsed: 0.0005440711975097656
ell 274, elapsed: 0.0004391670227050781
ell 273, elapsed: 0.0005049705505371094
ell 272, elapsed: 0.00045108795166015625
ell 271, elapsed: 0.000514984130859375
ell 270, elapsed: 0.00042510032653808594
ell 269, elapsed: 0.0005261898040771484
ell 268, elapsed: 0.0004432201385498047
ell 267, elapsed: 0.0005259513854980469
ell 266, elapsed: 0.0004329681396484375
ell 265, elapsed: 0.000537872314453125
ell 264, elapsed: 0.0004241466522216797
ell 263, elapsed: 0.0006661415100097656
ell 262, elapsed: 0.0004420280456542969
ell 261, elapsed: 0.0005300045013427734
ell 260, elapsed: 0.0004260540008544922
ell 259, elapsed: 0.0005209445953369141
ell 258, elapsed: 0.00043702125549316406
ell 257, elapsed: 0.0005218982696533203
ell 256, elapsed: 0.00044798851013183594
ell 255, elapsed: 0.0005068778991699219
ell 254, elapsed: 0.0004248619079589844
ell 253, elapsed: 0.0005471706390380859
ell 252, elapsed: 0.00044083595275878906
ell 251, elapsed: 0.00048613548278808594
ell 250, elapsed: 0.0003981590270996094
ell 249, elapsed: 0.0005071163177490234
ell 248, elapsed: 0.0004951953887939453
ell 247, elapsed: 0.0005350112915039062
ell 246, elapsed: 0.0006289482116699219
ell 245, elapsed: 0.0006589889526367188
ell 244, elapsed: 0.0004401206970214844
ell 243, elapsed: 0.0006709098815917969
ell 242, elapsed: 0.0005450248718261719
ell 241, elapsed: 0.0005331039428710938
ell 240, elapsed: 0.0006589889526367188
ell 239, elapsed: 0.0006830692291259766
ell 238, elapsed: 0.0006167888641357422
ell 237, elapsed: 0.0005350112915039062
ell 236, elapsed: 0.0004420280456542969
ell 235, elapsed: 0.0005381107330322266
ell 234, elapsed: 0.0006048679351806641
ell 233, elapsed: 0.0007760524749755859
ell 232, elapsed: 0.00044417381286621094
ell 231, elapsed: 0.0006759166717529297
ell 230, elapsed: 0.0004520416259765625
ell 229, elapsed: 0.0007140636444091797
ell 228, elapsed: 0.00045680999755859375
ell 227, elapsed: 0.0007009506225585938
ell 226, elapsed: 0.0005660057067871094
ell 225, elapsed: 0.0005409717559814453
ell 224, elapsed: 0.0004379749298095703
ell 223, elapsed: 0.0005400180816650391
ell 222, elapsed: 0.0007269382476806641
ell 221, elapsed: 0.0005459785461425781
ell 220, elapsed: 0.0006270408630371094
ell 219, elapsed: 0.0007290840148925781
ell 218, elapsed: 0.0006010532379150391
ell 217, elapsed: 0.0005350112915039062
ell 216, elapsed: 0.00043201446533203125
ell 215, elapsed: 0.0005490779876708984
ell 214, elapsed: 0.0004379749298095703
ell 213, elapsed: 0.0005278587341308594
ell 212, elapsed: 0.0004439353942871094
ell 211, elapsed: 0.0006940364837646484
ell 210, elapsed: 0.0004100799560546875
ell 209, elapsed: 0.0005109310150146484
ell 208, elapsed: 0.0005669593811035156
ell 207, elapsed: 0.0006721019744873047
ell 206, elapsed: 0.0004677772521972656
ell 205, elapsed: 0.0006589889526367188
ell 204, elapsed: 0.0004918575286865234
ell 203, elapsed: 0.0007297992706298828
ell 202, elapsed: 0.0004410743713378906
ell 201, elapsed: 0.0005269050598144531
ell 200, elapsed: 0.0004489421844482422
ell 199, elapsed: 0.0007030963897705078
ell 198, elapsed: 0.0006589889526367188
ell 197, elapsed: 0.0005240440368652344
ell 196, elapsed: 0.00057220458984375
ell 195, elapsed: 0.0005300045013427734
ell 194, elapsed: 0.0004391670227050781
ell 193, elapsed: 0.0005269050598144531
ell 192, elapsed: 0.00043392181396484375
ell 191, elapsed: 0.0007679462432861328
ell 190, elapsed: 0.0006210803985595703
ell 189, elapsed: 0.0005500316619873047
ell 188, elapsed: 0.0004398822784423828
ell 187, elapsed: 0.0005140304565429688
ell 186, elapsed: 0.0004391670227050781
ell 185, elapsed: 0.0005421638488769531
ell 184, elapsed: 0.00043892860412597656
ell 183, elapsed: 0.0005040168762207031
ell 182, elapsed: 0.00045299530029296875
ell 181, elapsed: 0.0005121231079101562
ell 180, elapsed: 0.0006120204925537109
ell 179, elapsed: 0.0005280971527099609
ell 178, elapsed: 0.00043892860412597656
ell 177, elapsed: 0.0006959438323974609
ell 176, elapsed: 0.00043201446533203125
ell 175, elapsed: 0.0005278587341308594
ell 174, elapsed: 0.0004260540008544922
ell 173, elapsed: 0.0005028247833251953
ell 172, elapsed: 0.0004119873046875
ell 171, elapsed: 0.0004820823669433594
ell 170, elapsed: 0.0004038810729980469
ell 169, elapsed: 0.0004949569702148438
ell 168, elapsed: 0.0005619525909423828
ell 167, elapsed: 0.000698089599609375
ell 166, elapsed: 0.00044918060302734375
ell 165, elapsed: 0.0005209445953369141
ell 164, elapsed: 0.0004050731658935547
ell 163, elapsed: 0.0005190372467041016
ell 162, elapsed: 0.00042891502380371094
ell 161, elapsed: 0.0007460117340087891
ell 160, elapsed: 0.0005650520324707031
ell 159, elapsed: 0.0006730556488037109
ell 158, elapsed: 0.00047206878662109375
ell 157, elapsed: 0.0005328655242919922
ell 156, elapsed: 0.0005481243133544922
ell 155, elapsed: 0.0007498264312744141
ell 154, elapsed: 0.0004448890686035156
ell 153, elapsed: 0.0006771087646484375
ell 152, elapsed: 0.0006761550903320312
ell 151, elapsed: 0.0005218982696533203
ell 150, elapsed: 0.0006418228149414062
ell 149, elapsed: 0.0006868839263916016
ell 148, elapsed: 0.0005640983581542969
ell 147, elapsed: 0.0005290508270263672
ell 146, elapsed: 0.0006270408630371094
ell 145, elapsed: 0.0006549358367919922
ell 144, elapsed: 0.0004949569702148438
ell 143, elapsed: 0.0005941390991210938
ell 142, elapsed: 0.0006299018859863281
ell 141, elapsed: 0.0005638599395751953
ell 140, elapsed: 0.00043487548828125
ell 139, elapsed: 0.0005090236663818359
ell 138, elapsed: 0.0004642009735107422
ell 137, elapsed: 0.0006880760192871094
ell 136, elapsed: 0.0004401206970214844
ell 135, elapsed: 0.0006101131439208984
ell 134, elapsed: 0.0004401206970214844
ell 133, elapsed: 0.00047588348388671875
ell 132, elapsed: 0.0003619194030761719
ell 131, elapsed: 0.0004649162292480469
ell 130, elapsed: 0.0003688335418701172
ell 129, elapsed: 0.0004830360412597656
ell 128, elapsed: 0.0003781318664550781
ell 127, elapsed: 0.0004439353942871094
ell 126, elapsed: 0.0003600120544433594
ell 125, elapsed: 0.0006120204925537109
ell 124, elapsed: 0.0004420280456542969
ell 123, elapsed: 0.0004601478576660156
ell 122, elapsed: 0.0005419254302978516
ell 121, elapsed: 0.0005939006805419922
ell 120, elapsed: 0.00036907196044921875
ell 119, elapsed: 0.0004520416259765625
ell 118, elapsed: 0.0003838539123535156
ell 117, elapsed: 0.00045108795166015625
ell 116, elapsed: 0.00036787986755371094
ell 115, elapsed: 0.00043702125549316406
ell 114, elapsed: 0.00043892860412597656
ell 113, elapsed: 0.0006580352783203125
ell 112, elapsed: 0.0004100799560546875
ell 111, elapsed: 0.0005431175231933594
ell 110, elapsed: 0.0005431175231933594
ell 109, elapsed: 0.0004999637603759766
ell 108, elapsed: 0.00043392181396484375
ell 107, elapsed: 0.0005469322204589844
ell 106, elapsed: 0.0004291534423828125
ell 105, elapsed: 0.0004999637603759766
ell 104, elapsed: 0.00043201446533203125
ell 103, elapsed: 0.0005121231079101562
ell 102, elapsed: 0.0005919933319091797
ell 101, elapsed: 0.0005481243133544922
ell 100, elapsed: 0.00042700767517089844
ell 99, elapsed: 0.0005371570587158203
ell 98, elapsed: 0.00045800209045410156
ell 97, elapsed: 0.0005180835723876953
ell 96, elapsed: 0.00043892860412597656
ell 95, elapsed: 0.0007348060607910156
ell 94, elapsed: 0.00045609474182128906
ell 93, elapsed: 0.0005180835723876953
ell 92, elapsed: 0.00042891502380371094
ell 91, elapsed: 0.0005109310150146484
ell 90, elapsed: 0.00043702125549316406
ell 89, elapsed: 0.0005249977111816406
ell 88, elapsed: 0.0004329681396484375
ell 87, elapsed: 0.0005190372467041016
ell 86, elapsed: 0.0004360675811767578
ell 85, elapsed: 0.0005030632019042969
ell 84, elapsed: 0.00041604042053222656
ell 83, elapsed: 0.0005249977111816406
ell 82, elapsed: 0.000553131103515625
ell 81, elapsed: 0.0005459785461425781
ell 80, elapsed: 0.00043487548828125
ell 79, elapsed: 0.0006949901580810547
ell 78, elapsed: 0.0006139278411865234
ell 77, elapsed: 0.0007259845733642578
ell 76, elapsed: 0.00045299530029296875
ell 75, elapsed: 0.0005371570587158203
ell 74, elapsed: 0.0006330013275146484
ell 73, elapsed: 0.0006959438323974609
ell 72, elapsed: 0.0004570484161376953
ell 71, elapsed: 0.0005259513854980469
ell 70, elapsed: 0.0004367828369140625
ell 69, elapsed: 0.0005371570587158203
ell 68, elapsed: 0.0006139278411865234
ell 67, elapsed: 0.0005331039428710938
ell 66, elapsed: 0.0004220008850097656
ell 65, elapsed: 0.0007238388061523438
ell 64, elapsed: 0.00045609474182128906
ell 63, elapsed: 0.0007479190826416016
ell 62, elapsed: 0.00044798851013183594
ell 61, elapsed: 0.0005309581756591797
ell 60, elapsed: 0.0005500316619873047
ell 59, elapsed: 0.000759124755859375
ell 58, elapsed: 0.00044608116149902344
ell 57, elapsed: 0.0005109310150146484
ell 56, elapsed: 0.0004420280456542969
ell 55, elapsed: 0.0007169246673583984
ell 54, elapsed: 0.0005919933319091797
ell 53, elapsed: 0.0005168914794921875
ell 52, elapsed: 0.0004291534423828125
ell 51, elapsed: 0.000518798828125
ell 50, elapsed: 0.00044083595275878906
ell 49, elapsed: 0.0005140304565429688
ell 48, elapsed: 0.0004029273986816406
ell 47, elapsed: 0.000514984130859375
ell 46, elapsed: 0.0004220008850097656
ell 45, elapsed: 0.0006909370422363281
ell 44, elapsed: 0.0004410743713378906
ell 43, elapsed: 0.0005259513854980469
ell 42, elapsed: 0.00043201446533203125
ell 41, elapsed: 0.0005080699920654297
ell 40, elapsed: 0.00043582916259765625
ell 39, elapsed: 0.0006070137023925781
ell 38, elapsed: 0.0004489421844482422
ell 37, elapsed: 0.0005331039428710938
ell 36, elapsed: 0.00055694580078125
ell 35, elapsed: 0.0005331039428710938
ell 34, elapsed: 0.0004260540008544922
ell 33, elapsed: 0.0005168914794921875
ell 32, elapsed: 0.00043010711669921875
ell 31, elapsed: 0.0005371570587158203
ell 30, elapsed: 0.00043702125549316406
ell 29, elapsed: 0.0005509853363037109
ell 28, elapsed: 0.00043892860412597656
ell 27, elapsed: 0.0005218982696533203
ell 26, elapsed: 0.0004451274871826172
ell 25, elapsed: 0.0005159378051757812
ell 24, elapsed: 0.0004229545593261719
ell 23, elapsed: 0.0005249977111816406
ell 22, elapsed: 0.00039196014404296875
ell 21, elapsed: 0.0005178451538085938
ell 20, elapsed: 0.00045990943908691406
ell 19, elapsed: 0.0004849433898925781
ell 18, elapsed: 0.00037598609924316406
ell 17, elapsed: 0.0004608631134033203
ell 16, elapsed: 0.0003800392150878906
ell 15, elapsed: 0.00045490264892578125
ell 14, elapsed: 0.0003788471221923828
ell 13, elapsed: 0.0004482269287109375
ell 12, elapsed: 0.00036406517028808594
ell 11, elapsed: 0.0007040500640869141
ell 10, elapsed: 0.0007529258728027344
ell 9, elapsed: 0.0004780292510986328
ell 8, elapsed: 0.0003609657287597656
ell 7, elapsed: 0.0004360675811767578
ell 6, elapsed: 0.0003578662872314453
ell 5, elapsed: 0.0004489421844482422
ell 4, elapsed: 0.0004448890686035156
ell 3, elapsed: 0.0004591941833496094
ell 2, elapsed: 0.0003559589385986328
ell 1, elapsed: 0.0004470348358154297
ell 0, elapsed: 0.00036215782165527344
  0.963640 seconds (57.01 k allocations: 2.784 MiB)
elapsed: 0.0006129741668701172
step:          0.071206 sec (0 allocations: 0 byte, 0.0% gc time)
swapping:      0.000996 sec (0 allocations: 0 byte, 0.0% gc time)
calc_Mellell!: 0.011899 sec (0 allocations: 0 byte, 0.0% gc time)
  t0 :  0.002784 sec (0 allocations: 0 byte, 0.0% gc time)
  tm2 : 0.093098 sec (0 allocations: 0 byte, 0.0% gc time)
  tm2s: 0.002116 sec (0 allocations: 0 byte, 0.0% gc time)
  tm4 : 0.245068 sec (0 allocations: 0 byte, 0.0% gc time)
  tp2 : 0.0 sec (0 allocations: 0 byte, 0.0% gc time)
  tp2s: 0.0 sec (0 allocations: 0 byte, 0.0% gc time)
  tp4 : 0.0 sec (0 allocations: 0 byte, 0.0% gc time)
calc_wtdll!:   0.364947 sec (9.879 k allocations: 1.044 MB, 0.0% gc time)
calc_wljj!:    0.044525 sec (689 allocations: 10.766 KB, 0.0% gc time)
mult_prefac!:  0.0 sec (0 allocations: 0 byte, 0.0% gc time)
convert:       0.0 sec (0 allocations: 0 byte, 0.0% gc time)
write:         0.071943 sec (0 allocations: 0 byte, 0.0% gc time)
test_rand_2f1: 0.0 sec (0 allocations: 0 byte, 0.0% gc time)
Closing outfile out/Ml21-cache.bin...   0.026587 seconds
  0.000397 seconds (52 allocations: 28.297 KiB)
make_phi():   0.002711 seconds (8.20 k allocations: 238.016 KiB)
  0.275279 seconds (146.69 k allocations: 3.629 MiB, 2.36% gc time)
tskip:       0.017309 sec (0 allocations: 0 byte, 0.0% gc time)
tread:       0.024891 sec (20 allocations: 10.703 KB, 0.0% gc time)
tmultphi:    0.061648 sec (0 allocations: 0 byte, 0.0% gc time)
tbrfft:      0.045655 sec (9.592 k allocations: 449.625 KB, 0.0% gc time)
tmultprefac: 0.063796 sec (0 allocations: 0 byte, 0.0% gc time)
toutfunc:    0.053473 sec (129.905 k allocations: 2.421 MB, 0.0% gc time)
Testing R=1.0 ... passed
Calculating fmax: 
  dlrec    = 4
  dlrecRg1 = -4
  q=1.1, R=0.9:	  0.595055 seconds (149.41 k allocations: 69.863 MiB, 2.72% gc time)

  0.595323 seconds (149.47 k allocations: 69.895 MiB, 2.72% gc time)
ℓ = 1202
Δℓ = 4
ΔℓRg1 = -4
N = 1600
q = 1.1
kmin = 1.0e-5
kmax = 100000.00000000004
χ0 = 0.023029999999999995
RR = RR.tsv
ℓmax = ℓmax.bin
f21 = f21.bin
kmin = 1.0e-5
kmax = 100000.0
dlrec    = 4
dlrecRg1 = -4
Output size: 5741568 bytes = 0.005347251892089844 GiB
Output size: 51264 bytes = 4.774332046508789e-5 GiB
Reading 'out/F21EllCache'...   0.001178 seconds (271 allocations: 84.719 KiB)
ellmax: 1202
lmaxcache: 1202
fell[:,1,1] = Complex{Float64}[1.3482014726274674e-57 - 3.302141236118086e-73im, 1.357860004724329e-57 - 3.3257978169518355e-73im]
ell 1202, elapsed: 2.193450927734375e-5
ell 1201, elapsed: 0.0004749298095703125
ell 1200, elapsed: 0.0003459453582763672
ell 1199, elapsed: 0.0003368854522705078
ell 1198, elapsed: 0.00033283233642578125
ell 1002, elapsed: 0.010233879089355469
ell 1001, elapsed: 0.0004792213439941406
ell 1000, elapsed: 0.0003509521484375
ell 999, elapsed: 0.0003368854522705078
ell 998, elapsed: 0.0003390312194824219
ell 902, elapsed: 0.004884958267211914
ell 901, elapsed: 0.0003650188446044922
ell 900, elapsed: 0.0003440380096435547
ell 899, elapsed: 0.0003299713134765625
ell 898, elapsed: 0.000331878662109375
ell 802, elapsed: 0.005113124847412109
ell 801, elapsed: 0.00036907196044921875
ell 800, elapsed: 0.0003409385681152344
ell 799, elapsed: 0.00032401084899902344
ell 798, elapsed: 0.00038313865661621094
ell 702, elapsed: 0.0061931610107421875
ell 701, elapsed: 0.0003771781921386719
ell 700, elapsed: 0.0003268718719482422
ell 699, elapsed: 0.0003299713134765625
ell 698, elapsed: 0.0003337860107421875
ell 602, elapsed: 0.005470991134643555
ell 601, elapsed: 0.0003750324249267578
ell 600, elapsed: 0.00035309791564941406
ell 599, elapsed: 0.00035691261291503906
ell 598, elapsed: 0.00033092498779296875
ell 502, elapsed: 0.005466938018798828
ell 501, elapsed: 0.0003590583801269531
ell 500, elapsed: 0.0003440380096435547
ell 499, elapsed: 0.00033402442932128906
ell 498, elapsed: 0.00033020973205566406
ell 402, elapsed: 0.0057468414306640625
ell 401, elapsed: 0.0003647804260253906
ell 400, elapsed: 0.0006258487701416016
ell 399, elapsed: 0.00034809112548828125
ell 398, elapsed: 0.00032901763916015625
ell 302, elapsed: 0.005172014236450195
ell 301, elapsed: 0.0003578662872314453
ell 300, elapsed: 0.00033402442932128906
ell 299, elapsed: 0.00033402442932128906
ell 298, elapsed: 0.00033402442932128906
ell 202, elapsed: 0.005323171615600586
ell 201, elapsed: 0.00034999847412109375
ell 200, elapsed: 0.0003409385681152344
ell 199, elapsed: 0.00033092498779296875
ell 198, elapsed: 0.0003361701965332031
ell 152, elapsed: 0.003069162368774414
ell 151, elapsed: 0.00034880638122558594
ell 150, elapsed: 0.0003268718719482422
ell 149, elapsed: 0.00032901763916015625
ell 148, elapsed: 0.0003337860107421875
ell 127, elapsed: 0.0015230178833007812
ell 126, elapsed: 0.00034999847412109375
ell 125, elapsed: 0.0003380775451660156
ell 124, elapsed: 0.00034117698669433594
ell 123, elapsed: 0.00032806396484375
ell 114, elapsed: 0.0011780261993408203
ell 113, elapsed: 0.000331878662109375
ell 112, elapsed: 0.00035190582275390625
ell 111, elapsed: 0.0003750324249267578
ell 110, elapsed: 0.0003440380096435547
ell 102, elapsed: 0.0008678436279296875
ell 101, elapsed: 0.00033211708068847656
ell 100, elapsed: 0.0006718635559082031
ell 99, elapsed: 0.00033402442932128906
ell 98, elapsed: 0.00033020973205566406
ell 97, elapsed: 0.00036907196044921875
ell 96, elapsed: 0.0004639625549316406
ell 95, elapsed: 0.0003650188446044922
ell 94, elapsed: 0.00044798851013183594
ell 93, elapsed: 0.0003647804260253906
ell 92, elapsed: 0.0008149147033691406
ell 91, elapsed: 0.0005278587341308594
ell 90, elapsed: 0.0004930496215820312
ell 89, elapsed: 0.0003590583801269531
ell 88, elapsed: 0.00046896934509277344
ell 87, elapsed: 0.00036215782165527344
ell 86, elapsed: 0.0004730224609375
ell 85, elapsed: 0.0003619194030761719
ell 84, elapsed: 0.0006108283996582031
ell 83, elapsed: 0.00036716461181640625
ell 82, elapsed: 0.0004458427429199219
ell 81, elapsed: 0.0003609657287597656
ell 80, elapsed: 0.00044989585876464844
ell 79, elapsed: 0.0003590583801269531
ell 78, elapsed: 0.0004329681396484375
ell 77, elapsed: 0.0006990432739257812
ell 76, elapsed: 0.0004470348358154297
ell 75, elapsed: 0.0003559589385986328
ell 74, elapsed: 0.00043892860412597656
ell 73, elapsed: 0.0003650188446044922
ell 72, elapsed: 0.0004379749298095703
ell 71, elapsed: 0.0003619194030761719
ell 70, elapsed: 0.0004470348358154297
ell 69, elapsed: 0.0004169940948486328
ell 68, elapsed: 0.0004410743713378906
ell 67, elapsed: 0.0003619194030761719
ell 66, elapsed: 0.0004448890686035156
ell 65, elapsed: 0.0003609657287597656
ell 64, elapsed: 0.0004410743713378906
ell 63, elapsed: 0.0003590583801269531
ell 62, elapsed: 0.0004401206970214844
ell 61, elapsed: 0.00036787986755371094
ell 60, elapsed: 0.0004439353942871094
ell 59, elapsed: 0.00036215782165527344
ell 58, elapsed: 0.0004429817199707031
ell 57, elapsed: 0.00035881996154785156
ell 56, elapsed: 0.0004379749298095703
ell 55, elapsed: 0.00036406517028808594
ell 54, elapsed: 0.0004379749298095703
ell 53, elapsed: 0.0004630088806152344
ell 52, elapsed: 0.0004520416259765625
ell 51, elapsed: 0.0003590583801269531
ell 50, elapsed: 0.00043892860412597656
ell 49, elapsed: 0.0003650188446044922
ell 48, elapsed: 0.0004391670227050781
ell 47, elapsed: 0.00036215782165527344
ell 46, elapsed: 0.0004401206970214844
ell 45, elapsed: 0.0003600120544433594
ell 44, elapsed: 0.00413203239440918
ell 43, elapsed: 0.0004940032958984375
ell 42, elapsed: 0.0006158351898193359
ell 41, elapsed: 0.00036597251892089844
ell 40, elapsed: 0.000640869140625
ell 39, elapsed: 0.00048089027404785156
ell 38, elapsed: 0.0006031990051269531
ell 37, elapsed: 0.0003840923309326172
ell 36, elapsed: 0.0005779266357421875
ell 35, elapsed: 0.00043892860412597656
ell 34, elapsed: 0.0004398822784423828
ell 33, elapsed: 0.0004930496215820312
ell 32, elapsed: 0.0005929470062255859
ell 31, elapsed: 0.0003619194030761719
ell 30, elapsed: 0.0004489421844482422
ell 29, elapsed: 0.000370025634765625
ell 28, elapsed: 0.0004639625549316406
ell 27, elapsed: 0.00037598609924316406
ell 26, elapsed: 0.00045990943908691406
ell 25, elapsed: 0.0003750324249267578
ell 24, elapsed: 0.000453948974609375
ell 23, elapsed: 0.00037598609924316406
ell 22, elapsed: 0.0004620552062988281
ell 21, elapsed: 0.00038909912109375
ell 20, elapsed: 0.0004570484161376953
ell 19, elapsed: 0.00037598609924316406
ell 18, elapsed: 0.0004551410675048828
ell 17, elapsed: 0.00037598609924316406
ell 16, elapsed: 0.00045299530029296875
ell 15, elapsed: 0.0003771781921386719
ell 14, elapsed: 0.00045609474182128906
ell 13, elapsed: 0.008569002151489258
ell 12, elapsed: 0.0006809234619140625
ell 11, elapsed: 0.0003910064697265625
ell 10, elapsed: 0.00045299530029296875
ell 9, elapsed: 0.0003669261932373047
ell 8, elapsed: 0.0004508495330810547
ell 7, elapsed: 0.0003619194030761719
ell 6, elapsed: 0.0004410743713378906
ell 5, elapsed: 0.0007548332214355469
ell 4, elapsed: 0.000492095947265625
ell 3, elapsed: 0.0003941059112548828
ell 2, elapsed: 0.00046181678771972656
ell 1, elapsed: 0.0003769397735595703
ell 0, elapsed: 0.00045013427734375
  0.158380 seconds (13.00 k allocations: 675.000 KiB)
elapsed: 0.0004870891571044922
step:          0.061107 sec (0 allocations: 0 byte, 0.0% gc time)
swapping:      0.000533 sec (0 allocations: 0 byte, 0.0% gc time)
calc_Mellell!: 0.001454 sec (0 allocations: 0 byte, 0.0% gc time)
  t0 :  0.000328 sec (0 allocations: 0 byte, 0.0% gc time)
  tm2 : 0.012559 sec (0 allocations: 0 byte, 0.0% gc time)
  tm2s: 0.000298 sec (0 allocations: 0 byte, 0.0% gc time)
  tm4 : 0.039711 sec (0 allocations: 0 byte, 0.0% gc time)
  tp2 : 0.0 sec (0 allocations: 0 byte, 0.0% gc time)
  tp2s: 0.0 sec (0 allocations: 0 byte, 0.0% gc time)
  tp4 : 0.0 sec (0 allocations: 0 byte, 0.0% gc time)
calc_wtdll!:   0.053562 sec (1.344 k allocations: 147.0 KB, 0.0% gc time)
calc_wljj!:    0.003574 sec (6 allocations: 96 byte, 0.0% gc time)
mult_prefac!:  0.0 sec (0 allocations: 0 byte, 0.0% gc time)
convert:       0.0 sec (0 allocations: 0 byte, 0.0% gc time)
write:         0.005177 sec (0 allocations: 0 byte, 0.0% gc time)
test_rand_2f1: 0.0 sec (0 allocations: 0 byte, 0.0% gc time)
Closing outfile out/Ml21-cache.bin...   0.003339 seconds
  0.000299 seconds (52 allocations: 28.297 KiB)
make_phi():   0.002163 seconds (8.20 k allocations: 238.016 KiB)
  0.014274 seconds (12.10 k allocations: 322.000 KiB)
tskip:       2.3e-5 sec (0 allocations: 0 byte, 0.0% gc time)
tread:       0.002486 sec (20 allocations: 2.188 KB, 0.0% gc time)
tmultphi:    0.00108 sec (0 allocations: 0 byte, 0.0% gc time)
tbrfft:      0.004037 sec (896 allocations: 42.0 KB, 0.0% gc time)
tmultprefac: 0.002002 sec (0 allocations: 0 byte, 0.0% gc time)
toutfunc:    0.004552 sec (10.528 k allocations: 206.5 KB, 0.0% gc time)
Testing R=0.9 ... passed
Calculating fmax: 
  dlrec    = 4
  dlrecRg1 = -4
  q=1.1, R=0.8:	  0.440340 seconds (145.59 k allocations: 68.095 MiB, 2.09% gc time)

  0.440572 seconds (145.66 k allocations: 68.128 MiB, 2.09% gc time)
ℓ = 1202
Δℓ = 4
ΔℓRg1 = -4
N = 1600
q = 1.1
kmin = 1.0e-5
kmax = 100000.00000000004
χ0 = 0.023029999999999995
RR = RR.tsv
ℓmax = ℓmax.bin
f21 = f21.bin
kmin = 1.0e-5
kmax = 100000.0
dlrec    = 4
dlrecRg1 = -4
Output size: 5741568 bytes = 0.005347251892089844 GiB
Output size: 51264 bytes = 4.774332046508789e-5 GiB
Reading 'out/F21EllCache'...   0.001060 seconds (271 allocations: 84.719 KiB)
ellmax: 1202
lmaxcache: 1202
fell[:,1,1] = Complex{Float64}[7.519068145690986e-120 - 1.8416405474382574e-135im, 7.541664537386155e-120 - 1.847175067190611e-135im]
ell 1202, elapsed: 2.193450927734375e-5
ell 1201, elapsed: 0.00036597251892089844
ell 1200, elapsed: 0.00033092498779296875
ell 1199, elapsed: 0.00033092498779296875
ell 1198, elapsed: 0.00033211708068847656
ell 1002, elapsed: 0.00956106185913086
ell 1001, elapsed: 0.0004210472106933594
ell 1000, elapsed: 0.0004978179931640625
ell 999, elapsed: 0.0003399848937988281
ell 998, elapsed: 0.00032591819763183594
ell 902, elapsed: 0.005019187927246094
ell 901, elapsed: 0.00037384033203125
ell 900, elapsed: 0.00033402442932128906
ell 899, elapsed: 0.00033402442932128906
ell 898, elapsed: 0.00032901763916015625
ell 802, elapsed: 0.005146026611328125
ell 801, elapsed: 0.0003800392150878906
ell 800, elapsed: 0.0003428459167480469
ell 799, elapsed: 0.0003330707550048828
ell 798, elapsed: 0.000331878662109375
ell 702, elapsed: 0.0053789615631103516
ell 701, elapsed: 0.0003669261932373047
ell 700, elapsed: 0.0003349781036376953
ell 699, elapsed: 0.00032782554626464844
ell 698, elapsed: 0.0003540515899658203
ell 602, elapsed: 0.005028963088989258
ell 601, elapsed: 0.0003638267517089844
ell 600, elapsed: 0.0003361701965332031
ell 599, elapsed: 0.00033283233642578125
ell 598, elapsed: 0.0003268718719482422
ell 502, elapsed: 0.005227088928222656
ell 501, elapsed: 0.00037407875061035156
ell 500, elapsed: 0.0003361701965332031
ell 499, elapsed: 0.0003371238708496094
ell 498, elapsed: 0.0003299713134765625
ell 402, elapsed: 0.0050699710845947266
ell 401, elapsed: 0.0003669261932373047
ell 400, elapsed: 0.0003299713134765625
ell 399, elapsed: 0.00034499168395996094
ell 398, elapsed: 0.00033593177795410156
ell 302, elapsed: 0.004947185516357422
ell 301, elapsed: 0.00037407875061035156
ell 300, elapsed: 0.0003330707550048828
ell 299, elapsed: 0.0003330707550048828
ell 298, elapsed: 0.00033092498779296875
ell 202, elapsed: 0.005120038986206055
ell 201, elapsed: 0.0003578662872314453
ell 200, elapsed: 0.0003349781036376953
ell 199, elapsed: 0.0003268718719482422
ell 198, elapsed: 0.000331878662109375
ell 152, elapsed: 0.0025479793548583984
ell 151, elapsed: 0.00035500526428222656
ell 150, elapsed: 0.0003330707550048828
ell 149, elapsed: 0.0004220008850097656
ell 148, elapsed: 0.00047206878662109375
ell 127, elapsed: 0.0015149116516113281
ell 126, elapsed: 0.0003509521484375
ell 125, elapsed: 0.00033092498779296875
ell 124, elapsed: 0.00032591819763183594
ell 123, elapsed: 0.00032806396484375
ell 114, elapsed: 0.0007901191711425781
ell 113, elapsed: 0.00033211708068847656
ell 112, elapsed: 0.00033402442932128906
ell 111, elapsed: 0.00033020973205566406
ell 110, elapsed: 0.00033402442932128906
ell 102, elapsed: 0.0008618831634521484
ell 101, elapsed: 0.00033211708068847656
ell 100, elapsed: 0.0003299713134765625
ell 99, elapsed: 0.00032591819763183594
ell 98, elapsed: 0.00032591819763183594
ell 97, elapsed: 0.00037407875061035156
ell 96, elapsed: 0.0004699230194091797
ell 95, elapsed: 0.0003681182861328125
ell 94, elapsed: 0.0004718303680419922
ell 93, elapsed: 0.00036597251892089844
ell 92, elapsed: 0.00044798851013183594
ell 91, elapsed: 0.0003631114959716797
ell 90, elapsed: 0.0004448890686035156
ell 89, elapsed: 0.0003600120544433594
ell 88, elapsed: 0.0004448890686035156
ell 87, elapsed: 0.0003647804260253906
ell 86, elapsed: 0.0004971027374267578
ell 85, elapsed: 0.0003681182861328125
ell 84, elapsed: 0.00044798851013183594
ell 83, elapsed: 0.0003578662872314453
ell 82, elapsed: 0.0004401206970214844
ell 81, elapsed: 0.0003619194030761719
ell 80, elapsed: 0.0004398822784423828
ell 79, elapsed: 0.0003600120544433594
ell 78, elapsed: 0.0004401206970214844
ell 77, elapsed: 0.0003809928894042969
ell 76, elapsed: 0.0006809234619140625
ell 75, elapsed: 0.0003647804260253906
ell 74, elapsed: 0.0004467964172363281
ell 73, elapsed: 0.0003600120544433594
ell 72, elapsed: 0.0004398822784423828
ell 71, elapsed: 0.0003609657287597656
ell 70, elapsed: 0.00043892860412597656
ell 69, elapsed: 0.0007441043853759766
ell 68, elapsed: 0.00045490264892578125
ell 67, elapsed: 0.0003650188446044922
ell 66, elapsed: 0.0004451274871826172
ell 65, elapsed: 0.0003669261932373047
ell 64, elapsed: 0.0004420280456542969
ell 63, elapsed: 0.0003650188446044922
ell 62, elapsed: 0.0004470348358154297
ell 61, elapsed: 0.000392913818359375
ell 60, elapsed: 0.00044798851013183594
ell 59, elapsed: 0.0003650188446044922
[...]
ell 782, elapsed: 0.0014760494232177734
ell 781, elapsed: 0.01681685447692871
ell 780, elapsed: 0.000782012939453125
ell 779, elapsed: 0.00074005126953125
ell 778, elapsed: 0.0007290840148925781
ell 772, elapsed: 0.0015039443969726562
ell 771, elapsed: 0.0007381439208984375
ell 770, elapsed: 0.0007340908050537109
ell 769, elapsed: 0.0007271766662597656
ell 768, elapsed: 0.0007488727569580078
ell 762, elapsed: 0.0015079975128173828
ell 761, elapsed: 0.0007588863372802734
ell 760, elapsed: 0.0007381439208984375
ell 759, elapsed: 0.0007371902465820312
ell 758, elapsed: 0.0008218288421630859
ell 752, elapsed: 0.0014438629150390625
ell 751, elapsed: 0.0007650852203369141
ell 750, elapsed: 0.0007610321044921875
ell 749, elapsed: 0.00485992431640625
ell 748, elapsed: 0.0007519721984863281
ell 742, elapsed: 0.0014500617980957031
ell 741, elapsed: 0.000743865966796875
ell 740, elapsed: 0.0007569789886474609
ell 739, elapsed: 0.0007359981536865234
ell 738, elapsed: 0.0007431507110595703
ell 732, elapsed: 0.0014500617980957031
ell 731, elapsed: 0.0007319450378417969
ell 730, elapsed: 0.0007250308990478516
ell 729, elapsed: 0.0007309913635253906
ell 728, elapsed: 0.0007319450378417969
ell 722, elapsed: 0.0014660358428955078
ell 721, elapsed: 0.0007460117340087891
ell 720, elapsed: 0.0007390975952148438
ell 719, elapsed: 0.0007290840148925781
ell 718, elapsed: 0.0007328987121582031
ell 712, elapsed: 0.017561912536621094
ell 711, elapsed: 0.000759124755859375
ell 710, elapsed: 0.0007309913635253906
ell 709, elapsed: 0.0007290840148925781
ell 708, elapsed: 0.0008311271667480469
ell 702, elapsed: 0.0014469623565673828
ell 701, elapsed: 0.0007250308990478516
ell 700, elapsed: 0.0007319450378417969
ell 699, elapsed: 0.0007510185241699219
ell 698, elapsed: 0.0007419586181640625
ell 692, elapsed: 0.0014438629150390625
ell 691, elapsed: 0.0007200241088867188
ell 690, elapsed: 0.0007388591766357422
ell 689, elapsed: 0.0007281303405761719
ell 688, elapsed: 0.0007388591766357422
ell 682, elapsed: 0.0014140605926513672
ell 681, elapsed: 0.01692795753479004
ell 680, elapsed: 0.0007779598236083984
ell 679, elapsed: 0.0007531642913818359
ell 678, elapsed: 0.0007410049438476562
ell 672, elapsed: 0.0014848709106445312
ell 671, elapsed: 0.0007278919219970703
ell 670, elapsed: 0.0007340908050537109
ell 669, elapsed: 0.0007388591766357422
ell 668, elapsed: 0.0007390975952148438
ell 662, elapsed: 0.0014510154724121094
ell 661, elapsed: 0.0007309913635253906
ell 660, elapsed: 0.0007340908050537109
ell 659, elapsed: 0.0007288455963134766
ell 658, elapsed: 0.0007529258728027344
ell 652, elapsed: 0.0013689994812011719
ell 651, elapsed: 0.0007300376892089844
ell 650, elapsed: 0.0007379055023193359
ell 649, elapsed: 0.0007481575012207031
ell 648, elapsed: 0.0007181167602539062
ell 642, elapsed: 0.0014281272888183594
ell 641, elapsed: 0.0007319450378417969
ell 640, elapsed: 0.016828060150146484
ell 639, elapsed: 0.0007679462432861328
ell 638, elapsed: 0.0007500648498535156
ell 632, elapsed: 0.0014331340789794922
ell 631, elapsed: 0.0007550716400146484
ell 630, elapsed: 0.0007379055023193359
ell 629, elapsed: 0.0007331371307373047
ell 628, elapsed: 0.0008029937744140625
ell 622, elapsed: 0.0015568733215332031
ell 621, elapsed: 0.0007910728454589844
ell 620, elapsed: 0.0007410049438476562
ell 619, elapsed: 0.0007359981536865234
ell 618, elapsed: 0.0007369518280029297
ell 612, elapsed: 0.0014998912811279297
ell 611, elapsed: 0.0007398128509521484
ell 610, elapsed: 0.0007328987121582031
ell 609, elapsed: 0.0007269382476806641
ell 608, elapsed: 0.0007669925689697266
ell 602, elapsed: 0.0014259815216064453
ell 601, elapsed: 0.0007300376892089844
ell 600, elapsed: 0.0008029937744140625
ell 599, elapsed: 0.0007381439208984375
ell 598, elapsed: 0.0007238388061523438
ell 592, elapsed: 0.0014240741729736328
ell 591, elapsed: 0.0007269382476806641
ell 590, elapsed: 0.0007369518280029297
ell 589, elapsed: 0.0007569789886474609
ell 588, elapsed: 0.0007600784301757812
ell 582, elapsed: 0.001483917236328125
ell 581, elapsed: 0.0007739067077636719
ell 580, elapsed: 0.0007381439208984375
ell 579, elapsed: 0.0007388591766357422
ell 578, elapsed: 0.0007421970367431641
ell 572, elapsed: 0.0015079975128173828
ell 571, elapsed: 0.0007328987121582031
ell 570, elapsed: 0.0007410049438476562
ell 569, elapsed: 0.0007300376892089844
ell 568, elapsed: 0.0007350444793701172
ell 562, elapsed: 0.0014700889587402344
ell 561, elapsed: 0.0007300376892089844
ell 560, elapsed: 0.0007309913635253906
ell 559, elapsed: 0.0007140636444091797
ell 558, elapsed: 0.0007159709930419922
ell 552, elapsed: 0.0015189647674560547
ell 551, elapsed: 0.0007610321044921875
ell 550, elapsed: 0.0007491111755371094
ell 549, elapsed: 0.0007538795471191406
ell 548, elapsed: 0.0007359981536865234
ell 542, elapsed: 0.0014679431915283203
ell 541, elapsed: 0.0007719993591308594
ell 540, elapsed: 0.0007607936859130859
ell 539, elapsed: 0.0007269382476806641
ell 538, elapsed: 0.0007359981536865234
ell 532, elapsed: 0.00144195556640625
ell 531, elapsed: 0.0007441043853759766
ell 530, elapsed: 0.0007519721984863281
ell 529, elapsed: 0.0007369518280029297
ell 528, elapsed: 0.0007269382476806641
ell 522, elapsed: 0.0014369487762451172
ell 521, elapsed: 0.0007619857788085938
ell 520, elapsed: 0.0007290840148925781
ell 519, elapsed: 0.0007178783416748047
ell 518, elapsed: 0.0007419586181640625
ell 512, elapsed: 0.0015239715576171875
ell 511, elapsed: 0.0007319450378417969
ell 510, elapsed: 0.0007381439208984375
ell 509, elapsed: 0.0007290840148925781
ell 508, elapsed: 0.0007269382476806641
ell 502, elapsed: 0.0016951560974121094
ell 501, elapsed: 0.0007331371307373047
ell 500, elapsed: 0.0007259845733642578
ell 499, elapsed: 0.0010199546813964844
ell 498, elapsed: 0.0007379055023193359
ell 492, elapsed: 0.0014388561248779297
ell 491, elapsed: 0.0007250308990478516
ell 490, elapsed: 0.0010409355163574219
ell 489, elapsed: 0.0007240772247314453
ell 488, elapsed: 0.0007381439208984375
ell 482, elapsed: 0.0014438629150390625
ell 481, elapsed: 0.0010199546813964844
ell 480, elapsed: 0.0007309913635253906
ell 479, elapsed: 0.0007359981536865234
ell 478, elapsed: 0.0007340908050537109
ell 472, elapsed: 0.0017669200897216797
ell 471, elapsed: 0.0007338523864746094
ell 470, elapsed: 0.0007269382476806641
ell 469, elapsed: 0.0007359981536865234
ell 468, elapsed: 0.00102996826171875
ell 462, elapsed: 0.0014581680297851562
ell 461, elapsed: 0.0007541179656982422
ell 460, elapsed: 0.0007448196411132812
ell 459, elapsed: 0.0010540485382080078
ell 458, elapsed: 0.0007469654083251953
ell 452, elapsed: 0.0014641284942626953
ell 451, elapsed: 0.0007441043853759766
ell 450, elapsed: 0.0010340213775634766
ell 449, elapsed: 0.0007479190826416016
ell 448, elapsed: 0.0007441043853759766
ell 442, elapsed: 0.0015039443969726562
ell 441, elapsed: 0.0007421970367431641
ell 440, elapsed: 0.0007288455963134766
ell 439, elapsed: 0.0007300376892089844
ell 438, elapsed: 0.0007300376892089844
ell 432, elapsed: 0.0017409324645996094
ell 431, elapsed: 0.0007319450378417969
ell 430, elapsed: 0.0007340908050537109
ell 429, elapsed: 0.0007219314575195312
ell 428, elapsed: 0.0010981559753417969
ell 422, elapsed: 0.0014519691467285156
ell 421, elapsed: 0.0007379055023193359
ell 420, elapsed: 0.0007350444793701172
ell 419, elapsed: 0.0007398128509521484
ell 418, elapsed: 0.0007457733154296875
ell 412, elapsed: 0.0014820098876953125
ell 411, elapsed: 0.000762939453125
ell 410, elapsed: 0.0007309913635253906
ell 409, elapsed: 0.0007421970367431641
ell 408, elapsed: 0.0007379055023193359
ell 402, elapsed: 0.0017600059509277344
ell 401, elapsed: 0.0007259845733642578
ell 400, elapsed: 0.0007319450378417969
ell 399, elapsed: 0.0007460117340087891
ell 398, elapsed: 0.0009579658508300781
ell 392, elapsed: 0.001399993896484375
ell 391, elapsed: 0.0007169246673583984
ell 390, elapsed: 0.0007150173187255859
ell 389, elapsed: 0.0007381439208984375
ell 388, elapsed: 0.0007419586181640625
ell 382, elapsed: 0.0014600753784179688
ell 381, elapsed: 0.0007159709930419922
ell 380, elapsed: 0.0007529258728027344
ell 379, elapsed: 0.0007338523864746094
ell 378, elapsed: 0.0007469654083251953
ell 372, elapsed: 0.0014829635620117188
ell 371, elapsed: 0.0007498264312744141
ell 370, elapsed: 0.0007457733154296875
ell 369, elapsed: 0.0007159709930419922
ell 368, elapsed: 0.0007350444793701172
ell 362, elapsed: 0.0015380382537841797
ell 361, elapsed: 0.0007429122924804688
ell 360, elapsed: 0.0007359981536865234
ell 359, elapsed: 0.0007259845733642578
ell 358, elapsed: 0.0007371902465820312
ell 352, elapsed: 0.0015249252319335938
ell 351, elapsed: 0.0007300376892089844
ell 350, elapsed: 0.0007219314575195312
ell 349, elapsed: 0.0007200241088867188
ell 348, elapsed: 0.0008199214935302734
ell 342, elapsed: 0.0016210079193115234
ell 341, elapsed: 0.00074005126953125
ell 340, elapsed: 0.0007340908050537109
ell 339, elapsed: 0.0008111000061035156
ell 338, elapsed: 0.0007131099700927734
ell 332, elapsed: 0.0014529228210449219
ell 331, elapsed: 0.0007081031799316406
ell 330, elapsed: 0.0008158683776855469
ell 329, elapsed: 0.0007271766662597656
ell 328, elapsed: 0.0007290840148925781
ell 322, elapsed: 0.0014469623565673828
ell 321, elapsed: 0.0008399486541748047
ell 320, elapsed: 0.0007081031799316406
ell 319, elapsed: 0.0007190704345703125
ell 318, elapsed: 0.0007178783416748047
ell 312, elapsed: 0.0013921260833740234
ell 311, elapsed: 0.0007100105285644531
ell 310, elapsed: 0.0007200241088867188
ell 309, elapsed: 0.0007181167602539062
ell 308, elapsed: 0.0007300376892089844
ell 302, elapsed: 0.0019249916076660156
ell 301, elapsed: 0.0007128715515136719
ell 300, elapsed: 0.0007119178771972656
ell 299, elapsed: 0.0007112026214599609
ell 298, elapsed: 0.0007889270782470703
ell 292, elapsed: 0.0014100074768066406
ell 291, elapsed: 0.0007359981536865234
ell 290, elapsed: 0.0007338523864746094
ell 289, elapsed: 0.0007469654083251953
ell 288, elapsed: 0.0007288455963134766
ell 282, elapsed: 0.001394033432006836
ell 281, elapsed: 0.0007200241088867188
ell 280, elapsed: 0.0007538795471191406
ell 279, elapsed: 0.0007319450378417969
ell 278, elapsed: 0.0007660388946533203
ell 272, elapsed: 0.0014729499816894531
ell 271, elapsed: 0.0007569789886474609
ell 270, elapsed: 0.0007450580596923828
ell 269, elapsed: 0.0007219314575195312
ell 268, elapsed: 0.0007541179656982422
ell 262, elapsed: 0.0014789104461669922
ell 261, elapsed: 0.0007381439208984375
ell 260, elapsed: 0.0007390975952148438
ell 259, elapsed: 0.0007350444793701172
ell 258, elapsed: 0.0007410049438476562
ell 252, elapsed: 0.0015799999237060547
ell 251, elapsed: 0.0007491111755371094
ell 250, elapsed: 0.0007579326629638672
ell 249, elapsed: 0.0008041858673095703
ell 248, elapsed: 0.0009291172027587891
ell 242, elapsed: 0.0015778541564941406
ell 241, elapsed: 0.0007548332214355469
ell 240, elapsed: 0.0007498264312744141
ell 239, elapsed: 0.0007991790771484375
ell 238, elapsed: 0.0007159709930419922
ell 232, elapsed: 0.0014319419860839844
ell 231, elapsed: 0.0007309913635253906
ell 230, elapsed: 0.000804901123046875
ell 229, elapsed: 0.0007321834564208984
ell 228, elapsed: 0.0007238388061523438
ell 222, elapsed: 0.0014379024505615234
ell 221, elapsed: 0.0008530616760253906
ell 220, elapsed: 0.0007569789886474609
ell 219, elapsed: 0.0007300376892089844
ell 218, elapsed: 0.0007059574127197266
ell 212, elapsed: 0.0015990734100341797
ell 211, elapsed: 0.0007860660552978516
ell 210, elapsed: 0.0007789134979248047
ell 209, elapsed: 0.0007760524749755859
ell 208, elapsed: 0.0007579326629638672
ell 202, elapsed: 0.0015549659729003906
ell 201, elapsed: 0.0007960796356201172
ell 200, elapsed: 0.0007979869842529297
ell 199, elapsed: 0.0009140968322753906
ell 198, elapsed: 0.0007948875427246094
ell 192, elapsed: 0.001528024673461914
ell 191, elapsed: 0.000782012939453125
ell 190, elapsed: 0.0009121894836425781
ell 189, elapsed: 0.0007929801940917969
ell 188, elapsed: 0.0007929801940917969
ell 182, elapsed: 0.0016019344329833984
ell 181, elapsed: 0.000820159912109375
ell 180, elapsed: 0.0007340908050537109
ell 179, elapsed: 0.000720977783203125
ell 178, elapsed: 0.0007197856903076172
ell 172, elapsed: 0.001744985580444336
ell 171, elapsed: 0.000698089599609375
ell 170, elapsed: 0.0006949901580810547
ell 169, elapsed: 0.0007290840148925781
ell 168, elapsed: 0.0007441043853759766
ell 162, elapsed: 0.001461029052734375
ell 161, elapsed: 0.0007259845733642578
ell 160, elapsed: 0.0007398128509521484
ell 159, elapsed: 0.0008490085601806641
ell 158, elapsed: 0.0008428096771240234
ell 152, elapsed: 0.0015740394592285156
ell 151, elapsed: 0.0007898807525634766
ell 150, elapsed: 0.0008871555328369141
ell 149, elapsed: 0.0007262229919433594
ell 148, elapsed: 0.0007789134979248047
ell 142, elapsed: 0.0015671253204345703
ell 141, elapsed: 0.0008649826049804688
ell 140, elapsed: 0.0007719993591308594
ell 139, elapsed: 0.0007650852203369141
ell 138, elapsed: 0.0007710456848144531
ell 132, elapsed: 0.0016298294067382812
ell 131, elapsed: 0.0007910728454589844
ell 130, elapsed: 0.0007750988006591797
ell 129, elapsed: 0.0007748603820800781
ell 128, elapsed: 0.000843048095703125
ell 122, elapsed: 0.0014719963073730469
ell 121, elapsed: 0.0007419586181640625
ell 120, elapsed: 0.0007069110870361328
ell 119, elapsed: 0.0008029937744140625
ell 118, elapsed: 0.0007340908050537109
ell 112, elapsed: 0.0014350414276123047
ell 111, elapsed: 0.0007390975952148438
ell 110, elapsed: 0.0008299350738525391
ell 109, elapsed: 0.0007278919219970703
ell 108, elapsed: 0.0007359981536865234
ell 102, elapsed: 0.0014679431915283203
ell 101, elapsed: 0.00327301025390625
ell 100, elapsed: 0.003329038619995117
ell 99, elapsed: 0.003323078155517578
ell 98, elapsed: 0.0034351348876953125
ell 92, elapsed: 0.006181955337524414
ell 91, elapsed: 0.0036509037017822266
ell 90, elapsed: 0.0032439231872558594
ell 89, elapsed: 0.003053903579711914
ell 88, elapsed: 0.003039121627807617
ell 82, elapsed: 0.006070137023925781
ell 81, elapsed: 0.0034148693084716797
ell 80, elapsed: 0.002956867218017578
ell 79, elapsed: 0.003573894500732422
ell 78, elapsed: 0.003304004669189453
ell 72, elapsed: 0.006502866744995117
ell 71, elapsed: 0.0030319690704345703
ell 70, elapsed: 0.003075122833251953
ell 69, elapsed: 0.003047943115234375
ell 68, elapsed: 0.0029790401458740234
ell 62, elapsed: 0.006201028823852539
ell 61, elapsed: 0.0036411285400390625
ell 60, elapsed: 0.0040509700775146484
ell 59, elapsed: 0.0037000179290771484
ell 58, elapsed: 0.003840208053588867
ell 52, elapsed: 0.005835056304931641
ell 51, elapsed: 0.0030210018157958984
ell 50, elapsed: 0.0034780502319335938
ell 49, elapsed: 0.0038537979125976562
ell 48, elapsed: 0.0036001205444335938
ell 42, elapsed: 0.006750822067260742
ell 41, elapsed: 0.004343986511230469
ell 40, elapsed: 0.003281831741333008
ell 39, elapsed: 0.003236055374145508
ell 38, elapsed: 0.0032122135162353516
ell 32, elapsed: 0.005845069885253906
ell 31, elapsed: 0.0029931068420410156
ell 30, elapsed: 0.003247976303100586
ell 29, elapsed: 0.003734111785888672
ell 28, elapsed: 0.003701925277709961
ell 22, elapsed: 0.0058519840240478516
ell 21, elapsed: 0.003226041793823242
ell 20, elapsed: 0.003000974655151367
ell 19, elapsed: 0.0029921531677246094
ell 18, elapsed: 0.0034699440002441406
ell 12, elapsed: 0.006526947021484375
ell 11, elapsed: 0.0033168792724609375
ell 10, elapsed: 0.0030159950256347656
ell 9, elapsed: 0.0032541751861572266
ell 8, elapsed: 0.0029938220977783203
  0.888412 seconds (74.11 k allocations: 12.050 MiB)
elapsed: 0.004308938980102539
step:          0.065217 sec (0 allocations: 0 byte, 0.0% gc time)
swapping:      0.000848 sec (0 allocations: 0 byte, 0.0% gc time)
calc_Mellell!: 0.030254 sec (0 allocations: 0 byte, 0.0% gc time)
  t0 :  0.010527 sec (0 allocations: 0 byte, 0.0% gc time)
  tm2 : 0.08078 sec (0 allocations: 0 byte, 0.0% gc time)
  tm2s: 0.008934 sec (0 allocations: 0 byte, 0.0% gc time)
  tm4 : 0.20276 sec (0 allocations: 0 byte, 0.0% gc time)
  tp2 : 0.0 sec (0 allocations: 0 byte, 0.0% gc time)
  tp2s: 0.0 sec (0 allocations: 0 byte, 0.0% gc time)
  tp4 : 0.0 sec (0 allocations: 0 byte, 0.0% gc time)
calc_wtdll!:   0.56051 sec (49.2 k allocations: 11.133 MB, 0.0% gc time)
calc_wljj!:    0.038843 sec (69 allocations: 1.078 KB, 0.0% gc time)
mult_prefac!:  0.0 sec (0 allocations: 0 byte, 0.0% gc time)
convert:       0.0 sec (0 allocations: 0 byte, 0.0% gc time)
write:         0.037291 sec (0 allocations: 0 byte, 0.0% gc time)
test_rand_2f1: 0.0 sec (0 allocations: 0 byte, 0.0% gc time)
Closing outfile out/MlCache/MlCache.bin...   0.000011 seconds
xi, l=0, nu=0:   0.484520 seconds (556.07 k allocations: 27.070 MiB)
xi, l=0, nu=-2:  0.002347 seconds (144 allocations: 149.563 KiB)
Created 'out/xi.tsv'.
  q=1.1, R=0.6:	  1.195550 seconds (373.06 k allocations: 174.511 MiB, 3.26% gc time)
  q=1.1, R=0.7:	  1.377075 seconds (391.29 k allocations: 182.916 MiB, 1.53% gc time)
  q=1.1, R=0.8:	  1.245062 seconds (383.81 k allocations: 179.466 MiB, 1.67% gc time)
  q=1.1, R=0.9:	  1.270584 seconds (376.40 k allocations: 176.056 MiB, 1.65% gc time)
  q=1.1, R=0.998:	 22.027042 seconds (10.67 M allocations: 831.832 MiB, 0.29% gc time)
  q=1.1, R=1.0:	  0.044966 seconds (12.29 k allocations: 9.129 MiB, 5.58% gc time)

ℓ = 1000
Δℓ = 4
ΔℓRg1 = -4
N = 4096
q = 1.1
kmin = 1.0e-5
kmax = 1000.0
χ0 = 0.001
RR = RR.tsv
ℓmax = ℓmax.bin
f21 = f21.bin
kmin = 1.0e-5
kmax = 1000.0
dlrec    = 4
dlrecRg1 = -4
Output size: 1573632 bytes = 0.0014655590057373047 GiB
Output size: 786816 bytes = 0.0007327795028686523 GiB
Reading 'out/F21EllCache'...   0.001480 seconds (272 allocations: 533.594 KiB)
ellmax: 1002
lmaxcache: 1000
fell[:,1,1] = Complex{Float64}[1.7262928128202118e-224 - 4.2281979352226944e-240im, 1.7282693092099662e-224 - 4.233038955177176e-240im]
ell 1002, elapsed: 2.2172927856445312e-5
ell 1001, elapsed: 0.0011260509490966797
ell 1000, elapsed: 0.001172780990600586
ell 999, elapsed: 0.005532979965209961
ell 998, elapsed: 0.005602836608886719
ell 44, elapsed: 0.6521430015563965
ell 43, elapsed: 0.0056340694427490234
ell 42, elapsed: 0.005235910415649414
ell 41, elapsed: 0.0064868927001953125
ell 40, elapsed: 0.005433082580566406
  0.695573 seconds (4.65 k allocations: 318.375 KiB)
elapsed: 0.006641864776611328
step:          0.648711 sec (0 allocations: 0 byte, 0.0% gc time)
swapping:      0.00049 sec (0 allocations: 0 byte, 0.0% gc time)
calc_Mellell!: 0.001067 sec (0 allocations: 0 byte, 0.0% gc time)
  t0 :  0.000789 sec (0 allocations: 0 byte, 0.0% gc time)
  tm2 : 0.010062 sec (0 allocations: 0 byte, 0.0% gc time)
  tm2s: 0.000716 sec (0 allocations: 0 byte, 0.0% gc time)
  tm4 : 0.028035 sec (0 allocations: 0 byte, 0.0% gc time)
  tp2 : 0.0 sec (0 allocations: 0 byte, 0.0% gc time)
  tp2s: 0.0 sec (0 allocations: 0 byte, 0.0% gc time)
  tp4 : 0.0 sec (0 allocations: 0 byte, 0.0% gc time)
calc_wtdll!:   0.039772 sec (480 allocations: 52.5 KB, 0.0% gc time)
calc_wljj!:    0.00155 sec (1 allocations: 16 byte, 0.0% gc time)
mult_prefac!:  0.0 sec (0 allocations: 0 byte, 0.0% gc time)
convert:       0.0 sec (0 allocations: 0 byte, 0.0% gc time)
write:         0.000974 sec (0 allocations: 0 byte, 0.0% gc time)
test_rand_2f1: 0.0 sec (0 allocations: 0 byte, 0.0% gc time)
Closing outfile out/MlCache/MlCache.bin...   0.001196 seconds
  0.470267 seconds (54 allocations: 67.203 KiB)
make_phi():   0.010223 seconds (80 allocations: 276.297 KiB)
  0.002982 seconds (108 allocations: 5.813 KiB)
tskip:       1.0e-6 sec (0 allocations: 0 byte, 0.0% gc time)
tread:       0.000687 sec (20 allocations: 1.328 KB, 0.0% gc time)
tmultphi:    0.000289 sec (0 allocations: 0 byte, 0.0% gc time)
tbrfft:      0.001192 sec (96 allocations: 4.5 KB, 0.0% gc time)
tmultprefac: 0.000836 sec (0 allocations: 0 byte, 0.0% gc time)
toutfunc:    0.00012 sec (0 allocations: 0 byte, 0.0% gc time)
Created 'out/wl42_jj00.tsv'.
Created 'out/wl42_jj02.tsv'.
   Testing TwoFAST tests passed 
