Julia Version 1.3.0
Commit 46ce4d7933 (2019-11-26 06:09 UTC)
Platform Info:
  OS: Linux (x86_64-pc-linux-gnu)
  CPU: Intel(R) Xeon(R) Silver 4114 CPU @ 2.20GHz
  WORD_SIZE: 64
  LIBM: libopenlibm
  LLVM: libLLVM-6.0.1 (ORCJIT, skylake)

   Cloning default registries into `~/.julia`
   Cloning registry from "https://github.com/JuliaRegistries/General.git"
[?25l    Fetching: [>                                        ]  0.0 %    Fetching: [==============>                          ]  32.9 %    Fetching: [==================================>      ]  83.3 %[2K[?25h     Added registry `General` to `~/.julia/registries/General`
 Resolving package versions...
 Installed VersionParsing ─── v1.1.3
 Installed IncGammaBeta ───── v0.1.0
 Installed URIParser ──────── v0.4.0
 Installed Reexport ───────── v0.2.0
 Installed BinDeps ────────── v1.0.0
 Installed SpecialFunctions ─ v0.8.0
 Installed AbstractAlgebra ── v0.7.1
 Installed TwoFAST ────────── v0.1.0
 Installed Compat ─────────── v2.2.0
 Installed FFTW ───────────── v1.1.0
 Installed BinaryProvider ─── v0.5.8
 Installed Nemo ───────────── v0.15.1
 Installed JSON ───────────── v0.21.0
 Installed Conda ──────────── v1.3.0
 Installed AbstractFFTs ───── v0.5.0
 Installed Parsers ────────── v0.3.10
  Updating `~/.julia/environments/v1.3/Project.toml`
  [0dd23c3e] + TwoFAST v0.1.0
  Updating `~/.julia/environments/v1.3/Manifest.toml`
  [c3fe647b] + AbstractAlgebra v0.7.1
  [621f4979] + AbstractFFTs v0.5.0
  [9e28174c] + BinDeps v1.0.0
  [b99e7846] + BinaryProvider v0.5.8
  [34da2185] + Compat v2.2.0
  [8f4d0f93] + Conda v1.3.0
  [7a1cc6ca] + FFTW v1.1.0
  [5087d2c0] + IncGammaBeta v0.1.0
  [682c06a0] + JSON v0.21.0
  [2edaba10] + Nemo v0.15.1
  [69de0a69] + Parsers v0.3.10
  [189a3867] + Reexport v0.2.0
  [276daf66] + SpecialFunctions v0.8.0
  [0dd23c3e] + TwoFAST v0.1.0
  [30578b45] + URIParser v0.4.0
  [81def892] + VersionParsing v1.1.3
  [2a0f44e3] + Base64 
  [ade2ca70] + Dates 
  [8bb1440f] + DelimitedFiles 
  [8ba89e20] + Distributed 
  [b77e0a4c] + InteractiveUtils 
  [76f85450] + LibGit2 
  [8f399da3] + Libdl 
  [37e2e46d] + LinearAlgebra 
  [56ddb016] + Logging 
  [d6f4376e] + Markdown 
  [a63ad114] + Mmap 
  [44cfe95a] + Pkg 
  [de0858da] + Printf 
  [3fa0cd96] + REPL 
  [9a3f8284] + Random 
  [ea8e919c] + SHA 
  [9e88b42a] + Serialization 
  [1a1011a3] + SharedArrays 
  [6462fe0b] + Sockets 
  [2f01184e] + SparseArrays 
  [10745b16] + Statistics 
  [8dfed614] + Test 
  [cf7118a7] + UUIDs 
  [4ec0a83e] + Unicode 
  Building SpecialFunctions → `~/.julia/packages/SpecialFunctions/ne2iw/deps/build.log`
  Building Conda ───────────→ `~/.julia/packages/Conda/kLXeC/deps/build.log`
  Building FFTW ────────────→ `~/.julia/packages/FFTW/loJ3F/deps/build.log`
  Building Nemo ────────────→ `~/.julia/packages/Nemo/qzx0m/deps/build.log`
   Testing TwoFAST
 Resolving package versions...
 Installed Dierckx ─ v0.4.1
  Building Dierckx → `~/.julia/packages/Dierckx/9SY4A/deps/build.log`
    Status `/tmp/jl_Yq6AeB/Manifest.toml`
  [c3fe647b] AbstractAlgebra v0.7.1
  [621f4979] AbstractFFTs v0.5.0
  [9e28174c] BinDeps v1.0.0
  [b99e7846] BinaryProvider v0.5.8
  [34da2185] Compat v2.2.0
  [8f4d0f93] Conda v1.3.0
  [39dd38d3] Dierckx v0.4.1
  [7a1cc6ca] FFTW v1.1.0
  [5087d2c0] IncGammaBeta v0.1.0
  [682c06a0] JSON v0.21.0
  [2edaba10] Nemo v0.15.1
  [69de0a69] Parsers v0.3.10
  [189a3867] Reexport v0.2.0
  [276daf66] SpecialFunctions v0.8.0
  [0dd23c3e] TwoFAST v0.1.0
  [30578b45] URIParser v0.4.0
  [81def892] VersionParsing v1.1.3
  [2a0f44e3] Base64  [`@stdlib/Base64`]
  [ade2ca70] Dates  [`@stdlib/Dates`]
  [8bb1440f] DelimitedFiles  [`@stdlib/DelimitedFiles`]
  [8ba89e20] Distributed  [`@stdlib/Distributed`]
  [b77e0a4c] InteractiveUtils  [`@stdlib/InteractiveUtils`]
  [76f85450] LibGit2  [`@stdlib/LibGit2`]
  [8f399da3] Libdl  [`@stdlib/Libdl`]
  [37e2e46d] LinearAlgebra  [`@stdlib/LinearAlgebra`]
  [56ddb016] Logging  [`@stdlib/Logging`]
  [d6f4376e] Markdown  [`@stdlib/Markdown`]
  [a63ad114] Mmap  [`@stdlib/Mmap`]
  [44cfe95a] Pkg  [`@stdlib/Pkg`]
  [de0858da] Printf  [`@stdlib/Printf`]
  [3fa0cd96] REPL  [`@stdlib/REPL`]
  [9a3f8284] Random  [`@stdlib/Random`]
  [ea8e919c] SHA  [`@stdlib/SHA`]
  [9e88b42a] Serialization  [`@stdlib/Serialization`]
  [1a1011a3] SharedArrays  [`@stdlib/SharedArrays`]
  [6462fe0b] Sockets  [`@stdlib/Sockets`]
  [2f01184e] SparseArrays  [`@stdlib/SparseArrays`]
  [10745b16] Statistics  [`@stdlib/Statistics`]
  [8dfed614] Test  [`@stdlib/Test`]
  [cf7118a7] UUIDs  [`@stdlib/UUIDs`]
  [4ec0a83e] Unicode  [`@stdlib/Unicode`]

Welcome to Nemo version 0.15.1

Nemo comes with absolutely no warranty whatsoever


Welcome to Nemo version 0.15.1

Nemo comes with absolutely no warranty whatsoever

Testing ξ(r), ℓ=0, ν=-1 ... passed
Testing ξ(r), ℓ=0, ν=0 ... passed
Testing ξ(r), ℓ=0, ν=1 ... passed
Testing ξ(r), ℓ=0, ν=2 ... passed
Testing ξ(r), ℓ=0, ν=3 ... passed
Testing ξ(r), ℓ=1, ν=0 ... passed
Testing ξ(r), ℓ=1, ν=1 ... passed
Testing ξ(r), ℓ=1, ν=2 ... passed
Testing ξ(r), ℓ=1, ν=3 ... passed
Testing ξ(r), ℓ=2, ν=-1 ... passed
Testing ξ(r), ℓ=2, ν=0 ... passed
Testing ξ(r), ℓ=2, ν=1 ... passed
Testing ξ(r), ℓ=2, ν=2 ... passed
Testing ξ(r), ℓ=2, ν=3 ... passed
Testing ξ(r), ℓ=3, ν=-1 ... passed
Testing ξ(r), ℓ=3, ν=0 ... passed
Testing ξ(r), ℓ=3, ν=1 ... passed
Testing ξ(r), ℓ=3, ν=2 ... passed
Testing ξ(r), ℓ=3, ν=3 ... passed
Testing ξ(r), ℓ=4, ν=-1 ... passed
Testing ξ(r), ℓ=4, ν=0 ... passed
Testing ξ(r), ℓ=4, ν=1 ... passed
Testing ξ(r), ℓ=4, ν=2 ... passed
Testing ξ(r), ℓ=4, ν=3 ... passed
Testing ξ(r) ... passed
Testing ξ′(r) ... passed
Testing ξ″(r) ... passed
Calculating fmax: 
  dlrec    = 4
  dlrecRg1 = -4
  q=1.1, R=1.1:	  4.069515 seconds (1.11 M allocations: 119.114 MiB, 4.18% gc time)

  4.093371 seconds (1.11 M allocations: 119.472 MiB, 4.16% gc time)
ℓ = 1202
Δℓ = 4
ΔℓRg1 = -4
N = 1600
q = 1.1
kmin = 1.0e-5
kmax = 100000.00000000004
χ0 = 0.023029999999999995
RR = RR.tsv
ℓmax = ℓmax.bin
f21 = f21.bin
kmin = 1.0e-5
kmax = 100000.0
dlrec    = 4
dlrecRg1 = -4
Output size: 5741568 bytes = 0.005347251892089844 GiB
Output size: 51264 bytes = 4.774332046508789e-5 GiB
Reading 'out/F21EllCache'...   0.601916 seconds (348.12 k allocations: 17.867 MiB, 6.46% gc time)
ellmax: 1202
lmaxcache: 1202
fell[:,1,1] = Complex{Float64}[3.9583795592771634e-52 - 9.695233714158177e-68im, 3.990121772925759e-52 - 9.772979714843386e-68im]
ell 1202, elapsed: 0.003245115280151367
ell 1201, elapsed: 2.2078089714050293
ell 1200, elapsed: 0.0004830360412597656
ell 1199, elapsed: 0.0004191398620605469
ell 1198, elapsed: 0.00043392181396484375
ell 1002, elapsed: 0.009252786636352539
ell 1001, elapsed: 0.00042891502380371094
ell 1000, elapsed: 0.0004379749298095703
ell 999, elapsed: 0.00043010711669921875
ell 998, elapsed: 0.0004391670227050781
ell 902, elapsed: 0.004908084869384766
ell 901, elapsed: 0.0007090568542480469
ell 900, elapsed: 0.0005970001220703125
ell 899, elapsed: 0.0005049705505371094
ell 898, elapsed: 0.0004570484161376953
ell 802, elapsed: 0.005113124847412109
ell 801, elapsed: 0.0005447864532470703
ell 800, elapsed: 0.0005240440368652344
ell 799, elapsed: 0.0005030632019042969
ell 798, elapsed: 0.0005137920379638672
ell 702, elapsed: 0.004925966262817383
ell 701, elapsed: 0.0005309581756591797
ell 700, elapsed: 0.0005440711975097656
ell 699, elapsed: 0.0004181861877441406
ell 698, elapsed: 0.0004630088806152344
ell 602, elapsed: 0.004994869232177734
ell 601, elapsed: 0.0005011558532714844
ell 600, elapsed: 0.0004229545593261719
ell 599, elapsed: 0.00038695335388183594
ell 598, elapsed: 0.0004229545593261719
ell 502, elapsed: 0.005089998245239258
ell 501, elapsed: 0.0004470348358154297
ell 500, elapsed: 0.00043487548828125
ell 499, elapsed: 0.0004699230194091797
ell 498, elapsed: 0.000453948974609375
ell 402, elapsed: 0.004752159118652344
ell 401, elapsed: 0.0005290508270263672
ell 400, elapsed: 0.0004870891571044922
ell 399, elapsed: 0.00043201446533203125
ell 398, elapsed: 0.00041794776916503906
ell 302, elapsed: 0.005160093307495117
ell 301, elapsed: 0.000514984130859375
ell 300, elapsed: 0.0004630088806152344
ell 299, elapsed: 0.0004608631134033203
ell 298, elapsed: 0.0004520416259765625
ell 202, elapsed: 0.0052928924560546875
ell 201, elapsed: 0.0005240440368652344
ell 200, elapsed: 0.00046896934509277344
ell 199, elapsed: 0.00045609474182128906
ell 198, elapsed: 0.00044989585876464844
ell 152, elapsed: 0.002732992172241211
ell 151, elapsed: 0.0004611015319824219
ell 150, elapsed: 0.0004649162292480469
ell 149, elapsed: 0.00045299530029296875
ell 148, elapsed: 0.0004551410675048828
ell 127, elapsed: 0.0016160011291503906
ell 126, elapsed: 0.0004620552062988281
ell 125, elapsed: 0.000453948974609375
ell 124, elapsed: 0.00045108795166015625
ell 123, elapsed: 0.0004508495330810547
ell 114, elapsed: 0.0009059906005859375
ell 113, elapsed: 0.00045800209045410156
ell 112, elapsed: 0.00045299530029296875
ell 111, elapsed: 0.0004589557647705078
ell 110, elapsed: 0.00045299530029296875
ell 102, elapsed: 0.0009560585021972656
ell 101, elapsed: 0.0004661083221435547
ell 100, elapsed: 0.00045609474182128906
ell 99, elapsed: 0.00045108795166015625
ell 98, elapsed: 0.00045299530029296875
ell 97, elapsed: 0.0005030632019042969
ell 96, elapsed: 0.0005929470062255859
ell 95, elapsed: 0.0004911422729492188
ell 94, elapsed: 0.0007190704345703125
ell 93, elapsed: 0.0005800724029541016
ell 92, elapsed: 0.0005929470062255859
ell 91, elapsed: 0.000492095947265625
ell 90, elapsed: 0.0005788803100585938
ell 89, elapsed: 0.0004911422729492188
ell 88, elapsed: 0.0006330013275146484
ell 87, elapsed: 0.0004971027374267578
ell 86, elapsed: 0.000576019287109375
ell 85, elapsed: 0.0004940032958984375
ell 84, elapsed: 0.0005791187286376953
ell 83, elapsed: 0.0004889965057373047
ell 82, elapsed: 0.0006110668182373047
ell 81, elapsed: 0.000492095947265625
ell 80, elapsed: 0.0005829334259033203
ell 79, elapsed: 0.0004978179931640625
ell 78, elapsed: 0.0005700588226318359
ell 77, elapsed: 0.0004909038543701172
ell 76, elapsed: 0.0005578994750976562
ell 75, elapsed: 0.0005359649658203125
ell 74, elapsed: 0.0005748271942138672
ell 73, elapsed: 0.00048613548278808594
ell 72, elapsed: 0.0005741119384765625
ell 71, elapsed: 0.0004868507385253906
ell 70, elapsed: 0.0005679130554199219
ell 69, elapsed: 0.0004911422729492188
ell 68, elapsed: 0.0006430149078369141
ell 67, elapsed: 0.0004849433898925781
ell 66, elapsed: 0.0005609989166259766
ell 65, elapsed: 0.0004799365997314453
ell 64, elapsed: 0.0005629062652587891
ell 63, elapsed: 0.0004818439483642578
ell 62, elapsed: 0.0005669593811035156
ell 61, elapsed: 0.0005090236663818359
ell 60, elapsed: 0.0006361007690429688
ell 59, elapsed: 0.0004839897155761719
ell 58, elapsed: 0.0005638599395751953
ell 57, elapsed: 0.0004870891571044922
ell 56, elapsed: 0.0005588531494140625
ell 55, elapsed: 0.0005669593811035156
ell 54, elapsed: 0.0005750656127929688
ell 53, elapsed: 0.0004849433898925781
ell 52, elapsed: 0.0005669593811035156
ell 51, elapsed: 0.0004868507385253906
ell 50, elapsed: 0.0005700588226318359
ell 49, elapsed: 0.0004899501800537109
ell 48, elapsed: 0.0006690025329589844
ell 47, elapsed: 0.0004878044128417969
ell 46, elapsed: 0.0005650520324707031
ell 45, elapsed: 0.0004870891571044922
ell 44, elapsed: 0.0005588531494140625
ell 43, elapsed: 0.0004849433898925781
ell 42, elapsed: 0.000637054443359375
ell 41, elapsed: 0.0004899501800537109
ell 40, elapsed: 0.0005638599395751953
ell 39, elapsed: 0.0005030632019042969
ell 38, elapsed: 0.0006499290466308594
ell 37, elapsed: 0.0004839897155761719
ell 36, elapsed: 0.0005669593811035156
ell 35, elapsed: 0.000576019287109375
ell 34, elapsed: 0.0005750656127929688
ell 33, elapsed: 0.0004930496215820312
ell 32, elapsed: 0.0005729198455810547
ell 31, elapsed: 0.0004889965057373047
ell 30, elapsed: 0.0005729198455810547
ell 29, elapsed: 0.0004980564117431641
ell 28, elapsed: 0.0007200241088867188
ell 27, elapsed: 0.0004870891571044922
ell 26, elapsed: 0.0005719661712646484
ell 25, elapsed: 0.00048613548278808594
ell 24, elapsed: 0.0005669593811035156
ell 23, elapsed: 0.0004868507385253906
ell 22, elapsed: 0.0006659030914306641
ell 21, elapsed: 0.0005090236663818359
ell 20, elapsed: 0.0006458759307861328
ell 19, elapsed: 0.0004870891571044922
ell 18, elapsed: 0.0005700588226318359
ell 17, elapsed: 0.0004858970642089844
ell 16, elapsed: 0.0005929470062255859
ell 15, elapsed: 0.0005800724029541016
ell 14, elapsed: 0.0005748271942138672
ell 13, elapsed: 0.0004870891571044922
ell 12, elapsed: 0.0005729198455810547
ell 11, elapsed: 0.0004899501800537109
ell 10, elapsed: 0.0005710124969482422
ell 9, elapsed: 0.0006051063537597656
ell 8, elapsed: 0.0005800724029541016
ell 7, elapsed: 0.000492095947265625
ell 6, elapsed: 0.0005741119384765625
ell 5, elapsed: 0.0004930496215820312
ell 4, elapsed: 0.0005700588226318359
ell 3, elapsed: 0.0004930496215820312
ell 2, elapsed: 0.0006589889526367188
ell 1, elapsed: 0.000476837158203125
ell 0, elapsed: 0.0005238056182861328
  2.505658 seconds (1.51 M allocations: 74.494 MiB, 1.77% gc time)
elapsed: 0.0005729198455810547
step:          0.686631 sec (477.89 k allocations: 23.729 MB, 0.0% gc time)
swapping:      0.000508 sec (0 allocations: 0 byte, 0.0% gc time)
calc_Mellell!: 0.563686 sec (371.439 k allocations: 18.4 MB, 0.0% gc time)
  t0 :  0.0 sec (0 allocations: 0 byte, 0.0% gc time)
  tm2 : 0.0 sec (0 allocations: 0 byte, 0.0% gc time)
  tm2s: 0.0 sec (0 allocations: 0 byte, 0.0% gc time)
  tm4 : 0.0 sec (0 allocations: 0 byte, 0.0% gc time)
  tp2 : 0.0 sec (0 allocations: 0 byte, 0.0% gc time)
  tp2s: 0.0 sec (0 allocations: 0 byte, 0.0% gc time)
  tp4 : 0.0 sec (0 allocations: 0 byte, 0.0% gc time)
calc_wtdll!:   1.076295 sec (571.762 k allocations: 28.059 MB, 2.15% gc time)
calc_wljj!:    0.003583 sec (6 allocations: 96 byte, 0.0% gc time)
mult_prefac!:  0.0 sec (0 allocations: 0 byte, 0.0% gc time)
convert:       0.0 sec (0 allocations: 0 byte, 0.0% gc time)
write:         0.005361 sec (0 allocations: 0 byte, 0.0% gc time)
test_rand_2f1: 0.0 sec (0 allocations: 0 byte, 0.0% gc time)
Closing outfile out/Ml21-cache.bin...   0.000118 seconds
  1.171357 seconds (8.63 k allocations: 420.063 KiB)
make_phi():   0.014622 seconds (8.20 k allocations: 238.016 KiB)
  0.188034 seconds (121.94 k allocations: 5.916 MiB)
tskip:       2.3e-5 sec (0 allocations: 0 byte, 0.0% gc time)
tread:       0.002454 sec (20 allocations: 2.188 KB, 0.0% gc time)
tmultphi:    0.038236 sec (26.146 k allocations: 1.344 MB, 0.0% gc time)
tbrfft:      0.00408 sec (896 allocations: 42.0 KB, 0.0% gc time)
tmultprefac: 0.002756 sec (0 allocations: 0 byte, 0.0% gc time)
toutfunc:    0.140403 sec (94.228 k allocations: 4.459 MB, 0.0% gc time)
Testing R=1.1 ... passed
Calculating fmax: 
  dlrec    = 4
  dlrecRg1 = -4
  q=1.1, R=1.0:	  0.015016 seconds (4.81 k allocations: 3.569 MiB)

  0.015241 seconds (4.87 k allocations: 3.601 MiB)
ℓ = 1202
Δℓ = 4
ΔℓRg1 = -4
N = 1600
q = 1.1
kmin = 1.0e-5
kmax = 100000.00000000004
χ0 = 0.023029999999999995
RR = RR.tsv
ℓmax = ℓmax.bin
f21 = f21.bin
kmin = 1.0e-5
kmax = 100000.0
dlrec    = 4
dlrecRg1 = -4
Output size: 61465536 bytes = 0.05724424123764038 GiB
Output size: 51264 bytes = 4.774332046508789e-5 GiB
Reading 'out/F21EllCache'...   0.001145 seconds (271 allocations: 84.719 KiB)
ellmax: 1202
lmaxcache: 1202
fell[:,1,1] = Complex{Float64}[809.6031528389767 - 1.9829558194077161e-13im, 0.0 + 0.0im]
ell 1202, elapsed: 2.8848648071289062e-5
ell 1201, elapsed: 0.01473093032836914
ell 1200, elapsed: 0.00034880638122558594
ell 1199, elapsed: 0.0003371238708496094
ell 1198, elapsed: 0.00033783912658691406
ell 1197, elapsed: 0.00080108642578125
ell 1196, elapsed: 0.0004220008850097656
ell 1195, elapsed: 0.00046706199645996094
ell 1194, elapsed: 0.00037598609924316406
ell 1193, elapsed: 0.0004711151123046875
ell 1192, elapsed: 0.0003781318664550781
ell 1191, elapsed: 0.000476837158203125
ell 1190, elapsed: 0.0003781318664550781
ell 1189, elapsed: 0.0007710456848144531
ell 1188, elapsed: 0.0003781318664550781
ell 1187, elapsed: 0.0004649162292480469
ell 1186, elapsed: 0.00037097930908203125
ell 1185, elapsed: 0.00045180320739746094
ell 1184, elapsed: 0.00036907196044921875
ell 1183, elapsed: 0.0004589557647705078
ell 1182, elapsed: 0.0004639625549316406
ell 1181, elapsed: 0.0004711151123046875
ell 1180, elapsed: 0.0003638267517089844
ell 1179, elapsed: 0.0004570484161376953
ell 1178, elapsed: 0.00036716461181640625
ell 1177, elapsed: 0.00046181678771972656
ell 1176, elapsed: 0.0003681182861328125
ell 1175, elapsed: 0.0004520416259765625
ell 1174, elapsed: 0.0003650188446044922
ell 1173, elapsed: 0.0005550384521484375
ell 1172, elapsed: 0.0003819465637207031
ell 1171, elapsed: 0.00046515464782714844
ell 1170, elapsed: 0.0003669261932373047
ell 1169, elapsed: 0.0004649162292480469
ell 1168, elapsed: 0.00037097930908203125
ell 1167, elapsed: 0.00046515464782714844
ell 1166, elapsed: 0.00036907196044921875
ell 1165, elapsed: 0.0005519390106201172
ell 1164, elapsed: 0.00037097930908203125
ell 1163, elapsed: 0.0004570484161376953
ell 1162, elapsed: 0.00037097930908203125
ell 1161, elapsed: 0.0004630088806152344
ell 1160, elapsed: 0.0003669261932373047
ell 1159, elapsed: 0.0004630088806152344
ell 1158, elapsed: 0.00036907196044921875
ell 1157, elapsed: 0.0006477832794189453
ell 1156, elapsed: 0.0003521442413330078
ell 1155, elapsed: 0.0004379749298095703
ell 1154, elapsed: 0.000347137451171875
ell 1153, elapsed: 0.00041413307189941406
ell 1152, elapsed: 0.0003478527069091797
ell 1151, elapsed: 0.0004241466522216797
ell 1150, elapsed: 0.00034689903259277344
ell 1149, elapsed: 0.0004241466522216797
ell 1148, elapsed: 0.00035691261291503906
ell 1147, elapsed: 0.0004279613494873047
ell 1146, elapsed: 0.000347137451171875
ell 1145, elapsed: 0.00045609474182128906
ell 1144, elapsed: 0.0003769397735595703
ell 1143, elapsed: 0.0004611015319824219
ell 1142, elapsed: 0.0003750324249267578
ell 1141, elapsed: 0.0004680156707763672
ell 1140, elapsed: 0.0004150867462158203
ell 1139, elapsed: 0.0004661083221435547
ell 1138, elapsed: 0.0003628730773925781
ell 1137, elapsed: 0.0004589557647705078
ell 1136, elapsed: 0.0003719329833984375
ell 1135, elapsed: 0.0004718303680419922
ell 1134, elapsed: 0.00037217140197753906
ell 1133, elapsed: 0.0004639625549316406
ell 1132, elapsed: 0.0004410743713378906
ell 1131, elapsed: 0.0004649162292480469
ell 1130, elapsed: 0.0003750324249267578
ell 1129, elapsed: 0.0004630088806152344
ell 1128, elapsed: 0.00037097930908203125
ell 1127, elapsed: 0.0004658699035644531
ell 1126, elapsed: 0.00037598609924316406
ell 1125, elapsed: 0.0004620552062988281
ell 1124, elapsed: 0.0004627704620361328
ell 1123, elapsed: 0.0004620552062988281
ell 1122, elapsed: 0.0003750324249267578
ell 1121, elapsed: 0.0004661083221435547
ell 1120, elapsed: 0.00037384033203125
ell 1119, elapsed: 0.0004680156707763672
ell 1118, elapsed: 0.00037407875061035156
ell 1117, elapsed: 0.0004661083221435547
ell 1116, elapsed: 0.00039696693420410156
ell 1115, elapsed: 0.00045800209045410156
ell 1114, elapsed: 0.000370025634765625
ell 1113, elapsed: 0.00045490264892578125
ell 1112, elapsed: 0.0003669261932373047
ell 1111, elapsed: 0.0004601478576660156
ell 1110, elapsed: 0.0003762245178222656
ell 1109, elapsed: 0.0004611015319824219
ell 1108, elapsed: 0.00047707557678222656
ell 1107, elapsed: 0.0004642009735107422
ell 1106, elapsed: 0.00037097930908203125
ell 1105, elapsed: 0.0004799365997314453
ell 1104, elapsed: 0.00037598609924316406
ell 1103, elapsed: 0.00047206878662109375
ell 1102, elapsed: 0.00036597251892089844
ell 1101, elapsed: 0.0004630088806152344
ell 1100, elapsed: 0.00038814544677734375
ell 1099, elapsed: 0.0004761219024658203
ell 1098, elapsed: 0.00039386749267578125
ell 1097, elapsed: 0.000492095947265625
ell 1096, elapsed: 0.00039196014404296875
ell 1095, elapsed: 0.0006339550018310547
ell 1094, elapsed: 0.00043392181396484375
ell 1093, elapsed: 0.0004608631134033203
ell 1092, elapsed: 0.0003941059112548828
ell 1091, elapsed: 0.00045800209045410156
ell 1090, elapsed: 0.000370025634765625
ell 1089, elapsed: 0.0004589557647705078
ell 1088, elapsed: 0.00036597251892089844
ell 1087, elapsed: 0.00045800209045410156
ell 1086, elapsed: 0.00037097930908203125
ell 1085, elapsed: 0.00046181678771972656
ell 1084, elapsed: 0.00038695335388183594
ell 1083, elapsed: 0.0004799365997314453
ell 1082, elapsed: 0.0003719329833984375
ell 1081, elapsed: 0.000453948974609375
ell 1080, elapsed: 0.00036597251892089844
ell 1079, elapsed: 0.00045490264892578125
ell 1078, elapsed: 0.0003769397735595703
ell 1077, elapsed: 0.0004589557647705078
ell 1076, elapsed: 0.00036978721618652344
ell 1075, elapsed: 0.00047588348388671875
ell 1074, elapsed: 0.0003788471221923828
ell 1073, elapsed: 0.00046896934509277344
ell 1072, elapsed: 0.0003731250762939453
ell 1071, elapsed: 0.0004589557647705078
ell 1070, elapsed: 0.0003688335418701172
ell 1069, elapsed: 0.00046181678771972656
ell 1068, elapsed: 0.0003719329833984375
ell 1067, elapsed: 0.0004899501800537109
ell 1066, elapsed: 0.00037097930908203125
ell 1065, elapsed: 0.0004611015319824219
ell 1064, elapsed: 0.000370025634765625
ell 1063, elapsed: 0.00047016143798828125
ell 1062, elapsed: 0.0003688335418701172
ell 1061, elapsed: 0.00046706199645996094
ell 1060, elapsed: 0.00036907196044921875
ell 1059, elapsed: 0.00047397613525390625
ell 1058, elapsed: 0.00037097930908203125
ell 1057, elapsed: 0.0004589557647705078
ell 1056, elapsed: 0.00037097930908203125
ell 1055, elapsed: 0.0004589557647705078
ell 1054, elapsed: 0.0003650188446044922
ell 1053, elapsed: 0.00045990943908691406
ell 1052, elapsed: 0.00036907196044921875
ell 1051, elapsed: 0.00045299530029296875
ell 1050, elapsed: 0.00038886070251464844
ell 1049, elapsed: 0.000469207763671875
ell 1048, elapsed: 0.0003769397735595703
ell 1047, elapsed: 0.00047206878662109375
ell 1046, elapsed: 0.00038123130798339844
ell 1045, elapsed: 0.00047707557678222656
ell 1044, elapsed: 0.0003731250762939453
ell 1043, elapsed: 0.0004639625549316406
ell 1042, elapsed: 0.00038695335388183594
ell 1041, elapsed: 0.0004630088806152344
ell 1040, elapsed: 0.0003731250762939453
ell 1039, elapsed: 0.0004589557647705078
ell 1038, elapsed: 0.00037288665771484375
ell 1037, elapsed: 0.0004639625549316406
ell 1036, elapsed: 0.00037288665771484375
ell 1035, elapsed: 0.0004630088806152344
ell 1034, elapsed: 0.00038909912109375
ell 1033, elapsed: 0.0004630088806152344
ell 1032, elapsed: 0.00037217140197753906
ell 1031, elapsed: 0.0004718303680419922
ell 1030, elapsed: 0.0003731250762939453
ell 1029, elapsed: 0.0004639625549316406
ell 1028, elapsed: 0.00036907196044921875
ell 1027, elapsed: 0.00046896934509277344
ell 1026, elapsed: 0.00037407875061035156
ell 1025, elapsed: 0.0004839897155761719
ell 1024, elapsed: 0.0003769397735595703
ell 1023, elapsed: 0.0004761219024658203
ell 1022, elapsed: 0.0003809928894042969
ell 1021, elapsed: 0.0004711151123046875
ell 1020, elapsed: 0.00037479400634765625
ell 1019, elapsed: 0.00046896934509277344
ell 1018, elapsed: 0.0004200935363769531
ell 1017, elapsed: 0.0005009174346923828
ell 1016, elapsed: 0.00038886070251464844
ell 1015, elapsed: 0.0006449222564697266
ell 1014, elapsed: 0.00042510032653808594
ell 1013, elapsed: 0.00047898292541503906
ell 1012, elapsed: 0.00037384033203125
ell 1011, elapsed: 0.00046706199645996094
ell 1010, elapsed: 0.00037598609924316406
ell 1009, elapsed: 0.0004649162292480469
ell 1008, elapsed: 0.0003750324249267578
ell 1007, elapsed: 0.0004608631134033203
ell 1006, elapsed: 0.00037288665771484375
ell 1005, elapsed: 0.0004630088806152344
ell 1004, elapsed: 0.00037384033203125
ell 1003, elapsed: 0.0004620552062988281
ell 1002, elapsed: 0.00038886070251464844
ell 1001, elapsed: 0.00046515464782714844
ell 1000, elapsed: 0.0004858970642089844
ell 999, elapsed: 0.0005929470062255859
ell 998, elapsed: 0.0003769397735595703
ell 997, elapsed: 0.0004630088806152344
ell 996, elapsed: 0.000370025634765625
ell 995, elapsed: 0.0004818439483642578
ell 994, elapsed: 0.00037598609924316406
ell 993, elapsed: 0.0004639625549316406
ell 992, elapsed: 0.0003719329833984375
ell 991, elapsed: 0.0004630088806152344
ell 990, elapsed: 0.0003898143768310547
ell 989, elapsed: 0.0004642009735107422
ell 988, elapsed: 0.00038695335388183594
ell 987, elapsed: 0.0004551410675048828
ell 986, elapsed: 0.0003819465637207031
ell 985, elapsed: 0.0004639625549316406
ell 984, elapsed: 0.0003769397735595703
ell 983, elapsed: 0.0004608631134033203
ell 982, elapsed: 0.000370025634765625
ell 981, elapsed: 0.0004718303680419922
ell 980, elapsed: 0.00037288665771484375
ell 979, elapsed: 0.00046896934509277344
ell 978, elapsed: 0.0003838539123535156
ell 977, elapsed: 0.00045990943908691406
ell 976, elapsed: 0.00038909912109375
ell 975, elapsed: 0.0004711151123046875
ell 974, elapsed: 0.00037598609924316406
ell 973, elapsed: 0.0004749298095703125
ell 972, elapsed: 0.00037789344787597656
ell 971, elapsed: 0.0004677772521972656
ell 970, elapsed: 0.00046181678771972656
ell 969, elapsed: 0.0004639625549316406
ell 968, elapsed: 0.0003790855407714844
ell 967, elapsed: 0.00046515464782714844
ell 966, elapsed: 0.0003750324249267578
ell 965, elapsed: 0.0004570484161376953
ell 964, elapsed: 0.000370025634765625
ell 963, elapsed: 0.0004818439483642578
ell 962, elapsed: 0.0003910064697265625
ell 961, elapsed: 0.0004649162292480469
ell 960, elapsed: 0.0003879070281982422
ell 959, elapsed: 0.0004968643188476562
ell 958, elapsed: 0.0003910064697265625
ell 957, elapsed: 0.00047397613525390625
ell 956, elapsed: 0.0003819465637207031
ell 955, elapsed: 0.0004630088806152344
ell 954, elapsed: 0.00038313865661621094
ell 953, elapsed: 0.0004658699035644531
ell 952, elapsed: 0.0003819465637207031
ell 951, elapsed: 0.00046706199645996094
ell 950, elapsed: 0.00037598609924316406
ell 949, elapsed: 0.0004730224609375
ell 948, elapsed: 0.0003781318664550781
ell 947, elapsed: 0.0004811286926269531
ell 946, elapsed: 0.0003879070281982422
ell 945, elapsed: 0.00045490264892578125
ell 944, elapsed: 0.0003719329833984375
ell 943, elapsed: 0.000453948974609375
ell 942, elapsed: 0.00037598609924316406
ell 941, elapsed: 0.0004761219024658203
ell 940, elapsed: 0.0003809928894042969
ell 939, elapsed: 0.0004630088806152344
ell 938, elapsed: 0.00038695335388183594
ell 937, elapsed: 0.00045680999755859375
ell 936, elapsed: 0.0003800392150878906
ell 935, elapsed: 0.0004649162292480469
ell 934, elapsed: 0.00037097930908203125
ell 933, elapsed: 0.0004558563232421875
ell 932, elapsed: 0.0003800392150878906
ell 931, elapsed: 0.00047206878662109375
ell 930, elapsed: 0.00038695335388183594
ell 929, elapsed: 0.0004799365997314453
ell 928, elapsed: 0.00037097930908203125
ell 927, elapsed: 0.00045990943908691406
ell 926, elapsed: 0.0004949569702148438
ell 925, elapsed: 0.0005788803100585938
ell 924, elapsed: 0.00037407875061035156
ell 923, elapsed: 0.0004699230194091797
ell 922, elapsed: 0.0003941059112548828
ell 921, elapsed: 0.00046515464782714844
ell 920, elapsed: 0.0003750324249267578
ell 919, elapsed: 0.0004699230194091797
ell 918, elapsed: 0.00037598609924316406
ell 917, elapsed: 0.0004630088806152344
ell 916, elapsed: 0.00037598609924316406
ell 915, elapsed: 0.0004730224609375
ell 914, elapsed: 0.0003731250762939453
ell 913, elapsed: 0.0004909038543701172
ell 912, elapsed: 0.00037598609924316406
ell 911, elapsed: 0.00045609474182128906
ell 910, elapsed: 0.00036716461181640625
ell 909, elapsed: 0.0004620552062988281
ell 908, elapsed: 0.00037407875061035156
ell 907, elapsed: 0.00045990943908691406
ell 906, elapsed: 0.0003771781921386719
ell 905, elapsed: 0.0005919933319091797
ell 904, elapsed: 0.0003790855407714844
ell 903, elapsed: 0.00045800209045410156
ell 902, elapsed: 0.0003719329833984375
ell 901, elapsed: 0.00047707557678222656
ell 900, elapsed: 0.000370025634765625
ell 899, elapsed: 0.0004608631134033203
ell 898, elapsed: 0.0003688335418701172
ell 897, elapsed: 0.0005071163177490234
ell 896, elapsed: 0.000370025634765625
ell 895, elapsed: 0.0004799365997314453
ell 894, elapsed: 0.0003731250762939453
ell 893, elapsed: 0.0004642009735107422
ell 892, elapsed: 0.0003819465637207031
ell 891, elapsed: 0.00045609474182128906
ell 890, elapsed: 0.0003848075866699219
ell 889, elapsed: 0.0005052089691162109
ell 888, elapsed: 0.0003750324249267578
ell 887, elapsed: 0.0004620552062988281
ell 886, elapsed: 0.0003750324249267578
ell 885, elapsed: 0.0004630088806152344
ell 884, elapsed: 0.00036787986755371094
ell 883, elapsed: 0.0004611015319824219
ell 882, elapsed: 0.00036907196044921875
ell 881, elapsed: 0.0005030632019042969
ell 880, elapsed: 0.00037598609924316406
ell 879, elapsed: 0.0004558563232421875
ell 878, elapsed: 0.00036787986755371094
ell 877, elapsed: 0.00047278404235839844
ell 876, elapsed: 0.00037097930908203125
ell 875, elapsed: 0.0004589557647705078
ell 874, elapsed: 0.00037407875061035156
ell 873, elapsed: 0.0004711151123046875
ell 872, elapsed: 0.000370025634765625
ell 871, elapsed: 0.00046515464782714844
ell 870, elapsed: 0.0003871917724609375
ell 869, elapsed: 0.00047516822814941406
ell 868, elapsed: 0.0003769397735595703
ell 867, elapsed: 0.0004677772521972656
ell 866, elapsed: 0.0003771781921386719
ell 865, elapsed: 0.0005581378936767578
ell 864, elapsed: 0.0003769397735595703
ell 863, elapsed: 0.0004658699035644531
ell 862, elapsed: 0.00037217140197753906
ell 861, elapsed: 0.0004639625549316406
ell 860, elapsed: 0.00037789344787597656
ell 859, elapsed: 0.0004699230194091797
ell 858, elapsed: 0.0003719329833984375
ell 857, elapsed: 0.0004780292510986328
ell 856, elapsed: 0.00037407875061035156
ell 855, elapsed: 0.0004680156707763672
ell 854, elapsed: 0.0003750324249267578
ell 853, elapsed: 0.0004780292510986328
ell 852, elapsed: 0.00037598609924316406
ell 851, elapsed: 0.00045609474182128906
ell 850, elapsed: 0.0003769397735595703
ell 849, elapsed: 0.00047087669372558594
ell 848, elapsed: 0.0004439353942871094
ell 847, elapsed: 0.0004980564117431641
ell 846, elapsed: 0.0003941059112548828
ell 845, elapsed: 0.0004730224609375
ell 844, elapsed: 0.00039386749267578125
ell 843, elapsed: 0.0005810260772705078
ell 842, elapsed: 0.0003809928894042969
ell 841, elapsed: 0.0004620552062988281
ell 840, elapsed: 0.0003719329833984375
ell 839, elapsed: 0.00045609474182128906
ell 838, elapsed: 0.00037217140197753906
ell 837, elapsed: 0.00045680999755859375
ell 836, elapsed: 0.0003769397735595703
ell 835, elapsed: 0.0005650520324707031
ell 834, elapsed: 0.0003688335418701172
ell 833, elapsed: 0.00045990943908691406
ell 832, elapsed: 0.0003681182861328125
ell 831, elapsed: 0.0004570484161376953
ell 830, elapsed: 0.0003650188446044922
ell 829, elapsed: 0.0004620552062988281
ell 828, elapsed: 0.00037598609924316406
ell 827, elapsed: 0.0005469322204589844
ell 826, elapsed: 0.00036907196044921875
ell 825, elapsed: 0.00045800209045410156
ell 824, elapsed: 0.00037598609924316406
ell 823, elapsed: 0.0004611015319824219
ell 822, elapsed: 0.0003719329833984375
ell 821, elapsed: 0.0004630088806152344
ell 820, elapsed: 0.00037407875061035156
ell 819, elapsed: 0.0005509853363037109
ell 818, elapsed: 0.00037097930908203125
ell 817, elapsed: 0.0004730224609375
ell 816, elapsed: 0.00036716461181640625
ell 815, elapsed: 0.0004608631134033203
ell 814, elapsed: 0.00037407875061035156
ell 813, elapsed: 0.0004570484161376953
ell 812, elapsed: 0.000370025634765625
ell 811, elapsed: 0.0005590915679931641
ell 810, elapsed: 0.0005099773406982422
ell 809, elapsed: 0.0005719661712646484
ell 808, elapsed: 0.0003609657287597656
ell 807, elapsed: 0.0004558563232421875
ell 806, elapsed: 0.00037598609924316406
ell 805, elapsed: 0.00045490264892578125
ell 804, elapsed: 0.00036597251892089844
ell 803, elapsed: 0.0005550384521484375
ell 802, elapsed: 0.0003650188446044922
ell 801, elapsed: 0.0004611015319824219
ell 800, elapsed: 0.00037407875061035156
ell 799, elapsed: 0.00045418739318847656
ell 798, elapsed: 0.00051116943359375
ell 797, elapsed: 0.0005638599395751953
ell 796, elapsed: 0.00036406517028808594
ell 795, elapsed: 0.0005440711975097656
ell 794, elapsed: 0.0004878044128417969
ell 793, elapsed: 0.0005750656127929688
ell 792, elapsed: 0.00039005279541015625
ell 791, elapsed: 0.0004718303680419922
ell 790, elapsed: 0.0003859996795654297
ell 789, elapsed: 0.00047397613525390625
ell 788, elapsed: 0.000392913818359375
ell 787, elapsed: 0.0004718303680419922
ell 786, elapsed: 0.00037598609924316406
ell 785, elapsed: 0.0004680156707763672
ell 784, elapsed: 0.0003840923309326172
ell 783, elapsed: 0.00045990943908691406
ell 782, elapsed: 0.00037598609924316406
ell 781, elapsed: 0.00045800209045410156
ell 780, elapsed: 0.00037407875061035156
ell 779, elapsed: 0.000476837158203125
ell 778, elapsed: 0.00038695335388183594
ell 777, elapsed: 0.00046181678771972656
ell 776, elapsed: 0.0004999637603759766
ell 775, elapsed: 0.0005738735198974609
ell 774, elapsed: 0.0005209445953369141
ell 773, elapsed: 0.0007150173187255859
ell 772, elapsed: 0.0004639625549316406
ell 771, elapsed: 0.000469207763671875
ell 770, elapsed: 0.00036907196044921875
ell 769, elapsed: 0.00047397613525390625
ell 768, elapsed: 0.00037288665771484375
ell 767, elapsed: 0.0006470680236816406
ell 766, elapsed: 0.0004208087921142578
ell 765, elapsed: 0.012649774551391602
ell 764, elapsed: 0.0003941059112548828
ell 763, elapsed: 0.00046181678771972656
ell 762, elapsed: 0.0003898143768310547
ell 761, elapsed: 0.0004620552062988281
ell 760, elapsed: 0.0003879070281982422
ell 759, elapsed: 0.0004601478576660156
ell 758, elapsed: 0.0003800392150878906
ell 757, elapsed: 0.0004830360412597656
ell 756, elapsed: 0.0003781318664550781
ell 755, elapsed: 0.0004718303680419922
ell 754, elapsed: 0.00047707557678222656
ell 753, elapsed: 0.0006029605865478516
ell 752, elapsed: 0.0003819465637207031
ell 751, elapsed: 0.00046896934509277344
ell 750, elapsed: 0.0003781318664550781
ell 749, elapsed: 0.0004611015319824219
ell 748, elapsed: 0.0003829002380371094
ell 747, elapsed: 0.0004570484161376953
ell 746, elapsed: 0.00037598609924316406
ell 745, elapsed: 0.00047516822814941406
ell 744, elapsed: 0.0003769397735595703
ell 743, elapsed: 0.00047206878662109375
ell 742, elapsed: 0.0003781318664550781
ell 741, elapsed: 0.0004911422729492188
ell 740, elapsed: 0.0003769397735595703
ell 739, elapsed: 0.0004601478576660156
ell 738, elapsed: 0.00038504600524902344
ell 737, elapsed: 0.00046896934509277344
ell 736, elapsed: 0.0003790855407714844
ell 735, elapsed: 0.00047016143798828125
ell 734, elapsed: 0.0003790855407714844
ell 733, elapsed: 0.012660026550292969
ell 732, elapsed: 0.0003790855407714844
ell 731, elapsed: 0.0004639625549316406
ell 730, elapsed: 0.0003788471221923828
ell 729, elapsed: 0.00045299530029296875
ell 728, elapsed: 0.0003800392150878906
ell 727, elapsed: 0.0004570484161376953
ell 726, elapsed: 0.0003781318664550781
ell 725, elapsed: 0.0004780292510986328
ell 724, elapsed: 0.0003731250762939453
ell 723, elapsed: 0.0004558563232421875
ell 722, elapsed: 0.00036907196044921875
ell 721, elapsed: 0.0004589557647705078
ell 720, elapsed: 0.00037479400634765625
ell 719, elapsed: 0.0004608631134033203
ell 718, elapsed: 0.00036907196044921875
ell 717, elapsed: 0.0006709098815917969
ell 716, elapsed: 0.00040793418884277344
ell 715, elapsed: 0.00041985511779785156
ell 714, elapsed: 0.00037288665771484375
ell 713, elapsed: 0.00045800209045410156
ell 712, elapsed: 0.0003838539123535156
ell 711, elapsed: 0.0003960132598876953
ell 710, elapsed: 0.00038313865661621094
ell 709, elapsed: 0.000469207763671875
ell 708, elapsed: 0.0003688335418701172
ell 707, elapsed: 0.0004730224609375
ell 706, elapsed: 0.0003108978271484375
ell 705, elapsed: 0.0004668235778808594
ell 704, elapsed: 0.0003790855407714844
ell 703, elapsed: 0.0003960132598876953
ell 702, elapsed: 0.0003788471221923828
ell 701, elapsed: 0.0004420280456542969
ell 700, elapsed: 0.00036716461181640625
ell 699, elapsed: 0.0004620552062988281
ell 698, elapsed: 0.0003769397735595703
ell 697, elapsed: 0.0004630088806152344
ell 696, elapsed: 0.00037789344787597656
ell 695, elapsed: 0.0004248619079589844
ell 694, elapsed: 0.00036907196044921875
ell 693, elapsed: 0.0004520416259765625
ell 692, elapsed: 0.00036787986755371094
ell 691, elapsed: 0.0004558563232421875
ell 690, elapsed: 0.00037097930908203125
ell 689, elapsed: 0.00044918060302734375
ell 688, elapsed: 0.00037598609924316406
ell 687, elapsed: 0.0004730224609375
ell 686, elapsed: 0.0003788471221923828
ell 685, elapsed: 0.00046896934509277344
ell 684, elapsed: 0.0003719329833984375
ell 683, elapsed: 0.0004730224609375
ell 682, elapsed: 0.00034999847412109375
ell 681, elapsed: 0.0004458427429199219
ell 680, elapsed: 0.0003681182861328125
ell 679, elapsed: 0.0004589557647705078
ell 678, elapsed: 0.0003771781921386719
ell 677, elapsed: 0.0004589557647705078
ell 676, elapsed: 0.0003380775451660156
ell 675, elapsed: 0.0005788803100585938
ell 674, elapsed: 0.00047016143798828125
ell 673, elapsed: 0.0004649162292480469
ell 672, elapsed: 0.0003762245178222656
ell 671, elapsed: 0.0004360675811767578
ell 670, elapsed: 0.0003681182861328125
ell 669, elapsed: 0.00044918060302734375
ell 668, elapsed: 0.00037407875061035156
ell 667, elapsed: 0.0004649162292480469
ell 666, elapsed: 0.0003719329833984375
ell 665, elapsed: 0.0004470348358154297
ell 664, elapsed: 0.00036716461181640625
ell 663, elapsed: 0.00045418739318847656
ell 662, elapsed: 0.00036716461181640625
ell 661, elapsed: 0.00044798851013183594
ell 660, elapsed: 0.0003628730773925781
ell 659, elapsed: 0.00047206878662109375
ell 658, elapsed: 0.00044608116149902344
ell 657, elapsed: 0.0004489421844482422
ell 656, elapsed: 0.0003731250762939453
ell 655, elapsed: 0.00045299530029296875
ell 654, elapsed: 0.00037407875061035156
ell 653, elapsed: 0.0004570484161376953
ell 652, elapsed: 0.0003159046173095703
ell 651, elapsed: 0.00045108795166015625
ell 650, elapsed: 0.0003981590270996094
ell 649, elapsed: 0.00045990943908691406
ell 648, elapsed: 0.00036907196044921875
ell 647, elapsed: 0.0004558563232421875
ell 646, elapsed: 0.0003719329833984375
ell 645, elapsed: 0.0004570484161376953
ell 644, elapsed: 0.000370025634765625
ell 643, elapsed: 0.00046515464782714844
ell 642, elapsed: 0.00036907196044921875
ell 641, elapsed: 0.0004749298095703125
ell 640, elapsed: 0.0003731250762939453
ell 639, elapsed: 0.000453948974609375
ell 638, elapsed: 0.00037598609924316406
ell 637, elapsed: 0.00045990943908691406
ell 636, elapsed: 0.0003719329833984375
ell 635, elapsed: 0.00045299530029296875
ell 634, elapsed: 0.00037217140197753906
ell 633, elapsed: 0.00044989585876464844
ell 632, elapsed: 0.00037097930908203125
ell 631, elapsed: 0.0004630088806152344
ell 630, elapsed: 0.0004901885986328125
ell 629, elapsed: 0.0005688667297363281
ell 628, elapsed: 0.00030517578125
ell 627, elapsed: 0.0004658699035644531
ell 626, elapsed: 0.00037288665771484375
ell 625, elapsed: 0.0004799365997314453
ell 624, elapsed: 0.0003731250762939453
ell 623, elapsed: 0.0004048347473144531
ell 622, elapsed: 0.0003769397735595703
ell 621, elapsed: 0.0004761219024658203
ell 620, elapsed: 0.00036907196044921875
ell 619, elapsed: 0.0004520416259765625
ell 618, elapsed: 0.000370025634765625
ell 617, elapsed: 0.00046515464782714844
ell 616, elapsed: 0.00038504600524902344
ell 615, elapsed: 0.0004589557647705078
ell 614, elapsed: 0.00036406517028808594
ell 613, elapsed: 0.0004589557647705078
ell 612, elapsed: 0.00036716461181640625
ell 611, elapsed: 0.0004601478576660156
ell 610, elapsed: 0.0004980564117431641
ell 609, elapsed: 0.0006079673767089844
ell 608, elapsed: 0.0003819465637207031
ell 607, elapsed: 0.00045800209045410156
ell 606, elapsed: 0.00036787986755371094
ell 605, elapsed: 0.0004169940948486328
ell 604, elapsed: 0.0005421638488769531
ell 603, elapsed: 0.0006968975067138672
ell 602, elapsed: 0.0005741119384765625
ell 601, elapsed: 0.0007588863372802734
ell 600, elapsed: 0.0005781650543212891
ell 599, elapsed: 0.0006899833679199219
ell 598, elapsed: 0.00048804283142089844
ell 597, elapsed: 0.0004429817199707031
ell 596, elapsed: 0.00037097930908203125
ell 595, elapsed: 0.00047779083251953125
ell 594, elapsed: 0.0003750324249267578
ell 593, elapsed: 0.0004520416259765625
ell 592, elapsed: 0.0003731250762939453
ell 591, elapsed: 0.0006101131439208984
ell 590, elapsed: 0.00044798851013183594
ell 589, elapsed: 0.00045609474182128906
ell 588, elapsed: 0.0003681182861328125
ell 587, elapsed: 0.0004730224609375
ell 586, elapsed: 0.00036787986755371094
ell 585, elapsed: 0.0004558563232421875
ell 584, elapsed: 0.000370025634765625
ell 583, elapsed: 0.0004680156707763672
ell 582, elapsed: 0.0003790855407714844
ell 581, elapsed: 0.00045800209045410156
ell 580, elapsed: 0.00037097930908203125
ell 579, elapsed: 0.0007169246673583984
ell 578, elapsed: 0.0005970001220703125
ell 577, elapsed: 0.0005519390106201172
ell 576, elapsed: 0.00036907196044921875
ell 575, elapsed: 0.0004611015319824219
ell 574, elapsed: 0.0003771781921386719
ell 573, elapsed: 0.00046896934509277344
ell 572, elapsed: 0.00039505958557128906
ell 571, elapsed: 0.0004639625549316406
ell 570, elapsed: 0.00037217140197753906
ell 569, elapsed: 0.00045990943908691406
ell 568, elapsed: 0.0003750324249267578
ell 567, elapsed: 0.0004608631134033203
ell 566, elapsed: 0.0003719329833984375
ell 565, elapsed: 0.0004611015319824219
ell 564, elapsed: 0.0003790855407714844
ell 563, elapsed: 0.0004761219024658203
ell 562, elapsed: 0.0003409385681152344
ell 561, elapsed: 0.000408172607421875
ell 560, elapsed: 0.0005059242248535156
ell 559, elapsed: 0.0005719661712646484
ell 558, elapsed: 0.0003769397735595703
ell 557, elapsed: 0.0004100799560546875
ell 556, elapsed: 0.00037288665771484375
ell 555, elapsed: 0.00047779083251953125
ell 554, elapsed: 0.00036787986755371094
ell 553, elapsed: 0.0004649162292480469
ell 552, elapsed: 0.00037598609924316406
ell 551, elapsed: 0.0006411075592041016
ell 550, elapsed: 0.0004220008850097656
ell 549, elapsed: 0.0004649162292480469
ell 548, elapsed: 0.0003669261932373047
ell 547, elapsed: 0.00047087669372558594
ell 546, elapsed: 0.0003790855407714844
ell 545, elapsed: 0.000453948974609375
ell 544, elapsed: 0.00036406517028808594
ell 543, elapsed: 0.0004589557647705078
ell 542, elapsed: 0.0003361701965332031
ell 541, elapsed: 0.0005829334259033203
ell 540, elapsed: 0.0004949569702148438
ell 539, elapsed: 0.0004801750183105469
ell 538, elapsed: 0.0003771781921386719
ell 537, elapsed: 0.0005807876586914062
ell 536, elapsed: 0.0004591941833496094
ell 535, elapsed: 0.0004508495330810547
ell 534, elapsed: 0.00037097930908203125
ell 533, elapsed: 0.0004570484161376953
ell 532, elapsed: 0.00037288665771484375
ell 531, elapsed: 0.0003180503845214844
ell 530, elapsed: 0.0002429485321044922
ell 529, elapsed: 0.0003039836883544922
ell 528, elapsed: 0.00024700164794921875
ell 527, elapsed: 0.00030303001403808594
ell 526, elapsed: 0.0002410411834716797
ell 525, elapsed: 0.0002968311309814453
ell 524, elapsed: 0.00024199485778808594
ell 523, elapsed: 0.0003120899200439453
ell 522, elapsed: 0.00025010108947753906
ell 521, elapsed: 0.0003237724304199219
ell 520, elapsed: 0.00024890899658203125
ell 519, elapsed: 0.0005991458892822266
ell 518, elapsed: 0.0003879070281982422
ell 517, elapsed: 0.0003829002380371094
ell 516, elapsed: 0.0003809928894042969
ell 515, elapsed: 0.00045180320739746094
ell 514, elapsed: 0.00042891502380371094
ell 513, elapsed: 0.0006949901580810547
ell 512, elapsed: 0.0005409717559814453
ell 511, elapsed: 0.00044989585876464844
ell 510, elapsed: 0.00037097930908203125
ell 509, elapsed: 0.00045108795166015625
ell 508, elapsed: 0.0003650188446044922
ell 507, elapsed: 0.000453948974609375
ell 506, elapsed: 0.00037097930908203125
ell 505, elapsed: 0.0005481243133544922
ell 504, elapsed: 0.007169008255004883
ell 503, elapsed: 0.0006501674652099609
ell 502, elapsed: 0.00041413307189941406
ell 501, elapsed: 0.00045490264892578125
ell 500, elapsed: 0.0003871917724609375
ell 499, elapsed: 0.0006670951843261719
ell 498, elapsed: 0.00034999847412109375
ell 497, elapsed: 0.0005688667297363281
ell 496, elapsed: 0.0004990100860595703
ell 495, elapsed: 0.0006580352783203125
ell 494, elapsed: 0.00040912628173828125
ell 493, elapsed: 0.0006308555603027344
ell 492, elapsed: 0.0003800392150878906
ell 491, elapsed: 0.0004169940948486328
ell 490, elapsed: 0.00038886070251464844
ell 489, elapsed: 0.00043702125549316406
ell 488, elapsed: 0.0005428791046142578
ell 487, elapsed: 0.0005550384521484375
ell 486, elapsed: 0.0003848075866699219
ell 485, elapsed: 0.00045800209045410156
ell 484, elapsed: 0.0003800392150878906
ell 483, elapsed: 0.0004799365997314453
ell 482, elapsed: 0.0003180503845214844
ell 481, elapsed: 0.0004661083221435547
ell 480, elapsed: 0.0003790855407714844
ell 479, elapsed: 0.0004780292510986328
ell 478, elapsed: 0.00039005279541015625
ell 477, elapsed: 0.0006730556488037109
ell 476, elapsed: 0.0005309581756591797
ell 475, elapsed: 0.0005781650543212891
ell 474, elapsed: 0.00038909912109375
ell 473, elapsed: 0.0006661415100097656
ell 472, elapsed: 0.00041294097900390625
ell 471, elapsed: 0.0005960464477539062
ell 470, elapsed: 0.0004591941833496094
ell 469, elapsed: 0.0004699230194091797
ell 468, elapsed: 0.0003859996795654297
ell 467, elapsed: 0.0004680156707763672
ell 466, elapsed: 0.0004899501800537109
ell 465, elapsed: 0.0005958080291748047
ell 464, elapsed: 0.00039005279541015625
ell 463, elapsed: 0.0004620552062988281
ell 462, elapsed: 0.0003800392150878906
ell 461, elapsed: 0.0004630088806152344
ell 460, elapsed: 0.0003840923309326172
ell 459, elapsed: 0.00045990943908691406
ell 458, elapsed: 0.0003829002380371094
ell 457, elapsed: 0.0004889965057373047
ell 456, elapsed: 0.00037217140197753906
ell 455, elapsed: 0.000453948974609375
ell 454, elapsed: 0.0005328655242919922
ell 453, elapsed: 0.0005388259887695312
ell 452, elapsed: 0.00038886070251464844
ell 451, elapsed: 0.00046706199645996094
ell 450, elapsed: 0.0003540515899658203
ell 449, elapsed: 0.0004668235778808594
ell 448, elapsed: 0.0003800392150878906
ell 447, elapsed: 0.0004601478576660156
ell 446, elapsed: 0.0003731250762939453
ell 445, elapsed: 0.0004401206970214844
ell 444, elapsed: 0.00037097930908203125
ell 443, elapsed: 0.000453948974609375
ell 442, elapsed: 0.0003771781921386719
ell 441, elapsed: 0.0004830360412597656
ell 440, elapsed: 0.00037598609924316406
ell 439, elapsed: 0.0006260871887207031
ell 438, elapsed: 0.0004429817199707031
ell 437, elapsed: 0.00046706199645996094
ell 436, elapsed: 0.00037598609924316406
ell 435, elapsed: 0.0005719661712646484
ell 434, elapsed: 0.0006148815155029297
ell 433, elapsed: 0.0005230903625488281
ell 432, elapsed: 0.00038313865661621094
ell 431, elapsed: 0.0004611015319824219
ell 430, elapsed: 0.0003800392150878906
ell 429, elapsed: 0.0004668235778808594
ell 428, elapsed: 0.0005259513854980469
ell 427, elapsed: 0.0005831718444824219
ell 426, elapsed: 0.00038695335388183594
ell 425, elapsed: 0.0004730224609375
ell 424, elapsed: 0.00037789344787597656
ell 423, elapsed: 0.0004620552062988281
ell 422, elapsed: 0.00037598609924316406
ell 421, elapsed: 0.0004642009735107422
ell 420, elapsed: 0.0003788471221923828
ell 419, elapsed: 0.0004749298095703125
ell 418, elapsed: 0.0003840923309326172
ell 417, elapsed: 0.0004661083221435547
ell 416, elapsed: 0.0003840923309326172
ell 415, elapsed: 0.0004608631134033203
ell 414, elapsed: 0.00038313865661621094
ell 413, elapsed: 0.0004620552062988281
ell 412, elapsed: 0.0003750324249267578
ell 411, elapsed: 0.00046515464782714844
ell 410, elapsed: 0.0003800392150878906
ell 409, elapsed: 0.0004699230194091797
ell 408, elapsed: 0.00038504600524902344
ell 407, elapsed: 0.0004630088806152344
ell 406, elapsed: 0.00037789344787597656
ell 405, elapsed: 0.0004570484161376953
ell 404, elapsed: 0.00037789344787597656
ell 403, elapsed: 0.0004649162292480469
ell 402, elapsed: 0.00039696693420410156
ell 401, elapsed: 0.0004639625549316406
ell 400, elapsed: 0.00037384033203125
ell 399, elapsed: 0.0005388259887695312
ell 398, elapsed: 0.0005080699920654297
ell 397, elapsed: 0.00046181678771972656
ell 396, elapsed: 0.0003609657287597656
ell 395, elapsed: 0.00047397613525390625
ell 394, elapsed: 0.0003910064697265625
ell 393, elapsed: 0.0005831718444824219
ell 392, elapsed: 0.00047588348388671875
ell 391, elapsed: 0.0004630088806152344
ell 390, elapsed: 0.0003380775451660156
ell 389, elapsed: 0.0004589557647705078
ell 388, elapsed: 0.0005190372467041016
ell 387, elapsed: 0.0005669593811035156
ell 386, elapsed: 0.0003800392150878906
ell 385, elapsed: 0.000576019287109375
ell 384, elapsed: 0.0005891323089599609
ell 383, elapsed: 0.0005509853363037109
ell 382, elapsed: 0.0003299713134765625
ell 381, elapsed: 0.0006058216094970703
ell 380, elapsed: 0.00046896934509277344
ell 379, elapsed: 0.00043892860412597656
ell 378, elapsed: 0.00036907196044921875
ell 377, elapsed: 0.00045108795166015625
ell 376, elapsed: 0.00037217140197753906
ell 375, elapsed: 0.0006282329559326172
ell 374, elapsed: 0.0004189014434814453
ell 373, elapsed: 0.0004780292510986328
ell 372, elapsed: 0.0003879070281982422
ell 371, elapsed: 0.00045680999755859375
ell 370, elapsed: 0.00037789344787597656
ell 369, elapsed: 0.0004467964172363281
ell 368, elapsed: 0.00036907196044921875
ell 367, elapsed: 0.0004551410675048828
ell 366, elapsed: 0.0003769397735595703
ell 365, elapsed: 0.0004520416259765625
ell 364, elapsed: 0.00039005279541015625
ell 363, elapsed: 0.0006299018859863281
ell 362, elapsed: 0.00043487548828125
ell 361, elapsed: 0.0006687641143798828
ell 360, elapsed: 0.000392913818359375
ell 359, elapsed: 0.0004677772521972656
ell 358, elapsed: 0.0004911422729492188
ell 357, elapsed: 0.0006079673767089844
ell 356, elapsed: 0.0003809928894042969
ell 355, elapsed: 0.0003991127014160156
ell 354, elapsed: 0.0003838539123535156
ell 353, elapsed: 0.0006418228149414062
ell 352, elapsed: 0.00042891502380371094
ell 351, elapsed: 0.00046896934509277344
ell 350, elapsed: 0.0003838539123535156
ell 349, elapsed: 0.0004360675811767578
ell 348, elapsed: 0.0003838539123535156
ell 347, elapsed: 0.00047206878662109375
ell 346, elapsed: 0.0003631114959716797
ell 345, elapsed: 0.00046706199645996094
ell 344, elapsed: 0.0003781318664550781
ell 343, elapsed: 0.0004680156707763672
ell 342, elapsed: 0.0003790855407714844
ell 341, elapsed: 0.0005528926849365234
ell 340, elapsed: 0.0003809928894042969
ell 339, elapsed: 0.00044989585876464844
ell 338, elapsed: 0.0004699230194091797
ell 337, elapsed: 0.0006029605865478516
ell 336, elapsed: 0.0003669261932373047
ell 335, elapsed: 0.0004799365997314453
ell 334, elapsed: 0.00046181678771972656
ell 333, elapsed: 0.0004699230194091797
ell 332, elapsed: 0.0003838539123535156
ell 331, elapsed: 0.00046181678771972656
ell 330, elapsed: 0.00038313865661621094
ell 329, elapsed: 0.0006060600280761719
ell 328, elapsed: 0.00045299530029296875
ell 327, elapsed: 0.0004680156707763672
ell 326, elapsed: 0.0004601478576660156
ell 325, elapsed: 0.000476837158203125
ell 324, elapsed: 0.0005421638488769531
ell 323, elapsed: 0.0005528926849365234
ell 322, elapsed: 0.0003859996795654297
ell 321, elapsed: 0.0006690025329589844
ell 320, elapsed: 0.0004019737243652344
ell 319, elapsed: 0.0006611347198486328
ell 318, elapsed: 0.000476837158203125
ell 317, elapsed: 0.00047206878662109375
ell 316, elapsed: 0.0004642009735107422
ell 315, elapsed: 0.0006170272827148438
ell 314, elapsed: 0.0003859996795654297
ell 313, elapsed: 0.00045490264892578125
ell 312, elapsed: 0.0005719661712646484
ell 311, elapsed: 0.0006060600280761719
ell 310, elapsed: 0.0003571510314941406
ell 309, elapsed: 0.0004661083221435547
ell 308, elapsed: 0.0003838539123535156
ell 307, elapsed: 0.00043201446533203125
ell 306, elapsed: 0.0003829002380371094
ell 305, elapsed: 0.0015408992767333984
ell 304, elapsed: 0.0003788471221923828
ell 303, elapsed: 0.0004889965057373047
ell 302, elapsed: 0.00038886070251464844
ell 301, elapsed: 0.0004730224609375
ell 300, elapsed: 0.00039196014404296875
ell 299, elapsed: 0.0004818439483642578
ell 298, elapsed: 0.0003788471221923828
ell 297, elapsed: 0.0004730224609375
ell 296, elapsed: 0.0003650188446044922
ell 295, elapsed: 0.00047016143798828125
ell 294, elapsed: 0.0003819465637207031
ell 293, elapsed: 0.0006189346313476562
ell 292, elapsed: 0.0004467964172363281
ell 291, elapsed: 0.000614166259765625
ell 290, elapsed: 0.00048613548278808594
ell 289, elapsed: 0.0006010532379150391
ell 288, elapsed: 0.0003571510314941406
ell 287, elapsed: 0.0004730224609375
ell 286, elapsed: 0.0003840923309326172
ell 285, elapsed: 0.0004508495330810547
ell 284, elapsed: 0.0003840923309326172
ell 283, elapsed: 0.00047087669372558594
ell 282, elapsed: 0.0003561973571777344
ell 281, elapsed: 0.0004839897155761719
ell 280, elapsed: 0.0003800392150878906
ell 279, elapsed: 0.0004620552062988281
ell 278, elapsed: 0.00038504600524902344
ell 277, elapsed: 0.00043702125549316406
ell 276, elapsed: 0.0003800392150878906
ell 275, elapsed: 0.0007529258728027344
ell 274, elapsed: 0.0004050731658935547
ell 273, elapsed: 0.0004611015319824219
ell 272, elapsed: 0.0004878044128417969
ell 271, elapsed: 0.0005750656127929688
ell 270, elapsed: 0.0003800392150878906
ell 269, elapsed: 0.0007269382476806641
ell 268, elapsed: 0.0004100799560546875
ell 267, elapsed: 0.00046706199645996094
ell 266, elapsed: 0.00038695335388183594
ell 265, elapsed: 0.00045800209045410156
ell 264, elapsed: 0.00038695335388183594
ell 263, elapsed: 0.0006330013275146484
ell 262, elapsed: 0.0004200935363769531
ell 261, elapsed: 0.0004820823669433594
ell 260, elapsed: 0.00037789344787597656
ell 259, elapsed: 0.0005860328674316406
ell 258, elapsed: 0.0004971027374267578
ell 257, elapsed: 0.00045299530029296875
ell 256, elapsed: 0.00037097930908203125
ell 255, elapsed: 0.0004589557647705078
ell 254, elapsed: 0.0003750324249267578
ell 253, elapsed: 0.0004680156707763672
ell 252, elapsed: 0.00037789344787597656
ell 251, elapsed: 0.00043082237243652344
ell 250, elapsed: 0.0003771781921386719
ell 249, elapsed: 0.0004668235778808594
ell 248, elapsed: 0.0004999637603759766
ell 247, elapsed: 0.0007109642028808594
ell 246, elapsed: 0.0005218982696533203
ell 245, elapsed: 0.0007009506225585938
ell 244, elapsed: 0.00047397613525390625
ell 243, elapsed: 0.0004680156707763672
ell 242, elapsed: 0.0003829002380371094
ell 241, elapsed: 0.00043487548828125
ell 240, elapsed: 0.0003859996795654297
ell 239, elapsed: 0.00047206878662109375
ell 238, elapsed: 0.0003800392150878906
ell 237, elapsed: 0.00045013427734375
ell 236, elapsed: 0.0003731250762939453
ell 235, elapsed: 0.0004558563232421875
ell 234, elapsed: 0.000370025634765625
ell 233, elapsed: 0.0006451606750488281
ell 232, elapsed: 0.0004169940948486328
ell 231, elapsed: 0.00047087669372558594
ell 230, elapsed: 0.00037789344787597656
ell 229, elapsed: 0.00047588348388671875
ell 228, elapsed: 0.0003750324249267578
ell 227, elapsed: 0.00045609474182128906
ell 226, elapsed: 0.0003790855407714844
ell 225, elapsed: 0.0004611015319824219
ell 224, elapsed: 0.0005021095275878906
ell 223, elapsed: 0.0007300376892089844
ell 222, elapsed: 0.0003981590270996094
ell 221, elapsed: 0.00045299530029296875
ell 220, elapsed: 0.00036597251892089844
ell 219, elapsed: 0.00047206878662109375
ell 218, elapsed: 0.0003399848937988281
ell 217, elapsed: 0.0004718303680419922
ell 216, elapsed: 0.00038695335388183594
ell 215, elapsed: 0.0006229877471923828
ell 214, elapsed: 0.00044798851013183594
ell 213, elapsed: 0.00043201446533203125
ell 212, elapsed: 0.00036597251892089844
ell 211, elapsed: 0.0004699230194091797
ell 210, elapsed: 0.0003349781036376953
ell 209, elapsed: 0.00046896934509277344
ell 208, elapsed: 0.00033783912658691406
ell 207, elapsed: 0.00047898292541503906
ell 206, elapsed: 0.00038909912109375
ell 205, elapsed: 0.0006220340728759766
ell 204, elapsed: 0.0005681514739990234
ell 203, elapsed: 0.0005898475646972656
ell 202, elapsed: 0.00038504600524902344
ell 201, elapsed: 0.00047397613525390625
ell 200, elapsed: 0.0003859996795654297
ell 199, elapsed: 0.0005850791931152344
ell 198, elapsed: 0.00051116943359375
ell 197, elapsed: 0.0004668235778808594
ell 196, elapsed: 0.00038504600524902344
ell 195, elapsed: 0.0004649162292480469
ell 194, elapsed: 0.0003829002380371094
ell 193, elapsed: 0.0004849433898925781
ell 192, elapsed: 0.00038504600524902344
ell 191, elapsed: 0.0004680156707763672
ell 190, elapsed: 0.00038504600524902344
ell 189, elapsed: 0.0004570484161376953
ell 188, elapsed: 0.00037407875061035156
ell 187, elapsed: 0.00043511390686035156
ell 186, elapsed: 0.0003731250762939453
ell 185, elapsed: 0.0006558895111083984
ell 184, elapsed: 0.00039696693420410156
ell 183, elapsed: 0.0004589557647705078
ell 182, elapsed: 0.00037598609924316406
ell 181, elapsed: 0.00045180320739746094
ell 180, elapsed: 0.00036716461181640625
ell 179, elapsed: 0.0004639625549316406
ell 178, elapsed: 0.0003712177276611328
ell 177, elapsed: 0.0006058216094970703
ell 176, elapsed: 0.00045490264892578125
ell 175, elapsed: 0.0006589889526367188
ell 174, elapsed: 0.00039386749267578125
ell 173, elapsed: 0.0004467964172363281
ell 172, elapsed: 0.00037598609924316406
ell 171, elapsed: 0.00045108795166015625
ell 170, elapsed: 0.0005478858947753906
ell 169, elapsed: 0.0005118846893310547
ell 168, elapsed: 0.00037598609924316406
ell 167, elapsed: 0.00045299530029296875
ell 166, elapsed: 0.0003771781921386719
ell 165, elapsed: 0.000453948974609375
ell 164, elapsed: 0.0003731250762939453
ell 163, elapsed: 0.000453948974609375
ell 162, elapsed: 0.0004799365997314453
ell 161, elapsed: 0.0005800724029541016
ell 160, elapsed: 0.0004761219024658203
ell 159, elapsed: 0.00057220458984375
ell 158, elapsed: 0.0004608631134033203
ell 157, elapsed: 0.0006899833679199219
ell 156, elapsed: 0.00042891502380371094
ell 155, elapsed: 0.00047397613525390625
ell 154, elapsed: 0.0003809928894042969
ell 153, elapsed: 0.0005869865417480469
ell 152, elapsed: 0.0004730224609375
ell 151, elapsed: 0.00047087669372558594
ell 150, elapsed: 0.0004589557647705078
ell 149, elapsed: 0.0006229877471923828
ell 148, elapsed: 0.000392913818359375
ell 147, elapsed: 0.00046896934509277344
ell 146, elapsed: 0.0005340576171875
ell 145, elapsed: 0.0005350112915039062
ell 144, elapsed: 0.0004971027374267578
ell 143, elapsed: 0.0005719661712646484
ell 142, elapsed: 0.0003800392150878906
ell 141, elapsed: 0.00047516822814941406
ell 140, elapsed: 0.0005478858947753906
ell 139, elapsed: 0.0005240440368652344
ell 138, elapsed: 0.0003800392150878906
ell 137, elapsed: 0.0004730224609375
ell 136, elapsed: 0.00038313865661621094
ell 135, elapsed: 0.00047397613525390625
ell 134, elapsed: 0.00037407875061035156
ell 133, elapsed: 0.0003998279571533203
ell 132, elapsed: 0.0003719329833984375
ell 131, elapsed: 0.0004711151123046875
ell 130, elapsed: 0.00037407875061035156
ell 129, elapsed: 0.0004639625549316406
ell 128, elapsed: 0.0003249645233154297
ell 127, elapsed: 0.00044989585876464844
ell 126, elapsed: 0.0003781318664550781
ell 125, elapsed: 0.0004649162292480469
ell 124, elapsed: 0.00036597251892089844
ell 123, elapsed: 0.00046515464782714844
ell 122, elapsed: 0.00038123130798339844
ell 121, elapsed: 0.0006470680236816406
ell 120, elapsed: 0.001123189926147461
ell 119, elapsed: 0.0005469322204589844
ell 118, elapsed: 0.000370025634765625
ell 117, elapsed: 0.00044608116149902344
ell 116, elapsed: 0.00037407875061035156
ell 115, elapsed: 0.0004730224609375
ell 114, elapsed: 0.0003809928894042969
ell 113, elapsed: 0.0006058216094970703
ell 112, elapsed: 0.0004649162292480469
ell 111, elapsed: 0.0004639625549316406
ell 110, elapsed: 0.0003910064697265625
ell 109, elapsed: 0.0004558563232421875
ell 108, elapsed: 0.0003800392150878906
ell 107, elapsed: 0.00047206878662109375
ell 106, elapsed: 0.0003800392150878906
ell 105, elapsed: 0.00047588348388671875
ell 104, elapsed: 0.00038909912109375
ell 103, elapsed: 0.0004711151123046875
ell 102, elapsed: 0.0003829002380371094
ell 101, elapsed: 0.00045490264892578125
ell 100, elapsed: 0.0003979206085205078
ell 99, elapsed: 0.00047898292541503906
ell 98, elapsed: 0.0003960132598876953
ell 97, elapsed: 0.0004761219024658203
ell 96, elapsed: 0.00039005279541015625
ell 95, elapsed: 0.0004649162292480469
ell 94, elapsed: 0.00038695335388183594
ell 93, elapsed: 0.00045490264892578125
ell 92, elapsed: 0.0003771781921386719
ell 91, elapsed: 0.00046515464782714844
ell 90, elapsed: 0.00037789344787597656
ell 89, elapsed: 0.0004589557647705078
ell 88, elapsed: 0.00036406517028808594
ell 87, elapsed: 0.00044417381286621094
ell 86, elapsed: 0.00038504600524902344
ell 85, elapsed: 0.0004420280456542969
ell 84, elapsed: 0.0003731250762939453
ell 83, elapsed: 0.0004467964172363281
ell 82, elapsed: 0.000370025634765625
ell 81, elapsed: 0.0004639625549316406
ell 80, elapsed: 0.0003170967102050781
ell 79, elapsed: 0.00047397613525390625
ell 78, elapsed: 0.0003941059112548828
ell 77, elapsed: 0.0004658699035644531
ell 76, elapsed: 0.0003800392150878906
ell 75, elapsed: 0.0005848407745361328
ell 74, elapsed: 0.0004811286926269531
ell 73, elapsed: 0.0005710124969482422
ell 72, elapsed: 0.0004799365997314453
ell 71, elapsed: 0.0006170272827148438
ell 70, elapsed: 0.00038504600524902344
ell 69, elapsed: 0.0004680156707763672
ell 68, elapsed: 0.0003829002380371094
ell 67, elapsed: 0.0006299018859863281
ell 66, elapsed: 0.0004279613494873047
ell 65, elapsed: 0.00046706199645996094
ell 64, elapsed: 0.0003910064697265625
ell 63, elapsed: 0.0007069110870361328
ell 62, elapsed: 0.00026607513427734375
ell 61, elapsed: 0.0003070831298828125
ell 60, elapsed: 0.0002448558807373047
ell 59, elapsed: 0.0002961158752441406
ell 58, elapsed: 0.0002448558807373047
ell 57, elapsed: 0.0003001689910888672
ell 56, elapsed: 0.0002429485321044922
ell 55, elapsed: 0.00030493736267089844
ell 54, elapsed: 0.0002448558807373047
ell 53, elapsed: 0.0003101825714111328
ell 52, elapsed: 0.0004019737243652344
ell 51, elapsed: 0.0004780292510986328
ell 50, elapsed: 0.00041294097900390625
ell 49, elapsed: 0.00035500526428222656
ell 48, elapsed: 0.00026607513427734375
ell 47, elapsed: 0.00033593177795410156
ell 46, elapsed: 0.00026607513427734375
ell 45, elapsed: 0.00034308433532714844
ell 44, elapsed: 0.0002620220184326172
ell 43, elapsed: 0.0003299713134765625
ell 42, elapsed: 0.00028395652770996094
ell 41, elapsed: 0.0006601810455322266
ell 40, elapsed: 0.00036907196044921875
ell 39, elapsed: 0.00030303001403808594
ell 38, elapsed: 0.00025010108947753906
ell 37, elapsed: 0.0003020763397216797
ell 36, elapsed: 0.00025200843811035156
ell 35, elapsed: 0.0003070831298828125
ell 34, elapsed: 0.0004000663757324219
ell 33, elapsed: 0.0033669471740722656
ell 32, elapsed: 0.00027298927307128906
ell 31, elapsed: 0.0003349781036376953
ell 30, elapsed: 0.0002918243408203125
ell 29, elapsed: 0.0003299713134765625
ell 28, elapsed: 0.0002498626708984375
ell 27, elapsed: 0.0005521774291992188
ell 26, elapsed: 0.0003490447998046875
ell 25, elapsed: 0.0003170967102050781
ell 24, elapsed: 0.0002491474151611328
ell 23, elapsed: 0.0003120899200439453
ell 22, elapsed: 0.00025081634521484375
ell 21, elapsed: 0.0003151893615722656
ell 20, elapsed: 0.0003108978271484375
ell 19, elapsed: 0.00030994415283203125
ell 18, elapsed: 0.0002529621124267578
ell 17, elapsed: 0.0003139972686767578
ell 16, elapsed: 0.00024890899658203125
ell 15, elapsed: 0.0003180503845214844
ell 14, elapsed: 0.00024890899658203125
ell 13, elapsed: 0.00033593177795410156
ell 12, elapsed: 0.0002589225769042969
ell 11, elapsed: 0.00032210350036621094
ell 10, elapsed: 0.00025582313537597656
ell 9, elapsed: 0.0003218650817871094
ell 8, elapsed: 0.00026988983154296875
ell 7, elapsed: 0.00032806396484375
ell 6, elapsed: 0.0002589225769042969
ell 5, elapsed: 0.0003228187561035156
ell 4, elapsed: 0.0002579689025878906
ell 3, elapsed: 0.00033092498779296875
ell 2, elapsed: 0.00026297569274902344
ell 1, elapsed: 0.00032806396484375
ell 0, elapsed: 0.00026297569274902344
  0.655962 seconds (57.01 k allocations: 2.784 MiB)
elapsed: 0.0004780292510986328
step:          0.067114 sec (0 allocations: 0 byte, 0.0% gc time)
swapping:      0.000815 sec (0 allocations: 0 byte, 0.0% gc time)
calc_Mellell!: 0.008766 sec (0 allocations: 0 byte, 0.0% gc time)
  t0 :  0.002514 sec (0 allocations: 0 byte, 0.0% gc time)
  tm2 : 0.087066 sec (0 allocations: 0 byte, 0.0% gc time)
  tm2s: 0.001939 sec (0 allocations: 0 byte, 0.0% gc time)
  tm4 : 0.257053 sec (0 allocations: 0 byte, 0.0% gc time)
  tp2 : 0.0 sec (0 allocations: 0 byte, 0.0% gc time)
  tp2s: 0.0 sec (0 allocations: 0 byte, 0.0% gc time)
  tp4 : 0.0 sec (0 allocations: 0 byte, 0.0% gc time)
calc_wtdll!:   0.367377 sec (9.879 k allocations: 1.044 MB, 0.0% gc time)
calc_wljj!:    0.039504 sec (689 allocations: 10.766 KB, 0.0% gc time)
mult_prefac!:  0.0 sec (0 allocations: 0 byte, 0.0% gc time)
convert:       0.0 sec (0 allocations: 0 byte, 0.0% gc time)
write:         0.060134 sec (0 allocations: 0 byte, 0.0% gc time)
test_rand_2f1: 0.0 sec (0 allocations: 0 byte, 0.0% gc time)
Closing outfile out/Ml21-cache.bin...   0.022589 seconds
  0.000552 seconds (52 allocations: 28.297 KiB)
make_phi():   0.003106 seconds (8.20 k allocations: 238.016 KiB)
  0.184760 seconds (146.69 k allocations: 3.629 MiB, 3.69% gc time)
tskip:       0.000897 sec (0 allocations: 0 byte, 0.0% gc time)
tread:       0.02743 sec (20 allocations: 10.703 KB, 0.0% gc time)
tmultphi:    0.012994 sec (0 allocations: 0 byte, 0.0% gc time)
tbrfft:      0.053409 sec (9.592 k allocations: 449.625 KB, 0.0% gc time)
tmultprefac: 0.030202 sec (0 allocations: 0 byte, 0.0% gc time)
toutfunc:    0.057856 sec (129.905 k allocations: 2.421 MB, 11.78% gc time)
Testing R=1.0 ... passed
Calculating fmax: 
  dlrec    = 4
  dlrecRg1 = -4
  q=1.1, R=0.9:	  0.747479 seconds (149.41 k allocations: 69.863 MiB, 3.43% gc time)

  0.747742 seconds (149.47 k allocations: 69.895 MiB, 3.43% gc time)
ℓ = 1202
Δℓ = 4
ΔℓRg1 = -4
N = 1600
q = 1.1
kmin = 1.0e-5
kmax = 100000.00000000004
χ0 = 0.023029999999999995
RR = RR.tsv
ℓmax = ℓmax.bin
f21 = f21.bin
kmin = 1.0e-5
kmax = 100000.0
dlrec    = 4
dlrecRg1 = -4
Output size: 5741568 bytes = 0.005347251892089844 GiB
Output size: 51264 bytes = 4.774332046508789e-5 GiB
Reading 'out/F21EllCache'...   0.001354 seconds (271 allocations: 84.719 KiB)
ellmax: 1202
lmaxcache: 1202
fell[:,1,1] = Complex{Float64}[1.3482014726274674e-57 - 3.302141236118086e-73im, 1.357860004724329e-57 - 3.3257978169518355e-73im]
ell 1202, elapsed: 2.5033950805664062e-5
ell 1201, elapsed: 0.0004200935363769531
ell 1200, elapsed: 0.0003848075866699219
ell 1199, elapsed: 0.0003771781921386719
ell 1198, elapsed: 0.0005090236663818359
ell 1002, elapsed: 0.010295867919921875
ell 1001, elapsed: 0.0004420280456542969
ell 1000, elapsed: 0.0005290508270263672
ell 999, elapsed: 0.0004968643188476562
ell 998, elapsed: 0.00034689903259277344
ell 902, elapsed: 0.005379915237426758
ell 901, elapsed: 0.0003628730773925781
ell 900, elapsed: 0.00034308433532714844
ell 899, elapsed: 0.0003418922424316406
ell 898, elapsed: 0.00047397613525390625
ell 802, elapsed: 0.005394935607910156
ell 801, elapsed: 0.0005807876586914062
ell 800, elapsed: 0.0004169940948486328
ell 799, elapsed: 0.00033402442932128906
ell 798, elapsed: 0.0004630088806152344
ell 702, elapsed: 0.005691051483154297
ell 701, elapsed: 0.00045990943908691406
ell 700, elapsed: 0.0003387928009033203
ell 699, elapsed: 0.0004038810729980469
ell 698, elapsed: 0.0005230903625488281
ell 602, elapsed: 0.005937099456787109
ell 601, elapsed: 0.00047016143798828125
ell 600, elapsed: 0.00033783912658691406
ell 599, elapsed: 0.0003571510314941406
ell 598, elapsed: 0.0003421306610107422
ell 502, elapsed: 0.005146980285644531
ell 501, elapsed: 0.0005052089691162109
ell 500, elapsed: 0.00041604042053222656
ell 499, elapsed: 0.0004868507385253906
ell 498, elapsed: 0.00047397613525390625
ell 402, elapsed: 0.005733966827392578
ell 401, elapsed: 0.0004620552062988281
ell 400, elapsed: 0.000614166259765625
ell 399, elapsed: 0.0003399848937988281
ell 398, elapsed: 0.0003390312194824219
ell 302, elapsed: 0.005535125732421875
ell 301, elapsed: 0.0003581047058105469
ell 300, elapsed: 0.0003421306610107422
ell 299, elapsed: 0.0004508495330810547
ell 298, elapsed: 0.0003390312194824219
ell 202, elapsed: 0.005361795425415039
ell 201, elapsed: 0.0003609657287597656
ell 200, elapsed: 0.00045800209045410156
ell 199, elapsed: 0.0005328655242919922
ell 198, elapsed: 0.0005800724029541016
ell 152, elapsed: 0.0030498504638671875
ell 151, elapsed: 0.0003399848937988281
ell 150, elapsed: 0.0005369186401367188
ell 149, elapsed: 0.0004820823669433594
ell 148, elapsed: 0.0004279613494873047
ell 127, elapsed: 0.001734018325805664
ell 126, elapsed: 0.0004940032958984375
ell 125, elapsed: 0.0005488395690917969
ell 124, elapsed: 0.0003941059112548828
ell 123, elapsed: 0.0005290508270263672
ell 114, elapsed: 0.0011250972747802734
ell 113, elapsed: 0.0003428459167480469
ell 112, elapsed: 0.0003399848937988281
ell 111, elapsed: 0.0006101131439208984
ell 110, elapsed: 0.00040078163146972656
ell 102, elapsed: 0.0011098384857177734
ell 101, elapsed: 0.0003509521484375
ell 100, elapsed: 0.0004451274871826172
ell 99, elapsed: 0.00047588348388671875
ell 98, elapsed: 0.0003402233123779297
ell 97, elapsed: 0.00067901611328125
ell 96, elapsed: 0.000492095947265625
ell 95, elapsed: 0.0005500316619873047
ell 94, elapsed: 0.0006082057952880859
ell 93, elapsed: 0.00038313865661621094
ell 92, elapsed: 0.0005850791931152344
ell 91, elapsed: 0.0006170272827148438
ell 90, elapsed: 0.0006291866302490234
ell 89, elapsed: 0.0005121231079101562
ell 88, elapsed: 0.0006320476531982422
ell 87, elapsed: 0.0004899501800537109
ell 86, elapsed: 0.0006000995635986328
ell 85, elapsed: 0.0006079673767089844
ell 84, elapsed: 0.0005488395690917969
ell 83, elapsed: 0.0005118846893310547
ell 82, elapsed: 0.0005550384521484375
ell 81, elapsed: 0.0003540515899658203
ell 80, elapsed: 0.0004410743713378906
ell 79, elapsed: 0.0005168914794921875
ell 78, elapsed: 0.0008628368377685547
ell 77, elapsed: 0.0003829002380371094
ell 76, elapsed: 0.0004570484161376953
ell 75, elapsed: 0.0003750324249267578
ell 74, elapsed: 0.00045418739318847656
ell 73, elapsed: 0.0005209445953369141
ell 72, elapsed: 0.0005550384521484375
ell 71, elapsed: 0.0006620883941650391
ell 70, elapsed: 0.0005450248718261719
ell 69, elapsed: 0.0003750324249267578
ell 68, elapsed: 0.00047087669372558594
ell 67, elapsed: 0.00037288665771484375
ell 66, elapsed: 0.00045490264892578125
ell 65, elapsed: 0.00035309791564941406
ell 64, elapsed: 0.0004429817199707031
ell 63, elapsed: 0.000492095947265625
ell 62, elapsed: 0.0006349086761474609
ell 61, elapsed: 0.0004260540008544922
ell 60, elapsed: 0.0004601478576660156
ell 59, elapsed: 0.0003559589385986328
ell 58, elapsed: 0.00045990943908691406
ell 57, elapsed: 0.0003781318664550781
ell 56, elapsed: 0.0004620552062988281
ell 55, elapsed: 0.0004680156707763672
ell 54, elapsed: 0.00047087669372558594
ell 53, elapsed: 0.0004439353942871094
ell 52, elapsed: 0.0006949901580810547
ell 51, elapsed: 0.0006070137023925781
ell 50, elapsed: 0.0005431175231933594
ell 49, elapsed: 0.0004849433898925781
ell 48, elapsed: 0.00047397613525390625
ell 47, elapsed: 0.0005109310150146484
ell 46, elapsed: 0.0005629062652587891
ell 45, elapsed: 0.0005428791046142578
ell 44, elapsed: 0.0007219314575195312
ell 43, elapsed: 0.0005300045013427734
ell 42, elapsed: 0.0006089210510253906
ell 41, elapsed: 0.0003800392150878906
ell 40, elapsed: 0.00045800209045410156
ell 39, elapsed: 0.000370025634765625
ell 38, elapsed: 0.0004649162292480469
ell 37, elapsed: 0.0005259513854980469
ell 36, elapsed: 0.0005409717559814453
ell 35, elapsed: 0.00047707557678222656
ell 34, elapsed: 0.0006489753723144531
ell 33, elapsed: 0.00047707557678222656
ell 32, elapsed: 0.0006539821624755859
ell 31, elapsed: 0.0004730224609375
ell 30, elapsed: 0.0004830360412597656
ell 29, elapsed: 0.0002899169921875
ell 28, elapsed: 0.00048804283142089844
ell 27, elapsed: 0.00027298927307128906
ell 26, elapsed: 0.00031185150146484375
ell 25, elapsed: 0.0002541542053222656
ell 24, elapsed: 0.0006339550018310547
ell 23, elapsed: 0.0004398822784423828
ell 22, elapsed: 0.00031304359436035156
ell 21, elapsed: 0.0002460479736328125
ell 20, elapsed: 0.00030493736267089844
ell 19, elapsed: 0.00024509429931640625
ell 18, elapsed: 0.0007369518280029297
ell 17, elapsed: 0.0005550384521484375
ell 16, elapsed: 0.0005171298980712891
ell 15, elapsed: 0.0002880096435546875
ell 14, elapsed: 0.00032401084899902344
ell 13, elapsed: 0.0002880096435546875
ell 12, elapsed: 0.00032401084899902344
ell 11, elapsed: 0.0003750324249267578
ell 10, elapsed: 0.0007300376892089844
ell 9, elapsed: 0.0003998279571533203
ell 8, elapsed: 0.0004420280456542969
ell 7, elapsed: 0.0002498626708984375
ell 6, elapsed: 0.00030612945556640625
ell 5, elapsed: 0.0003979206085205078
ell 4, elapsed: 0.0006668567657470703
ell 3, elapsed: 0.00043702125549316406
ell 2, elapsed: 0.0004630088806152344
ell 1, elapsed: 0.00039196014404296875
ell 0, elapsed: 0.0004718303680419922
  0.145503 seconds (13.00 k allocations: 675.047 KiB)
elapsed: 0.0007860660552978516
step:          0.062128 sec (0 allocations: 0 byte, 0.0% gc time)
swapping:      0.000562 sec (0 allocations: 0 byte, 0.0% gc time)
calc_Mellell!: 0.001442 sec (0 allocations: 0 byte, 0.0% gc time)
  t0 :  0.000426 sec (0 allocations: 0 byte, 0.0% gc time)
  tm2 : 0.013845 sec (0 allocations: 0 byte, 0.0% gc time)
  tm2s: 0.000378 sec (0 allocations: 0 byte, 0.0% gc time)
  tm4 : 0.037005 sec (0 allocations: 0 byte, 0.0% gc time)
  tp2 : 0.0 sec (0 allocations: 0 byte, 0.0% gc time)
  tp2s: 0.0 sec (0 allocations: 0 byte, 0.0% gc time)
  tp4 : 0.0 sec (0 allocations: 0 byte, 0.0% gc time)
calc_wtdll!:   0.052331 sec (1.344 k allocations: 147.0 KB, 0.0% gc time)
calc_wljj!:    0.004437 sec (6 allocations: 96 byte, 0.0% gc time)
mult_prefac!:  0.0 sec (0 allocations: 0 byte, 0.0% gc time)
convert:       0.0 sec (0 allocations: 0 byte, 0.0% gc time)
write:         0.005823 sec (0 allocations: 0 byte, 0.0% gc time)
test_rand_2f1: 0.0 sec (0 allocations: 0 byte, 0.0% gc time)
Closing outfile out/Ml21-cache.bin...   0.003036 seconds
  0.000534 seconds (52 allocations: 28.297 KiB)
make_phi():   0.002524 seconds (8.20 k allocations: 238.016 KiB)
  0.016613 seconds (12.10 k allocations: 322.000 KiB)
tskip:       2.0e-5 sec (0 allocations: 0 byte, 0.0% gc time)
tread:       0.002301 sec (20 allocations: 2.188 KB, 0.0% gc time)
tmultphi:    0.001445 sec (0 allocations: 0 byte, 0.0% gc time)
tbrfft:      0.004182 sec (896 allocations: 42.0 KB, 0.0% gc time)
tmultprefac: 0.003488 sec (0 allocations: 0 byte, 0.0% gc time)
toutfunc:    0.005163 sec (10.528 k allocations: 206.5 KB, 0.0% gc time)
Testing R=0.9 ... passed
Calculating fmax: 
  dlrec    = 4
  dlrecRg1 = -4
  q=1.1, R=0.8:	  0.467083 seconds (145.59 k allocations: 68.095 MiB, 2.02% gc time)

  0.467333 seconds (145.66 k allocations: 68.127 MiB, 2.02% gc time)
ℓ = 1202
Δℓ = 4
ΔℓRg1 = -4
N = 1600
q = 1.1
kmin = 1.0e-5
kmax = 100000.00000000004
χ0 = 0.023029999999999995
RR = RR.tsv
ℓmax = ℓmax.bin
f21 = f21.bin
kmin = 1.0e-5
kmax = 100000.0
dlrec    = 4
dlrecRg1 = -4
Output size: 5741568 bytes = 0.005347251892089844 GiB
Output size: 51264 bytes = 4.774332046508789e-5 GiB
Reading 'out/F21EllCache'...   0.001095 seconds (271 allocations: 84.719 KiB)
ellmax: 1202
lmaxcache: 1202
fell[:,1,1] = Complex{Float64}[7.519068145690986e-120 - 1.8416405474382574e-135im, 7.541664537386155e-120 - 1.847175067190611e-135im]
ell 1202, elapsed: 1.9073486328125e-5
ell 1201, elapsed: 0.00037407875061035156
ell 1200, elapsed: 0.0003409385681152344
ell 1199, elapsed: 0.0003390312194824219
ell 1198, elapsed: 0.0003390312194824219
ell 1002, elapsed: 0.009839057922363281
ell 1001, elapsed: 0.0003628730773925781
ell 1000, elapsed: 0.00044798851013183594
ell 999, elapsed: 0.0003428459167480469
ell 998, elapsed: 0.00039887428283691406
ell 902, elapsed: 0.005975961685180664
ell 901, elapsed: 0.00037097930908203125
ell 900, elapsed: 0.0006530284881591797
ell 899, elapsed: 0.00034499168395996094
ell 898, elapsed: 0.0003390312194824219
ell 802, elapsed: 0.006018161773681641
ell 801, elapsed: 0.0003669261932373047
ell 800, elapsed: 0.00035500526428222656
ell 799, elapsed: 0.00035190582275390625
ell 798, elapsed: 0.0003409385681152344
ell 702, elapsed: 0.0050961971282958984
ell 701, elapsed: 0.00035691261291503906
ell 700, elapsed: 0.0003390312194824219
ell 699, elapsed: 0.0003409385681152344
ell 698, elapsed: 0.0003387928009033203
ell 602, elapsed: 0.005347013473510742
ell 601, elapsed: 0.0003600120544433594
ell 600, elapsed: 0.0003390312194824219
ell 599, elapsed: 0.0003409385681152344
ell 598, elapsed: 0.0003418922424316406
ell 502, elapsed: 0.005017995834350586
ell 501, elapsed: 0.00043702125549316406
ell 500, elapsed: 0.0003409385681152344
ell 499, elapsed: 0.0003380775451660156
ell 498, elapsed: 0.0003380775451660156
ell 402, elapsed: 0.005151033401489258
ell 401, elapsed: 0.00035309791564941406
ell 400, elapsed: 0.0003368854522705078
ell 399, elapsed: 0.0003390312194824219
ell 398, elapsed: 0.0003581047058105469
ell 302, elapsed: 0.005061149597167969
ell 301, elapsed: 0.00035309791564941406
ell 300, elapsed: 0.0003409385681152344
ell 299, elapsed: 0.0003409385681152344
ell 298, elapsed: 0.0003390312194824219
ell 202, elapsed: 0.005257844924926758
ell 201, elapsed: 0.0003590583801269531
ell 200, elapsed: 0.00034117698669433594
ell 199, elapsed: 0.0003390312194824219
ell 198, elapsed: 0.0003399848937988281
ell 152, elapsed: 0.0026459693908691406
ell 151, elapsed: 0.0003509521484375
ell 150, elapsed: 0.00033593177795410156
ell 149, elapsed: 0.0003361701965332031
ell 148, elapsed: 0.0003418922424316406
ell 127, elapsed: 0.0015230178833007812
ell 126, elapsed: 0.00037598609924316406
ell 125, elapsed: 0.0003409385681152344
ell 124, elapsed: 0.00033783912658691406
ell 123, elapsed: 0.0003399848937988281
ell 114, elapsed: 0.0008101463317871094
ell 113, elapsed: 0.0003390312194824219
ell 112, elapsed: 0.0003361701965332031
ell 111, elapsed: 0.0003349781036376953
ell 110, elapsed: 0.0004248619079589844
ell 102, elapsed: 0.0008640289306640625
ell 101, elapsed: 0.0003380775451660156
ell 100, elapsed: 0.0003390312194824219
ell 99, elapsed: 0.00033402442932128906
ell 98, elapsed: 0.0003368854522705078
ell 97, elapsed: 0.0003790855407714844
ell 96, elapsed: 0.0004680156707763672
ell 95, elapsed: 0.00046706199645996094
ell 94, elapsed: 0.0004749298095703125
ell 93, elapsed: 0.0003809928894042969
ell 92, elapsed: 0.00045609474182128906
ell 91, elapsed: 0.0003809928894042969
ell 90, elapsed: 0.00045418739318847656
ell 89, elapsed: 0.0003771781921386719
ell 88, elapsed: 0.00045013427734375
ell 87, elapsed: 0.0003788471221923828
ell 86, elapsed: 0.0005640983581542969
ell 85, elapsed: 0.0003819465637207031
ell 84, elapsed: 0.0004620552062988281
ell 83, elapsed: 0.0003800392150878906
ell 82, elapsed: 0.0004570484161376953
ell 81, elapsed: 0.0003750324249267578
ell 80, elapsed: 0.0004551410675048828
ell 79, elapsed: 0.0003790855407714844
ell 78, elapsed: 0.0005500316619873047
ell 77, elapsed: 0.0003829002380371094
ell 76, elapsed: 0.0005731582641601562
ell 75, elapsed: 0.0004820823669433594
ell 74, elapsed: 0.00045990943908691406
ell 73, elapsed: 0.0003829002380371094
ell 72, elapsed: 0.00045609474182128906
ell 71, elapsed: 0.00046706199645996094
ell 70, elapsed: 0.0004811286926269531
ell 69, elapsed: 0.0003790855407714844
[...]
ell 782, elapsed: 0.0015170574188232422
ell 781, elapsed: 0.0007350444793701172
ell 780, elapsed: 0.0007340908050537109
ell 779, elapsed: 0.0007410049438476562
ell 778, elapsed: 0.0007631778717041016
ell 772, elapsed: 0.0014810562133789062
ell 771, elapsed: 0.00074005126953125
ell 770, elapsed: 0.0007350444793701172
ell 769, elapsed: 0.0007920265197753906
ell 768, elapsed: 0.0007359981536865234
ell 762, elapsed: 0.001477956771850586
ell 761, elapsed: 0.0007431507110595703
ell 760, elapsed: 0.0007638931274414062
ell 759, elapsed: 0.0007429122924804688
ell 758, elapsed: 0.0007441043853759766
ell 752, elapsed: 0.0014719963073730469
ell 751, elapsed: 0.0007569789886474609
ell 750, elapsed: 0.0007479190826416016
ell 749, elapsed: 0.0007350444793701172
ell 748, elapsed: 0.0007441043853759766
ell 742, elapsed: 0.0014829635620117188
ell 741, elapsed: 0.0007691383361816406
ell 740, elapsed: 0.0007388591766357422
ell 739, elapsed: 0.0007429122924804688
ell 738, elapsed: 0.0007519721984863281
ell 732, elapsed: 0.0015408992767333984
ell 731, elapsed: 0.0007479190826416016
ell 730, elapsed: 0.0007550716400146484
ell 729, elapsed: 0.0007500648498535156
ell 728, elapsed: 0.0007650852203369141
ell 722, elapsed: 0.0015170574188232422
ell 721, elapsed: 0.0007600784301757812
ell 720, elapsed: 0.0007481575012207031
ell 719, elapsed: 0.0007650852203369141
ell 718, elapsed: 0.0007410049438476562
ell 712, elapsed: 0.0014638900756835938
ell 711, elapsed: 0.0007350444793701172
ell 710, elapsed: 0.0007479190826416016
ell 709, elapsed: 0.0007259845733642578
ell 708, elapsed: 0.0007219314575195312
ell 702, elapsed: 0.0014760494232177734
ell 701, elapsed: 0.0007641315460205078
ell 700, elapsed: 0.0007410049438476562
ell 699, elapsed: 0.0007309913635253906
ell 698, elapsed: 0.0007369518280029297
ell 692, elapsed: 0.0015399456024169922
ell 691, elapsed: 0.0007331371307373047
ell 690, elapsed: 0.0007131099700927734
ell 689, elapsed: 0.0007328987121582031
ell 688, elapsed: 0.0007238388061523438
ell 682, elapsed: 0.0014729499816894531
ell 681, elapsed: 0.0007340908050537109
ell 680, elapsed: 0.0007390975952148438
ell 679, elapsed: 0.0007419586181640625
ell 678, elapsed: 0.0007560253143310547
ell 672, elapsed: 0.0014820098876953125
ell 671, elapsed: 0.0007419586181640625
ell 670, elapsed: 0.0007381439208984375
ell 669, elapsed: 0.0007519721984863281
ell 668, elapsed: 0.0007169246673583984
ell 662, elapsed: 0.0014538764953613281
ell 661, elapsed: 0.0007238388061523438
ell 660, elapsed: 0.0007541179656982422
ell 659, elapsed: 0.0007410049438476562
ell 658, elapsed: 0.0007348060607910156
ell 652, elapsed: 0.0016639232635498047
ell 651, elapsed: 0.0007560253143310547
ell 650, elapsed: 0.0007359981536865234
ell 649, elapsed: 0.0007159709930419922
ell 648, elapsed: 0.000743865966796875
ell 642, elapsed: 0.0014770030975341797
ell 641, elapsed: 0.0007421970367431641
ell 640, elapsed: 0.0007319450378417969
ell 639, elapsed: 0.0007359981536865234
ell 638, elapsed: 0.0007359981536865234
ell 632, elapsed: 0.0015201568603515625
ell 631, elapsed: 0.0007419586181640625
ell 630, elapsed: 0.0007410049438476562
ell 629, elapsed: 0.0007398128509521484
ell 628, elapsed: 0.0007669925689697266
ell 622, elapsed: 0.0014810562133789062
ell 621, elapsed: 0.0007469654083251953
ell 620, elapsed: 0.0007441043853759766
ell 619, elapsed: 0.0007560253143310547
ell 618, elapsed: 0.0007498264312744141
ell 612, elapsed: 0.0014929771423339844
ell 611, elapsed: 0.0007441043853759766
ell 610, elapsed: 0.0007698535919189453
ell 609, elapsed: 0.0007460117340087891
ell 608, elapsed: 0.0007610321044921875
ell 602, elapsed: 0.0015091896057128906
ell 601, elapsed: 0.0008211135864257812
ell 600, elapsed: 0.000762939453125
ell 599, elapsed: 0.0007338523864746094
ell 598, elapsed: 0.0007300376892089844
ell 592, elapsed: 0.0015058517456054688
ell 591, elapsed: 0.0007309913635253906
ell 590, elapsed: 0.0007259845733642578
ell 589, elapsed: 0.0007488727569580078
ell 588, elapsed: 0.0007319450378417969
ell 582, elapsed: 0.0014920234680175781
ell 581, elapsed: 0.0007359981536865234
ell 580, elapsed: 0.0007269382476806641
ell 579, elapsed: 0.0007359981536865234
ell 578, elapsed: 0.0007529258728027344
ell 572, elapsed: 0.0017180442810058594
ell 571, elapsed: 0.0007410049438476562
ell 570, elapsed: 0.0007450580596923828
ell 569, elapsed: 0.0007600784301757812
ell 568, elapsed: 0.0007300376892089844
ell 562, elapsed: 0.0014719963073730469
ell 561, elapsed: 0.0007269382476806641
ell 560, elapsed: 0.000762939453125
ell 559, elapsed: 0.0007441043853759766
ell 558, elapsed: 0.0007379055023193359
ell 552, elapsed: 0.0014698505401611328
ell 551, elapsed: 0.0007569789886474609
ell 550, elapsed: 0.0007481575012207031
ell 549, elapsed: 0.0007498264312744141
ell 548, elapsed: 0.0007328987121582031
ell 542, elapsed: 0.0014801025390625
ell 541, elapsed: 0.0007212162017822266
ell 540, elapsed: 0.0007250308990478516
ell 539, elapsed: 0.0007188320159912109
ell 538, elapsed: 0.0007250308990478516
ell 532, elapsed: 0.0014688968658447266
ell 531, elapsed: 0.0007331371307373047
ell 530, elapsed: 0.0007359981536865234
ell 529, elapsed: 0.0007340908050537109
ell 528, elapsed: 0.0007419586181640625
ell 522, elapsed: 0.0014507770538330078
ell 521, elapsed: 0.0007610321044921875
ell 520, elapsed: 0.0007309913635253906
ell 519, elapsed: 0.0007410049438476562
ell 518, elapsed: 0.0007300376892089844
ell 512, elapsed: 0.0014638900756835938
ell 511, elapsed: 0.0007319450378417969
ell 510, elapsed: 0.0007510185241699219
ell 509, elapsed: 0.0007200241088867188
ell 508, elapsed: 0.0007328987121582031
ell 502, elapsed: 0.0015048980712890625
ell 501, elapsed: 0.0007410049438476562
ell 500, elapsed: 0.0007348060607910156
ell 499, elapsed: 0.0007331371307373047
ell 498, elapsed: 0.0007340908050537109
ell 492, elapsed: 0.001486063003540039
ell 491, elapsed: 0.0007410049438476562
ell 490, elapsed: 0.0007278919219970703
ell 489, elapsed: 0.0007359981536865234
ell 488, elapsed: 0.0007359981536865234
ell 482, elapsed: 0.0014867782592773438
ell 481, elapsed: 0.0007288455963134766
ell 480, elapsed: 0.0007359981536865234
ell 479, elapsed: 0.0007269382476806641
ell 478, elapsed: 0.0007259845733642578
ell 472, elapsed: 0.0014638900756835938
ell 471, elapsed: 0.0007278919219970703
ell 470, elapsed: 0.0007441043853759766
ell 469, elapsed: 0.0007331371307373047
ell 468, elapsed: 0.0007951259613037109
ell 462, elapsed: 0.0014660358428955078
ell 461, elapsed: 0.0007300376892089844
ell 460, elapsed: 0.0007300376892089844
ell 459, elapsed: 0.0007638931274414062
ell 458, elapsed: 0.0007340908050537109
ell 452, elapsed: 0.0014560222625732422
ell 451, elapsed: 0.0007419586181640625
ell 450, elapsed: 0.0007610321044921875
ell 449, elapsed: 0.0007309913635253906
ell 448, elapsed: 0.0007710456848144531
ell 442, elapsed: 0.0014739036560058594
ell 441, elapsed: 0.000782012939453125
ell 440, elapsed: 0.00078582763671875
ell 439, elapsed: 0.0007390975952148438
ell 438, elapsed: 0.0007448196411132812
ell 432, elapsed: 0.001499176025390625
ell 431, elapsed: 0.0007369518280029297
ell 430, elapsed: 0.0007190704345703125
ell 429, elapsed: 0.0007457733154296875
ell 428, elapsed: 0.0007541179656982422
ell 422, elapsed: 0.0017189979553222656
ell 421, elapsed: 0.0006930828094482422
ell 420, elapsed: 0.0007429122924804688
ell 419, elapsed: 0.0007390975952148438
ell 418, elapsed: 0.001249074935913086
ell 412, elapsed: 0.0014598369598388672
ell 411, elapsed: 0.0007588863372802734
ell 410, elapsed: 0.0007660388946533203
ell 409, elapsed: 0.0007338523864746094
ell 408, elapsed: 0.0007369518280029297
ell 402, elapsed: 0.0013971328735351562
ell 401, elapsed: 0.0007390975952148438
ell 400, elapsed: 0.0007250308990478516
ell 399, elapsed: 0.0007169246673583984
ell 398, elapsed: 0.0009300708770751953
ell 392, elapsed: 0.0017139911651611328
ell 391, elapsed: 0.0007901191711425781
ell 390, elapsed: 0.0007841587066650391
ell 389, elapsed: 0.0007731914520263672
ell 388, elapsed: 0.0012919902801513672
ell 382, elapsed: 0.0016050338745117188
ell 381, elapsed: 0.0007770061492919922
ell 380, elapsed: 0.000782012939453125
ell 379, elapsed: 0.0008790493011474609
ell 378, elapsed: 0.0007719993591308594
ell 372, elapsed: 0.0015840530395507812
ell 371, elapsed: 0.000804901123046875
ell 370, elapsed: 0.0008521080017089844
ell 369, elapsed: 0.0007679462432861328
ell 368, elapsed: 0.0007669925689697266
ell 362, elapsed: 0.001644134521484375
ell 361, elapsed: 0.0008220672607421875
ell 360, elapsed: 0.0007760524749755859
ell 359, elapsed: 0.0007641315460205078
ell 358, elapsed: 0.0007748603820800781
ell 352, elapsed: 0.0016667842864990234
ell 351, elapsed: 0.0007419586181640625
ell 350, elapsed: 0.0007281303405761719
ell 349, elapsed: 0.0007290840148925781
ell 348, elapsed: 0.0008699893951416016
ell 342, elapsed: 0.0014369487762451172
ell 341, elapsed: 0.0007278919219970703
ell 340, elapsed: 0.0007390975952148438
ell 339, elapsed: 0.0008568763732910156
ell 338, elapsed: 0.0007398128509521484
ell 332, elapsed: 0.001667022705078125
ell 331, elapsed: 0.0008020401000976562
ell 330, elapsed: 0.000804901123046875
ell 329, elapsed: 0.0006959438323974609
ell 328, elapsed: 0.0007350444793701172
ell 322, elapsed: 0.0014960765838623047
ell 321, elapsed: 0.0008120536804199219
ell 320, elapsed: 0.0007328987121582031
ell 319, elapsed: 0.0007321834564208984
ell 318, elapsed: 0.00074005126953125
ell 312, elapsed: 0.0015859603881835938
ell 311, elapsed: 0.0007328987121582031
ell 310, elapsed: 0.0007319450378417969
ell 309, elapsed: 0.0007328987121582031
ell 308, elapsed: 0.0008220672607421875
ell 302, elapsed: 0.0014750957489013672
ell 301, elapsed: 0.0007359981536865234
ell 300, elapsed: 0.0007369518280029297
ell 299, elapsed: 0.0008790493011474609
ell 298, elapsed: 0.0007679462432861328
ell 292, elapsed: 0.0014469623565673828
ell 291, elapsed: 0.0007309913635253906
ell 290, elapsed: 0.0008499622344970703
ell 289, elapsed: 0.0007381439208984375
ell 288, elapsed: 0.000720977783203125
ell 282, elapsed: 0.0014688968658447266
ell 281, elapsed: 0.0008299350738525391
ell 280, elapsed: 0.0007069110870361328
ell 279, elapsed: 0.0007178783416748047
ell 278, elapsed: 0.0007269382476806641
ell 272, elapsed: 0.0015769004821777344
ell 271, elapsed: 0.0007939338684082031
ell 270, elapsed: 0.0007259845733642578
ell 269, elapsed: 0.0007348060607910156
ell 268, elapsed: 0.0007379055023193359
ell 262, elapsed: 0.0015621185302734375
ell 261, elapsed: 0.0007550716400146484
ell 260, elapsed: 0.0008409023284912109
ell 259, elapsed: 0.0007510185241699219
ell 258, elapsed: 0.0007419586181640625
ell 252, elapsed: 0.0014619827270507812
ell 251, elapsed: 0.0007379055023193359
ell 250, elapsed: 0.0007350444793701172
ell 249, elapsed: 0.0008690357208251953
ell 248, elapsed: 0.0007650852203369141
ell 242, elapsed: 0.0014429092407226562
ell 241, elapsed: 0.000743865966796875
ell 240, elapsed: 0.0007421970367431641
ell 239, elapsed: 0.0007271766662597656
ell 238, elapsed: 0.0007338523864746094
ell 232, elapsed: 0.0014491081237792969
ell 231, elapsed: 0.0008709430694580078
ell 230, elapsed: 0.0008528232574462891
ell 229, elapsed: 0.0007159709930419922
ell 228, elapsed: 0.0007288455963134766
ell 222, elapsed: 0.0014798641204833984
ell 221, elapsed: 0.0007278919219970703
ell 220, elapsed: 0.0007369518280029297
ell 219, elapsed: 0.0007288455963134766
ell 218, elapsed: 0.0007679462432861328
ell 212, elapsed: 0.0016829967498779297
ell 211, elapsed: 0.0007340908050537109
ell 210, elapsed: 0.0007390975952148438
ell 209, elapsed: 0.0007870197296142578
ell 208, elapsed: 0.0007109642028808594
ell 202, elapsed: 0.0014328956604003906
ell 201, elapsed: 0.0007238388061523438
ell 200, elapsed: 0.0007779598236083984
ell 199, elapsed: 0.0007300376892089844
ell 198, elapsed: 0.0007219314575195312
ell 192, elapsed: 0.0014569759368896484
ell 191, elapsed: 0.0007488727569580078
ell 190, elapsed: 0.0007359981536865234
ell 189, elapsed: 0.0007259845733642578
ell 188, elapsed: 0.0007369518280029297
ell 182, elapsed: 0.0013990402221679688
ell 181, elapsed: 0.0007450580596923828
ell 180, elapsed: 0.007110118865966797
ell 179, elapsed: 0.0007281303405761719
ell 178, elapsed: 0.0007159709930419922
ell 172, elapsed: 0.0014629364013671875
ell 171, elapsed: 0.0007359981536865234
ell 170, elapsed: 0.000759124755859375
ell 169, elapsed: 0.0007319450378417969
ell 168, elapsed: 0.0007338523864746094
ell 162, elapsed: 0.0014069080352783203
ell 161, elapsed: 0.0007491111755371094
ell 160, elapsed: 0.0007278919219970703
ell 159, elapsed: 0.0007271766662597656
ell 158, elapsed: 0.0007390975952148438
ell 152, elapsed: 0.00460505485534668
ell 151, elapsed: 0.0010800361633300781
ell 150, elapsed: 0.001329183578491211
ell 149, elapsed: 0.000804901123046875
ell 148, elapsed: 0.0008130073547363281
ell 142, elapsed: 0.0016269683837890625
ell 141, elapsed: 0.0007231235504150391
ell 140, elapsed: 0.0007259845733642578
ell 139, elapsed: 0.002246856689453125
ell 138, elapsed: 0.0007109642028808594
ell 132, elapsed: 0.0014760494232177734
ell 131, elapsed: 0.0008249282836914062
ell 130, elapsed: 0.0007967948913574219
ell 129, elapsed: 0.0007309913635253906
ell 128, elapsed: 0.0007128715515136719
ell 122, elapsed: 0.0020461082458496094
ell 121, elapsed: 0.0007259845733642578
ell 120, elapsed: 0.0007271766662597656
ell 119, elapsed: 0.0007190704345703125
ell 118, elapsed: 0.0008008480072021484
ell 112, elapsed: 0.0015540122985839844
ell 111, elapsed: 0.0007319450378417969
ell 110, elapsed: 0.0007359981536865234
ell 109, elapsed: 0.0007460117340087891
ell 108, elapsed: 0.0007328987121582031
ell 102, elapsed: 0.001432180404663086
ell 101, elapsed: 0.0034339427947998047
ell 100, elapsed: 0.0032639503479003906
ell 99, elapsed: 0.003084897994995117
ell 98, elapsed: 0.003047943115234375
ell 92, elapsed: 0.0065460205078125
ell 91, elapsed: 0.003301858901977539
ell 90, elapsed: 0.00344085693359375
ell 89, elapsed: 0.003019094467163086
ell 88, elapsed: 0.0030159950256347656
ell 82, elapsed: 0.006132841110229492
ell 81, elapsed: 0.0031800270080566406
ell 80, elapsed: 0.00310516357421875
ell 79, elapsed: 0.0030350685119628906
ell 78, elapsed: 0.0034711360931396484
ell 72, elapsed: 0.006017923355102539
ell 71, elapsed: 0.0034041404724121094
ell 70, elapsed: 0.0030629634857177734
ell 69, elapsed: 0.003432035446166992
ell 68, elapsed: 0.003231048583984375
ell 62, elapsed: 0.006105899810791016
ell 61, elapsed: 0.003220081329345703
ell 60, elapsed: 0.003573179244995117
ell 59, elapsed: 0.0030841827392578125
ell 58, elapsed: 0.003103017807006836
ell 52, elapsed: 0.006043195724487305
ell 51, elapsed: 0.0030879974365234375
ell 50, elapsed: 0.0030901432037353516
ell 49, elapsed: 0.0030829906463623047
ell 48, elapsed: 0.003080129623413086
ell 42, elapsed: 0.006244182586669922
ell 41, elapsed: 0.0029878616333007812
ell 40, elapsed: 0.0031290054321289062
ell 39, elapsed: 0.0030660629272460938
ell 38, elapsed: 0.0030679702758789062
ell 32, elapsed: 0.008347034454345703
ell 31, elapsed: 0.0030770301818847656
ell 30, elapsed: 0.0030851364135742188
ell 29, elapsed: 0.0030670166015625
ell 28, elapsed: 0.00304412841796875
ell 22, elapsed: 0.005630016326904297
ell 21, elapsed: 0.0030031204223632812
ell 20, elapsed: 0.0030639171600341797
ell 19, elapsed: 0.0032939910888671875
ell 18, elapsed: 0.003033161163330078
ell 12, elapsed: 0.005651950836181641
ell 11, elapsed: 0.003019094467163086
ell 10, elapsed: 0.0031681060791015625
ell 9, elapsed: 0.0030660629272460938
ell 8, elapsed: 0.0030710697174072266
  0.736192 seconds (74.15 k allocations: 12.051 MiB)
elapsed: 0.003763914108276367
step:          0.069708 sec (0 allocations: 0 byte, 0.0% gc time)
swapping:      0.000757 sec (0 allocations: 0 byte, 0.0% gc time)
calc_Mellell!: 0.029991 sec (0 allocations: 0 byte, 0.0% gc time)
  t0 :  0.010473 sec (0 allocations: 0 byte, 0.0% gc time)
  tm2 : 0.061414 sec (0 allocations: 0 byte, 0.0% gc time)
  tm2s: 0.009119 sec (0 allocations: 0 byte, 0.0% gc time)
  tm4 : 0.174654 sec (0 allocations: 0 byte, 0.0% gc time)
  tp2 : 0.0 sec (0 allocations: 0 byte, 0.0% gc time)
  tp2s: 0.0 sec (0 allocations: 0 byte, 0.0% gc time)
  tp4 : 0.0 sec (0 allocations: 0 byte, 0.0% gc time)
calc_wtdll!:   0.496913 sec (49.2 k allocations: 11.133 MB, 0.0% gc time)
calc_wljj!:    0.037924 sec (69 allocations: 1.078 KB, 0.0% gc time)
mult_prefac!:  0.0 sec (0 allocations: 0 byte, 0.0% gc time)
convert:       0.0 sec (0 allocations: 0 byte, 0.0% gc time)
write:         0.040349 sec (0 allocations: 0 byte, 0.0% gc time)
test_rand_2f1: 0.0 sec (0 allocations: 0 byte, 0.0% gc time)
Closing outfile out/MlCache/MlCache.bin...   0.000012 seconds
xi, l=0, nu=0:   0.489930 seconds (556.07 k allocations: 27.070 MiB, 10.69% gc time)
xi, l=0, nu=-2:  0.002498 seconds (144 allocations: 149.563 KiB)
Created 'out/xi.tsv'.
  q=1.1, R=0.6:	  1.179829 seconds (373.06 k allocations: 174.511 MiB, 2.69% gc time)
  q=1.1, R=0.7:	  1.223201 seconds (391.29 k allocations: 182.916 MiB, 1.86% gc time)
  q=1.1, R=0.8:	  1.232039 seconds (383.81 k allocations: 179.466 MiB, 1.71% gc time)
  q=1.1, R=0.9:	  1.306411 seconds (376.40 k allocations: 176.056 MiB, 2.84% gc time)
  q=1.1, R=0.998:	 21.255337 seconds (10.67 M allocations: 831.832 MiB, 0.22% gc time)
  q=1.1, R=1.0:	  0.041262 seconds (12.29 k allocations: 9.129 MiB, 6.52% gc time)

ℓ = 1000
Δℓ = 4
ΔℓRg1 = -4
N = 4096
q = 1.1
kmin = 1.0e-5
kmax = 1000.0
χ0 = 0.001
RR = RR.tsv
ℓmax = ℓmax.bin
f21 = f21.bin
kmin = 1.0e-5
kmax = 1000.0
dlrec    = 4
dlrecRg1 = -4
Output size: 1573632 bytes = 0.0014655590057373047 GiB
Output size: 786816 bytes = 0.0007327795028686523 GiB
Reading 'out/F21EllCache'...   0.001428 seconds (272 allocations: 533.594 KiB)
ellmax: 1002
lmaxcache: 1000
fell[:,1,1] = Complex{Float64}[1.7262928128202118e-224 - 4.2281979352226944e-240im, 1.7282693092099662e-224 - 4.233038955177176e-240im]
ell 1002, elapsed: 2.288818359375e-5
ell 1001, elapsed: 0.0006771087646484375
ell 1000, elapsed: 0.0006358623504638672
ell 999, elapsed: 0.0057451725006103516
ell 998, elapsed: 0.005461931228637695
ell 44, elapsed: 0.6951618194580078
ell 43, elapsed: 0.0059549808502197266
ell 42, elapsed: 0.0060160160064697266
ell 41, elapsed: 0.0050699710845947266
ell 40, elapsed: 0.005060911178588867
  0.736912 seconds (4.65 k allocations: 318.469 KiB)
elapsed: 0.006516933441162109
step:          0.691564 sec (0 allocations: 0 byte, 0.0% gc time)
swapping:      0.000628 sec (0 allocations: 0 byte, 0.0% gc time)
calc_Mellell!: 0.001037 sec (0 allocations: 0 byte, 0.0% gc time)
  t0 :  0.000484 sec (0 allocations: 0 byte, 0.0% gc time)
  tm2 : 0.009831 sec (0 allocations: 0 byte, 0.0% gc time)
  tm2s: 0.000295 sec (0 allocations: 0 byte, 0.0% gc time)
  tm4 : 0.027005 sec (0 allocations: 0 byte, 0.0% gc time)
  tp2 : 0.0 sec (0 allocations: 0 byte, 0.0% gc time)
  tp2s: 0.0 sec (0 allocations: 0 byte, 0.0% gc time)
  tp4 : 0.0 sec (0 allocations: 0 byte, 0.0% gc time)
calc_wtdll!:   0.037818 sec (480 allocations: 52.5 KB, 0.0% gc time)
calc_wljj!:    0.001199 sec (1 allocations: 16 byte, 0.0% gc time)
mult_prefac!:  0.0 sec (0 allocations: 0 byte, 0.0% gc time)
convert:       0.0 sec (0 allocations: 0 byte, 0.0% gc time)
write:         0.001012 sec (0 allocations: 0 byte, 0.0% gc time)
test_rand_2f1: 0.0 sec (0 allocations: 0 byte, 0.0% gc time)
Closing outfile out/MlCache/MlCache.bin...   0.002241 seconds
  0.529027 seconds (54 allocations: 67.203 KiB)
make_phi():   0.016977 seconds (80 allocations: 276.297 KiB)
  0.013008 seconds (108 allocations: 5.813 KiB)
tskip:       1.0e-6 sec (0 allocations: 0 byte, 0.0% gc time)
tread:       0.008955 sec (20 allocations: 1.328 KB, 0.0% gc time)
tmultphi:    0.000525 sec (0 allocations: 0 byte, 0.0% gc time)
tbrfft:      0.002287 sec (96 allocations: 4.5 KB, 0.0% gc time)
tmultprefac: 0.001112 sec (0 allocations: 0 byte, 0.0% gc time)
toutfunc:    0.000222 sec (0 allocations: 0 byte, 0.0% gc time)
Created 'out/wl42_jj00.tsv'.
Created 'out/wl42_jj02.tsv'.
   Testing TwoFAST tests passed 
