Running tests with Julia v1.3.0
   Cloning default registries into `~/.julia`
   Cloning registry from "https://github.com/JuliaRegistries/General.git"
[?25l    Fetching: [>                                        ]  0.0 %    Fetching: [==============>                          ]  32.5 %    Fetching: [==================================>      ]  83.0 %[2K[?25h     Added registry `General` to `~/.julia/registries/General`
 Resolving package versions...
 Installed Reexport ───────── v0.2.0
 Installed IncGammaBeta ───── v0.1.0
 Installed VersionParsing ─── v1.1.3
 Installed URIParser ──────── v0.4.0
 Installed BinDeps ────────── v1.0.0
 Installed SpecialFunctions ─ v0.8.0
 Installed AbstractAlgebra ── v0.7.1
 Installed BinaryProvider ─── v0.5.8
 Installed AbstractFFTs ───── v0.5.0
 Installed Compat ─────────── v2.2.0
 Installed JSON ───────────── v0.21.0
 Installed FFTW ───────────── v1.1.0
 Installed Conda ──────────── v1.3.0
 Installed TwoFAST ────────── v0.1.0
 Installed Nemo ───────────── v0.15.1
 Installed Parsers ────────── v0.3.10
  Updating `~/.julia/environments/v1.3/Project.toml`
  [0dd23c3e] + TwoFAST v0.1.0
  Updating `~/.julia/environments/v1.3/Manifest.toml`
  [c3fe647b] + AbstractAlgebra v0.7.1
  [621f4979] + AbstractFFTs v0.5.0
  [9e28174c] + BinDeps v1.0.0
  [b99e7846] + BinaryProvider v0.5.8
  [34da2185] + Compat v2.2.0
  [8f4d0f93] + Conda v1.3.0
  [7a1cc6ca] + FFTW v1.1.0
  [5087d2c0] + IncGammaBeta v0.1.0
  [682c06a0] + JSON v0.21.0
  [2edaba10] + Nemo v0.15.1
  [69de0a69] + Parsers v0.3.10
  [189a3867] + Reexport v0.2.0
  [276daf66] + SpecialFunctions v0.8.0
  [0dd23c3e] + TwoFAST v0.1.0
  [30578b45] + URIParser v0.4.0
  [81def892] + VersionParsing v1.1.3
  [2a0f44e3] + Base64 
  [ade2ca70] + Dates 
  [8bb1440f] + DelimitedFiles 
  [8ba89e20] + Distributed 
  [b77e0a4c] + InteractiveUtils 
  [76f85450] + LibGit2 
  [8f399da3] + Libdl 
  [37e2e46d] + LinearAlgebra 
  [56ddb016] + Logging 
  [d6f4376e] + Markdown 
  [a63ad114] + Mmap 
  [44cfe95a] + Pkg 
  [de0858da] + Printf 
  [3fa0cd96] + REPL 
  [9a3f8284] + Random 
  [ea8e919c] + SHA 
  [9e88b42a] + Serialization 
  [1a1011a3] + SharedArrays 
  [6462fe0b] + Sockets 
  [2f01184e] + SparseArrays 
  [10745b16] + Statistics 
  [8dfed614] + Test 
  [cf7118a7] + UUIDs 
  [4ec0a83e] + Unicode 
  Building SpecialFunctions → `~/.julia/packages/SpecialFunctions/ne2iw/deps/build.log`
  Building Conda ───────────→ `~/.julia/packages/Conda/kLXeC/deps/build.log`
  Building FFTW ────────────→ `~/.julia/packages/FFTW/loJ3F/deps/build.log`
  Building Nemo ────────────→ `~/.julia/packages/Nemo/qzx0m/deps/build.log`
   Testing TwoFAST
 Resolving package versions...
 Installed Dierckx ─ v0.4.1
  Building Dierckx → `~/.julia/packages/Dierckx/9SY4A/deps/build.log`
    Status `/tmp/jl_Kjirwr/Manifest.toml`
  [c3fe647b] AbstractAlgebra v0.7.1
  [621f4979] AbstractFFTs v0.5.0
  [9e28174c] BinDeps v1.0.0
  [b99e7846] BinaryProvider v0.5.8
  [34da2185] Compat v2.2.0
  [8f4d0f93] Conda v1.3.0
  [39dd38d3] Dierckx v0.4.1
  [7a1cc6ca] FFTW v1.1.0
  [5087d2c0] IncGammaBeta v0.1.0
  [682c06a0] JSON v0.21.0
  [2edaba10] Nemo v0.15.1
  [69de0a69] Parsers v0.3.10
  [189a3867] Reexport v0.2.0
  [276daf66] SpecialFunctions v0.8.0
  [0dd23c3e] TwoFAST v0.1.0
  [30578b45] URIParser v0.4.0
  [81def892] VersionParsing v1.1.3
  [2a0f44e3] Base64  [`@stdlib/Base64`]
  [ade2ca70] Dates  [`@stdlib/Dates`]
  [8bb1440f] DelimitedFiles  [`@stdlib/DelimitedFiles`]
  [8ba89e20] Distributed  [`@stdlib/Distributed`]
  [b77e0a4c] InteractiveUtils  [`@stdlib/InteractiveUtils`]
  [76f85450] LibGit2  [`@stdlib/LibGit2`]
  [8f399da3] Libdl  [`@stdlib/Libdl`]
  [37e2e46d] LinearAlgebra  [`@stdlib/LinearAlgebra`]
  [56ddb016] Logging  [`@stdlib/Logging`]
  [d6f4376e] Markdown  [`@stdlib/Markdown`]
  [a63ad114] Mmap  [`@stdlib/Mmap`]
  [44cfe95a] Pkg  [`@stdlib/Pkg`]
  [de0858da] Printf  [`@stdlib/Printf`]
  [3fa0cd96] REPL  [`@stdlib/REPL`]
  [9a3f8284] Random  [`@stdlib/Random`]
  [ea8e919c] SHA  [`@stdlib/SHA`]
  [9e88b42a] Serialization  [`@stdlib/Serialization`]
  [1a1011a3] SharedArrays  [`@stdlib/SharedArrays`]
  [6462fe0b] Sockets  [`@stdlib/Sockets`]
  [2f01184e] SparseArrays  [`@stdlib/SparseArrays`]
  [10745b16] Statistics  [`@stdlib/Statistics`]
  [8dfed614] Test  [`@stdlib/Test`]
  [cf7118a7] UUIDs  [`@stdlib/UUIDs`]
  [4ec0a83e] Unicode  [`@stdlib/Unicode`]

Welcome to Nemo version 0.15.1

Nemo comes with absolutely no warranty whatsoever


Welcome to Nemo version 0.15.1

Nemo comes with absolutely no warranty whatsoever

Testing ξ(r), ℓ=0, ν=-1 ... passed
Testing ξ(r), ℓ=0, ν=0 ... passed
Testing ξ(r), ℓ=0, ν=1 ... passed
Testing ξ(r), ℓ=0, ν=2 ... passed
Testing ξ(r), ℓ=0, ν=3 ... passed
Testing ξ(r), ℓ=1, ν=0 ... passed
Testing ξ(r), ℓ=1, ν=1 ... passed
Testing ξ(r), ℓ=1, ν=2 ... passed
Testing ξ(r), ℓ=1, ν=3 ... passed
Testing ξ(r), ℓ=2, ν=-1 ... passed
Testing ξ(r), ℓ=2, ν=0 ... passed
Testing ξ(r), ℓ=2, ν=1 ... passed
Testing ξ(r), ℓ=2, ν=2 ... passed
Testing ξ(r), ℓ=2, ν=3 ... passed
Testing ξ(r), ℓ=3, ν=-1 ... passed
Testing ξ(r), ℓ=3, ν=0 ... passed
Testing ξ(r), ℓ=3, ν=1 ... passed
Testing ξ(r), ℓ=3, ν=2 ... passed
Testing ξ(r), ℓ=3, ν=3 ... passed
Testing ξ(r), ℓ=4, ν=-1 ... passed
Testing ξ(r), ℓ=4, ν=0 ... passed
Testing ξ(r), ℓ=4, ν=1 ... passed
Testing ξ(r), ℓ=4, ν=2 ... passed
Testing ξ(r), ℓ=4, ν=3 ... passed
Testing ξ(r) ... passed
Testing ξ′(r) ... passed
Testing ξ″(r) ... passed
Calculating fmax: 
  dlrec    = 4
  dlrecRg1 = -4
  q=1.1, R=1.1:	  4.042323 seconds (1.11 M allocations: 119.114 MiB, 4.36% gc time)

  4.072627 seconds (1.11 M allocations: 119.472 MiB, 4.33% gc time)
ℓ = 1202
Δℓ = 4
ΔℓRg1 = -4
N = 1600
q = 1.1
kmin = 1.0e-5
kmax = 100000.00000000004
χ0 = 0.023029999999999995
RR = RR.tsv
ℓmax = ℓmax.bin
f21 = f21.bin
kmin = 1.0e-5
kmax = 100000.0
dlrec    = 4
dlrecRg1 = -4
Output size: 5741568 bytes = 0.005347251892089844 GiB
Output size: 51264 bytes = 4.774332046508789e-5 GiB
Reading 'out/F21EllCache'...   0.681577 seconds (348.12 k allocations: 17.867 MiB, 3.35% gc time)
ellmax: 1202
lmaxcache: 1202
fell[:,1,1] = Complex{Float64}[3.9583795592771634e-52 - 9.695233714158177e-68im, 3.990121772925759e-52 - 9.772979714843386e-68im]
ell 1202, elapsed: 0.003256082534790039
ell 1201, elapsed: 2.6640889644622803
ell 1200, elapsed: 0.0010521411895751953
ell 1199, elapsed: 0.0009829998016357422
ell 1198, elapsed: 0.0008308887481689453
ell 1002, elapsed: 0.013418912887573242
ell 1001, elapsed: 0.0007059574127197266
ell 1000, elapsed: 0.000701904296875
ell 999, elapsed: 0.000701904296875
ell 998, elapsed: 0.0007059574127197266
ell 902, elapsed: 0.006980180740356445
ell 901, elapsed: 0.0007691383361816406
ell 900, elapsed: 0.0007688999176025391
ell 899, elapsed: 0.0006749629974365234
ell 898, elapsed: 0.0006699562072753906
ell 802, elapsed: 0.006582021713256836
ell 801, elapsed: 0.0006508827209472656
ell 800, elapsed: 0.0006320476531982422
ell 799, elapsed: 0.0006349086761474609
ell 798, elapsed: 0.0005679130554199219
ell 702, elapsed: 0.005734920501708984
ell 701, elapsed: 0.0005259513854980469
ell 700, elapsed: 0.0004570484161376953
ell 699, elapsed: 0.0004391670227050781
ell 698, elapsed: 0.00043702125549316406
ell 602, elapsed: 0.004372835159301758
ell 601, elapsed: 0.000392913818359375
ell 600, elapsed: 0.0003871917724609375
ell 599, elapsed: 0.0003819465637207031
ell 598, elapsed: 0.0004000663757324219
ell 502, elapsed: 0.004480123519897461
ell 501, elapsed: 0.0004100799560546875
ell 500, elapsed: 0.00038814544677734375
ell 499, elapsed: 0.00039196014404296875
ell 498, elapsed: 0.0003840923309326172
ell 402, elapsed: 0.004141092300415039
ell 401, elapsed: 0.0005290508270263672
ell 400, elapsed: 0.0005099773406982422
ell 399, elapsed: 0.0005118846893310547
ell 398, elapsed: 0.00048613548278808594
ell 302, elapsed: 0.005098819732666016
ell 301, elapsed: 0.0006120204925537109
ell 300, elapsed: 0.0004999637603759766
ell 299, elapsed: 0.0005102157592773438
ell 298, elapsed: 0.0005049705505371094
ell 202, elapsed: 0.005090951919555664
ell 201, elapsed: 0.0004911422729492188
ell 200, elapsed: 0.00048613548278808594
ell 199, elapsed: 0.0004858970642089844
ell 198, elapsed: 0.00048422813415527344
ell 152, elapsed: 0.0027332305908203125
ell 151, elapsed: 0.0004968643188476562
ell 150, elapsed: 0.00048804283142089844
ell 149, elapsed: 0.0005009174346923828
ell 148, elapsed: 0.0004830360412597656
ell 127, elapsed: 0.0017001628875732422
ell 126, elapsed: 0.0004878044128417969
ell 125, elapsed: 0.0005099773406982422
ell 124, elapsed: 0.0004990100860595703
ell 123, elapsed: 0.00047707557678222656
ell 114, elapsed: 0.0009090900421142578
ell 113, elapsed: 0.00048089027404785156
ell 112, elapsed: 0.00048613548278808594
ell 111, elapsed: 0.00046706199645996094
ell 110, elapsed: 0.0004870891571044922
ell 102, elapsed: 0.0010058879852294922
ell 101, elapsed: 0.0004978179931640625
ell 100, elapsed: 0.0004909038543701172
ell 99, elapsed: 0.000492095947265625
ell 98, elapsed: 0.0005159378051757812
ell 97, elapsed: 0.0005519390106201172
ell 96, elapsed: 0.0006940364837646484
ell 95, elapsed: 0.0005290508270263672
ell 94, elapsed: 0.0006098747253417969
ell 93, elapsed: 0.0005810260772705078
ell 92, elapsed: 0.0006458759307861328
ell 91, elapsed: 0.0005681514739990234
ell 90, elapsed: 0.0006608963012695312
ell 89, elapsed: 0.0005848407745361328
ell 88, elapsed: 0.0006680488586425781
ell 87, elapsed: 0.0005819797515869141
ell 86, elapsed: 0.0006630420684814453
ell 85, elapsed: 0.00057220458984375
ell 84, elapsed: 0.0007870197296142578
ell 83, elapsed: 0.0005660057067871094
ell 82, elapsed: 0.0006539821624755859
ell 81, elapsed: 0.0005688667297363281
ell 80, elapsed: 0.0006511211395263672
ell 79, elapsed: 0.0005769729614257812
ell 78, elapsed: 0.0006561279296875
ell 77, elapsed: 0.0005490779876708984
ell 76, elapsed: 0.0006420612335205078
ell 75, elapsed: 0.0005588531494140625
ell 74, elapsed: 0.0006439685821533203
ell 73, elapsed: 0.0007710456848144531
ell 72, elapsed: 0.0006999969482421875
ell 71, elapsed: 0.0005469322204589844
ell 70, elapsed: 0.0006530284881591797
ell 69, elapsed: 0.0005600452423095703
ell 68, elapsed: 0.0006210803985595703
ell 67, elapsed: 0.00055694580078125
ell 66, elapsed: 0.0006160736083984375
ell 65, elapsed: 0.0005450248718261719
ell 64, elapsed: 0.0005800724029541016
ell 63, elapsed: 0.00055694580078125
ell 62, elapsed: 0.0006330013275146484
ell 61, elapsed: 0.0004730224609375
ell 60, elapsed: 0.0006289482116699219
ell 59, elapsed: 0.0005369186401367188
ell 58, elapsed: 0.0005991458892822266
ell 57, elapsed: 0.0005578994750976562
ell 56, elapsed: 0.0006558895111083984
ell 55, elapsed: 0.0005640983581542969
ell 54, elapsed: 0.0006330013275146484
ell 53, elapsed: 0.0005710124969482422
ell 52, elapsed: 0.0006339550018310547
ell 51, elapsed: 0.0005478858947753906
ell 50, elapsed: 0.0006220340728759766
ell 49, elapsed: 0.0005609989166259766
ell 48, elapsed: 0.0005669593811035156
ell 47, elapsed: 0.0004718303680419922
ell 46, elapsed: 0.0006070137023925781
ell 45, elapsed: 0.0005509853363037109
ell 44, elapsed: 0.0006330013275146484
ell 43, elapsed: 0.0005571842193603516
ell 42, elapsed: 0.0006520748138427734
ell 41, elapsed: 0.0005559921264648438
ell 40, elapsed: 0.0006780624389648438
ell 39, elapsed: 0.0005271434783935547
ell 38, elapsed: 0.0006170272827148438
ell 37, elapsed: 0.0005590915679931641
ell 36, elapsed: 0.0006580352783203125
ell 35, elapsed: 0.0005428791046142578
ell 34, elapsed: 0.0006070137023925781
ell 33, elapsed: 0.00048613548278808594
ell 32, elapsed: 0.0005929470062255859
ell 31, elapsed: 0.0005600452423095703
ell 30, elapsed: 0.0005960464477539062
ell 29, elapsed: 0.0004858970642089844
ell 28, elapsed: 0.0005600452423095703
ell 27, elapsed: 0.0004851818084716797
ell 26, elapsed: 0.0006420612335205078
ell 25, elapsed: 0.0005648136138916016
ell 24, elapsed: 0.0006670951843261719
ell 23, elapsed: 0.0005490779876708984
ell 22, elapsed: 0.0006530284881591797
ell 21, elapsed: 0.0005691051483154297
ell 20, elapsed: 0.0006480216979980469
ell 19, elapsed: 0.0005640983581542969
ell 18, elapsed: 0.0006279945373535156
ell 17, elapsed: 0.0005631446838378906
ell 16, elapsed: 0.0006117820739746094
ell 15, elapsed: 0.0005590915679931641
ell 14, elapsed: 0.0006520748138427734
ell 13, elapsed: 0.0005619525909423828
ell 12, elapsed: 0.0006139278411865234
ell 11, elapsed: 0.0005691051483154297
ell 10, elapsed: 0.0006430149078369141
ell 9, elapsed: 0.0005528926849365234
ell 8, elapsed: 0.0006151199340820312
ell 7, elapsed: 0.0006260871887207031
ell 6, elapsed: 0.0006289482116699219
ell 5, elapsed: 0.0005397796630859375
ell 4, elapsed: 0.000640869140625
ell 3, elapsed: 0.0005679130554199219
ell 2, elapsed: 0.0006129741668701172
ell 1, elapsed: 0.0005550384521484375
ell 0, elapsed: 0.0006060600280761719
  2.984853 seconds (1.51 M allocations: 74.494 MiB, 1.34% gc time)
elapsed: 0.0017540454864501953
step:          0.781886 sec (477.89 k allocations: 23.729 MB, 0.0% gc time)
swapping:      0.000577 sec (0 allocations: 0 byte, 0.0% gc time)
calc_Mellell!: 0.658454 sec (371.439 k allocations: 18.4 MB, 0.0% gc time)
  t0 :  0.0 sec (0 allocations: 0 byte, 0.0% gc time)
  tm2 : 0.0 sec (0 allocations: 0 byte, 0.0% gc time)
  tm2s: 0.0 sec (0 allocations: 0 byte, 0.0% gc time)
  tm4 : 0.0 sec (0 allocations: 0 byte, 0.0% gc time)
  tp2 : 0.0 sec (0 allocations: 0 byte, 0.0% gc time)
  tp2s: 0.0 sec (0 allocations: 0 byte, 0.0% gc time)
  tp4 : 0.0 sec (0 allocations: 0 byte, 0.0% gc time)
calc_wtdll!:   1.3499 sec (571.762 k allocations: 28.059 MB, 2.95% gc time)
calc_wljj!:    0.003777 sec (6 allocations: 96 byte, 0.0% gc time)
mult_prefac!:  0.0 sec (0 allocations: 0 byte, 0.0% gc time)
convert:       0.0 sec (0 allocations: 0 byte, 0.0% gc time)
write:         0.00528 sec (0 allocations: 0 byte, 0.0% gc time)
test_rand_2f1: 0.0 sec (0 allocations: 0 byte, 0.0% gc time)
Closing outfile out/Ml21-cache.bin...   0.000128 seconds
  1.116096 seconds (8.63 k allocations: 420.063 KiB)
make_phi():   0.013856 seconds (8.20 k allocations: 238.016 KiB)
  0.229898 seconds (121.94 k allocations: 5.916 MiB)
tskip:       2.2e-5 sec (0 allocations: 0 byte, 0.0% gc time)
tread:       0.002816 sec (20 allocations: 2.188 KB, 0.0% gc time)
tmultphi:    0.043397 sec (26.146 k allocations: 1.344 MB, 0.0% gc time)
tbrfft:      0.004859 sec (896 allocations: 42.0 KB, 0.0% gc time)
tmultprefac: 0.019428 sec (0 allocations: 0 byte, 0.0% gc time)
toutfunc:    0.159271 sec (94.228 k allocations: 4.459 MB, 0.0% gc time)
Testing R=1.1 ... passed
Calculating fmax: 
  dlrec    = 4
  dlrecRg1 = -4
  q=1.1, R=1.0:	  0.015211 seconds (4.81 k allocations: 3.569 MiB)

  0.015431 seconds (4.87 k allocations: 3.601 MiB)
ℓ = 1202
Δℓ = 4
ΔℓRg1 = -4
N = 1600
q = 1.1
kmin = 1.0e-5
kmax = 100000.00000000004
χ0 = 0.023029999999999995
RR = RR.tsv
ℓmax = ℓmax.bin
f21 = f21.bin
kmin = 1.0e-5
kmax = 100000.0
dlrec    = 4
dlrecRg1 = -4
Output size: 61465536 bytes = 0.05724424123764038 GiB
Output size: 51264 bytes = 4.774332046508789e-5 GiB
Reading 'out/F21EllCache'...   0.001109 seconds (271 allocations: 84.719 KiB)
ellmax: 1202
lmaxcache: 1202
fell[:,1,1] = Complex{Float64}[809.6031528389767 - 1.9829558194077161e-13im, 0.0 + 0.0im]
ell 1202, elapsed: 0.00011801719665527344
ell 1201, elapsed: 0.013921976089477539
ell 1200, elapsed: 0.00048804283142089844
ell 1199, elapsed: 0.0004420280456542969
ell 1198, elapsed: 0.0004448890686035156
ell 1197, elapsed: 0.0005109310150146484
ell 1196, elapsed: 0.0004980564117431641
ell 1195, elapsed: 0.0005857944488525391
ell 1194, elapsed: 0.0004699230194091797
ell 1193, elapsed: 0.0005671977996826172
ell 1192, elapsed: 0.00047087669372558594
ell 1191, elapsed: 0.000492095947265625
ell 1190, elapsed: 0.0003600120544433594
ell 1189, elapsed: 0.00045609474182128906
ell 1188, elapsed: 0.00038504600524902344
ell 1187, elapsed: 0.0005338191986083984
ell 1186, elapsed: 0.0004360675811767578
ell 1185, elapsed: 0.0005428791046142578
ell 1184, elapsed: 0.0004470348358154297
ell 1183, elapsed: 0.0005540847778320312
ell 1182, elapsed: 0.00038814544677734375
ell 1181, elapsed: 0.0005781650543212891
ell 1180, elapsed: 0.0004749298095703125
ell 1179, elapsed: 0.0005331039428710938
ell 1178, elapsed: 0.0005240440368652344
ell 1177, elapsed: 0.0005750656127929688
ell 1176, elapsed: 0.00046706199645996094
ell 1175, elapsed: 0.0007770061492919922
ell 1174, elapsed: 0.00047206878662109375
ell 1173, elapsed: 0.0007131099700927734
ell 1172, elapsed: 0.0004849433898925781
ell 1171, elapsed: 0.0005791187286376953
ell 1170, elapsed: 0.00026798248291015625
ell 1169, elapsed: 0.0007998943328857422
ell 1168, elapsed: 0.0004668235778808594
ell 1167, elapsed: 0.0005671977996826172
ell 1166, elapsed: 0.0004620552062988281
ell 1165, elapsed: 0.0005609989166259766
ell 1164, elapsed: 0.00045609474182128906
ell 1163, elapsed: 0.0005631446838378906
ell 1162, elapsed: 0.00045299530029296875
ell 1161, elapsed: 0.0005469322204589844
ell 1160, elapsed: 0.0004570484161376953
ell 1159, elapsed: 0.0005528926849365234
ell 1158, elapsed: 0.00045299530029296875
ell 1157, elapsed: 0.0005650520324707031
ell 1156, elapsed: 0.00045609474182128906
ell 1155, elapsed: 0.0005559921264648438
ell 1154, elapsed: 0.00045990943908691406
ell 1153, elapsed: 0.0005598068237304688
ell 1152, elapsed: 0.00045800209045410156
ell 1151, elapsed: 0.0005509853363037109
ell 1150, elapsed: 0.0004699230194091797
ell 1149, elapsed: 0.0005509853363037109
ell 1148, elapsed: 0.00045299530029296875
ell 1147, elapsed: 0.0005500316619873047
ell 1146, elapsed: 0.0004601478576660156
ell 1145, elapsed: 0.0005490779876708984
ell 1144, elapsed: 0.0004551410675048828
ell 1143, elapsed: 0.01671004295349121
ell 1142, elapsed: 0.0004889965057373047
ell 1141, elapsed: 0.0005660057067871094
ell 1140, elapsed: 0.0004620552062988281
ell 1139, elapsed: 0.00055694580078125
ell 1138, elapsed: 0.0004570484161376953
ell 1137, elapsed: 0.0005519390106201172
ell 1136, elapsed: 0.00047206878662109375
ell 1135, elapsed: 0.0005540847778320312
ell 1134, elapsed: 0.000453948974609375
ell 1133, elapsed: 0.0005590915679931641
ell 1132, elapsed: 0.0004570484161376953
ell 1131, elapsed: 0.0005609989166259766
ell 1130, elapsed: 0.00045299530029296875
ell 1129, elapsed: 0.0005629062652587891
ell 1128, elapsed: 0.00045990943908691406
ell 1127, elapsed: 0.0005469322204589844
ell 1126, elapsed: 0.0004620552062988281
ell 1125, elapsed: 0.0005578994750976562
ell 1124, elapsed: 0.0004589557647705078
ell 1123, elapsed: 0.0005581378936767578
ell 1122, elapsed: 0.0004558563232421875
ell 1121, elapsed: 0.0005590915679931641
ell 1120, elapsed: 0.00045680999755859375
ell 1119, elapsed: 0.0005500316619873047
ell 1118, elapsed: 0.000453948974609375
ell 1117, elapsed: 0.0005509853363037109
ell 1116, elapsed: 0.0004608631134033203
ell 1115, elapsed: 0.01676487922668457
ell 1114, elapsed: 0.00046896934509277344
ell 1113, elapsed: 0.0005640983581542969
ell 1112, elapsed: 0.000453948974609375
ell 1111, elapsed: 0.0005450248718261719
ell 1110, elapsed: 0.00044083595275878906
ell 1109, elapsed: 0.0005660057067871094
ell 1108, elapsed: 0.0004608631134033203
ell 1107, elapsed: 0.0005509853363037109
ell 1106, elapsed: 0.0004570484161376953
ell 1105, elapsed: 0.0005528926849365234
ell 1104, elapsed: 0.0004508495330810547
ell 1103, elapsed: 0.0005459785461425781
ell 1102, elapsed: 0.0004680156707763672
ell 1101, elapsed: 0.0005638599395751953
ell 1100, elapsed: 0.00045108795166015625
ell 1099, elapsed: 0.0005519390106201172
ell 1098, elapsed: 0.0004551410675048828
ell 1097, elapsed: 0.0005500316619873047
ell 1096, elapsed: 0.0005950927734375
ell 1095, elapsed: 0.000720977783203125
ell 1094, elapsed: 0.000698089599609375
ell 1093, elapsed: 0.0008580684661865234
ell 1092, elapsed: 0.0004630088806152344
ell 1091, elapsed: 0.0005590915679931641
ell 1090, elapsed: 0.016546964645385742
ell 1089, elapsed: 0.0006299018859863281
ell 1088, elapsed: 0.000476837158203125
ell 1087, elapsed: 0.00055694580078125
ell 1086, elapsed: 0.0004601478576660156
ell 1085, elapsed: 0.00055694580078125
ell 1084, elapsed: 0.00045299530029296875
ell 1083, elapsed: 0.0005700588226318359
ell 1082, elapsed: 0.00045800209045410156
ell 1081, elapsed: 0.0005478858947753906
ell 1080, elapsed: 0.0004601478576660156
ell 1079, elapsed: 0.0005471706390380859
ell 1078, elapsed: 0.0004611015319824219
ell 1077, elapsed: 0.0005500316619873047
ell 1076, elapsed: 0.00047016143798828125
ell 1075, elapsed: 0.0005190372467041016
ell 1074, elapsed: 0.00045490264892578125
ell 1073, elapsed: 0.0005497932434082031
ell 1072, elapsed: 0.00045490264892578125
ell 1071, elapsed: 0.0005500316619873047
ell 1070, elapsed: 0.0004601478576660156
ell 1069, elapsed: 0.0005578994750976562
ell 1068, elapsed: 0.0004558563232421875
ell 1067, elapsed: 0.0005490779876708984
ell 1066, elapsed: 0.0004520416259765625
ell 1065, elapsed: 0.0005469322204589844
ell 1064, elapsed: 0.0004520416259765625
ell 1063, elapsed: 0.0005497932434082031
ell 1062, elapsed: 0.008692026138305664
ell 1061, elapsed: 0.0006139278411865234
ell 1060, elapsed: 0.0004639625549316406
ell 1059, elapsed: 0.0005669593811035156
ell 1058, elapsed: 0.0004961490631103516
ell 1057, elapsed: 0.0005178451538085938
ell 1056, elapsed: 0.0005409717559814453
ell 1055, elapsed: 0.0005929470062255859
ell 1054, elapsed: 0.0005218982696533203
ell 1053, elapsed: 0.0005719661712646484
ell 1052, elapsed: 0.000408172607421875
ell 1051, elapsed: 0.0005650520324707031
ell 1050, elapsed: 0.00039887428283691406
ell 1049, elapsed: 0.0005049705505371094
ell 1048, elapsed: 0.0005829334259033203
ell 1047, elapsed: 0.0005860328674316406
ell 1046, elapsed: 0.00038313865661621094
ell 1045, elapsed: 0.000553131103515625
ell 1044, elapsed: 0.0003979206085205078
ell 1043, elapsed: 0.0004990100860595703
ell 1042, elapsed: 0.0003790855407714844
ell 1041, elapsed: 0.000492095947265625
ell 1040, elapsed: 0.0003879070281982422
ell 1039, elapsed: 0.000476837158203125
ell 1038, elapsed: 0.000492095947265625
ell 1037, elapsed: 0.0005738735198974609
ell 1036, elapsed: 0.00047588348388671875
ell 1035, elapsed: 0.0005609989166259766
ell 1034, elapsed: 0.0004258155822753906
ell 1033, elapsed: 0.0005459785461425781
ell 1032, elapsed: 0.00047588348388671875
ell 1031, elapsed: 0.0005660057067871094
ell 1030, elapsed: 0.0004630088806152344
ell 1029, elapsed: 0.0005490779876708984
ell 1028, elapsed: 0.00046896934509277344
ell 1027, elapsed: 0.0005669593811035156
ell 1026, elapsed: 0.0004849433898925781
ell 1025, elapsed: 0.0005130767822265625
ell 1024, elapsed: 0.00038504600524902344
ell 1023, elapsed: 0.0005440711975097656
ell 1022, elapsed: 0.0004639625549316406
ell 1021, elapsed: 0.0005900859832763672
ell 1020, elapsed: 0.0004799365997314453
ell 1019, elapsed: 0.0005710124969482422
ell 1018, elapsed: 0.0004811286926269531
ell 1017, elapsed: 0.0008690357208251953
ell 1016, elapsed: 0.0004909038543701172
ell 1015, elapsed: 0.0005590915679931641
ell 1014, elapsed: 0.0004558563232421875
ell 1013, elapsed: 0.0005669593811035156
ell 1012, elapsed: 0.0004630088806152344
ell 1011, elapsed: 0.0005488395690917969
ell 1010, elapsed: 0.0004799365997314453
ell 1009, elapsed: 0.0005409717559814453
ell 1008, elapsed: 0.0004570484161376953
ell 1007, elapsed: 0.0005409717559814453
ell 1006, elapsed: 0.0004780292510986328
ell 1005, elapsed: 0.0005412101745605469
ell 1004, elapsed: 0.00047707557678222656
ell 1003, elapsed: 0.0005478858947753906
ell 1002, elapsed: 0.00047206878662109375
ell 1001, elapsed: 0.0005600452423095703
ell 1000, elapsed: 0.00047707557678222656
ell 999, elapsed: 0.0005800724029541016
ell 998, elapsed: 0.00040793418884277344
ell 997, elapsed: 0.0005230903625488281
ell 996, elapsed: 0.0004870891571044922
ell 995, elapsed: 0.0005450248718261719
ell 994, elapsed: 0.0004458427429199219
ell 993, elapsed: 0.0006430149078369141
ell 992, elapsed: 0.0005750656127929688
ell 991, elapsed: 0.0006051063537597656
ell 990, elapsed: 0.0004069805145263672
ell 989, elapsed: 0.0004799365997314453
ell 988, elapsed: 0.0003800392150878906
ell 987, elapsed: 0.00047707557678222656
ell 986, elapsed: 0.00037384033203125
ell 985, elapsed: 0.0004570484161376953
ell 984, elapsed: 0.00038504600524902344
ell 983, elapsed: 0.00047087669372558594
ell 982, elapsed: 0.00038886070251464844
ell 981, elapsed: 0.00046181678771972656
ell 980, elapsed: 0.0003840923309326172
ell 979, elapsed: 0.0004811286926269531
ell 978, elapsed: 0.0003788471221923828
ell 977, elapsed: 0.00047087669372558594
ell 976, elapsed: 0.0003769397735595703
ell 975, elapsed: 0.0004699230194091797
ell 974, elapsed: 0.0003750324249267578
ell 973, elapsed: 0.00045800209045410156
ell 972, elapsed: 0.00037288665771484375
ell 971, elapsed: 0.0004799365997314453
ell 970, elapsed: 0.0003781318664550781
ell 969, elapsed: 0.0004589557647705078
ell 968, elapsed: 0.0003879070281982422
ell 967, elapsed: 0.0004658699035644531
ell 966, elapsed: 0.0003809928894042969
ell 965, elapsed: 0.00046896934509277344
ell 964, elapsed: 0.0003790855407714844
ell 963, elapsed: 0.0004940032958984375
ell 962, elapsed: 0.0003750324249267578
ell 961, elapsed: 0.0004699230194091797
ell 960, elapsed: 0.00037384033203125
ell 959, elapsed: 0.0004639625549316406
ell 958, elapsed: 0.00038695335388183594
ell 957, elapsed: 0.0004630088806152344
ell 956, elapsed: 0.0003879070281982422
ell 955, elapsed: 0.00047206878662109375
ell 954, elapsed: 0.0004868507385253906
ell 953, elapsed: 0.0005788803100585938
ell 952, elapsed: 0.0003790855407714844
ell 951, elapsed: 0.0004620552062988281
ell 950, elapsed: 0.0003829002380371094
ell 949, elapsed: 0.000453948974609375
ell 948, elapsed: 0.0003819465637207031
ell 947, elapsed: 0.00047707557678222656
ell 946, elapsed: 0.00038504600524902344
ell 945, elapsed: 0.0004630088806152344
ell 944, elapsed: 0.00037789344787597656
ell 943, elapsed: 0.0004680156707763672
ell 942, elapsed: 0.00037598609924316406
ell 941, elapsed: 0.00047016143798828125
ell 940, elapsed: 0.0003800392150878906
ell 939, elapsed: 0.0004620552062988281
ell 938, elapsed: 0.0004889965057373047
ell 937, elapsed: 0.0005879402160644531
ell 936, elapsed: 0.0003800392150878906
ell 935, elapsed: 0.00047516822814941406
ell 934, elapsed: 0.0003809928894042969
ell 933, elapsed: 0.0004630088806152344
ell 932, elapsed: 0.0003821849822998047
ell 931, elapsed: 0.0004839897155761719
ell 930, elapsed: 0.00038909912109375
ell 929, elapsed: 0.0004520416259765625
ell 928, elapsed: 0.00037217140197753906
ell 927, elapsed: 0.0004458427429199219
ell 926, elapsed: 0.00037097930908203125
ell 925, elapsed: 0.0004520416259765625
ell 924, elapsed: 0.00037097930908203125
ell 923, elapsed: 0.0004458427429199219
ell 922, elapsed: 0.0003840923309326172
ell 921, elapsed: 0.0004458427429199219
ell 920, elapsed: 0.0004918575286865234
ell 919, elapsed: 0.0005750656127929688
ell 918, elapsed: 0.00037789344787597656
ell 917, elapsed: 0.0004611015319824219
ell 916, elapsed: 0.00037288665771484375
ell 915, elapsed: 0.00047397613525390625
ell 914, elapsed: 0.00037288665771484375
ell 913, elapsed: 0.0004620552062988281
ell 912, elapsed: 0.0003769397735595703
ell 911, elapsed: 0.0004630088806152344
ell 910, elapsed: 0.0003790855407714844
ell 909, elapsed: 0.0004620552062988281
ell 908, elapsed: 0.0003769397735595703
ell 907, elapsed: 0.00047016143798828125
ell 906, elapsed: 0.0003809928894042969
ell 905, elapsed: 0.0004601478576660156
ell 904, elapsed: 0.0003829002380371094
ell 903, elapsed: 0.00046896934509277344
ell 902, elapsed: 0.0003809928894042969
ell 901, elapsed: 0.0004799365997314453
ell 900, elapsed: 0.0003819465637207031
ell 899, elapsed: 0.000492095947265625
ell 898, elapsed: 0.0003910064697265625
ell 897, elapsed: 0.00045800209045410156
ell 896, elapsed: 0.0003788471221923828
ell 895, elapsed: 0.00046706199645996094
ell 894, elapsed: 0.0003829002380371094
ell 893, elapsed: 0.0004730224609375
ell 892, elapsed: 0.00037789344787597656
ell 891, elapsed: 0.0004589557647705078
ell 890, elapsed: 0.0003960132598876953
ell 889, elapsed: 0.00047016143798828125
ell 888, elapsed: 0.0003910064697265625
ell 887, elapsed: 0.0004620552062988281
ell 886, elapsed: 0.00037479400634765625
ell 885, elapsed: 0.00044798851013183594
ell 884, elapsed: 0.000370025634765625
ell 883, elapsed: 0.0006000995635986328
ell 882, elapsed: 0.000514984130859375
ell 881, elapsed: 0.0005180835723876953
ell 880, elapsed: 0.0006318092346191406
ell 879, elapsed: 0.0005400180816650391
ell 878, elapsed: 0.0004489421844482422
ell 877, elapsed: 0.0005249977111816406
ell 876, elapsed: 0.00044798851013183594
ell 875, elapsed: 0.0005340576171875
ell 874, elapsed: 0.0004489421844482422
ell 873, elapsed: 0.0005319118499755859
ell 872, elapsed: 0.0004382133483886719
ell 871, elapsed: 0.0005369186401367188
ell 870, elapsed: 0.00044798851013183594
ell 869, elapsed: 0.0005321502685546875
ell 868, elapsed: 0.0004229545593261719
ell 867, elapsed: 0.0005259513854980469
ell 866, elapsed: 0.00044608116149902344
ell 865, elapsed: 0.000537872314453125
ell 864, elapsed: 0.0004341602325439453
ell 863, elapsed: 0.0005300045013427734
ell 862, elapsed: 0.00043702125549316406
ell 861, elapsed: 0.0005261898040771484
ell 860, elapsed: 0.0004439353942871094
ell 859, elapsed: 0.0005300045013427734
ell 858, elapsed: 0.0004458427429199219
ell 857, elapsed: 0.0005249977111816406
ell 856, elapsed: 0.0004169940948486328
ell 855, elapsed: 0.0005159378051757812
ell 854, elapsed: 0.0004379749298095703
ell 853, elapsed: 0.0005328655242919922
ell 852, elapsed: 0.0004420280456542969
ell 851, elapsed: 0.0005481243133544922
ell 850, elapsed: 0.0005581378936767578
ell 849, elapsed: 0.0007038116455078125
ell 848, elapsed: 0.0005929470062255859
ell 847, elapsed: 0.0006928443908691406
ell 846, elapsed: 0.0006060600280761719
ell 845, elapsed: 0.0006890296936035156
ell 844, elapsed: 0.0005371570587158203
ell 843, elapsed: 0.0005421638488769531
ell 842, elapsed: 0.0004467964172363281
ell 841, elapsed: 0.0005021095275878906
ell 840, elapsed: 0.00043582916259765625
ell 839, elapsed: 0.0005300045013427734
ell 838, elapsed: 0.00043702125549316406
ell 837, elapsed: 0.0005249977111816406
ell 836, elapsed: 0.00043487548828125
ell 835, elapsed: 0.0006899833679199219
ell 834, elapsed: 0.0004520416259765625
ell 833, elapsed: 0.0005490779876708984
ell 832, elapsed: 0.00043201446533203125
ell 831, elapsed: 0.0006649494171142578
ell 830, elapsed: 0.0004551410675048828
ell 829, elapsed: 0.0005240440368652344
ell 828, elapsed: 0.0004329681396484375
ell 827, elapsed: 0.0005230903625488281
ell 826, elapsed: 0.00045108795166015625
ell 825, elapsed: 0.0005209445953369141
ell 824, elapsed: 0.00043892860412597656
ell 823, elapsed: 0.0004999637603759766
ell 822, elapsed: 0.0004379749298095703
ell 821, elapsed: 0.0005450248718261719
ell 820, elapsed: 0.0005559921264648438
ell 819, elapsed: 0.0005350112915039062
ell 818, elapsed: 0.0005109310150146484
ell 817, elapsed: 0.0007090568542480469
ell 816, elapsed: 0.0004138946533203125
ell 815, elapsed: 0.0005970001220703125
ell 814, elapsed: 0.0004699230194091797
ell 813, elapsed: 0.0006291866302490234
ell 812, elapsed: 0.0005059242248535156
ell 811, elapsed: 0.0006871223449707031
ell 810, elapsed: 0.0005440711975097656
ell 809, elapsed: 0.0005340576171875
ell 808, elapsed: 0.0005359649658203125
ell 807, elapsed: 0.0005218982696533203
ell 806, elapsed: 0.00036907196044921875
ell 805, elapsed: 0.0004088878631591797
ell 804, elapsed: 0.0002460479736328125
ell 803, elapsed: 0.00030612945556640625
ell 802, elapsed: 0.0002429485321044922
ell 801, elapsed: 0.0003440380096435547
ell 800, elapsed: 0.00039196014404296875
ell 799, elapsed: 0.0004801750183105469
ell 798, elapsed: 0.00037097930908203125
ell 797, elapsed: 0.0004658699035644531
ell 796, elapsed: 0.0003821849822998047
ell 795, elapsed: 0.0004730224609375
ell 794, elapsed: 0.0004699230194091797
ell 793, elapsed: 0.0007700920104980469
ell 792, elapsed: 0.0004839897155761719
ell 791, elapsed: 0.0005750656127929688
ell 790, elapsed: 0.0004849433898925781
ell 789, elapsed: 0.0004639625549316406
ell 788, elapsed: 0.0005030632019042969
ell 787, elapsed: 0.0006289482116699219
ell 786, elapsed: 0.0005090236663818359
ell 785, elapsed: 0.0005800724029541016
ell 784, elapsed: 0.0005140304565429688
ell 783, elapsed: 0.0005788803100585938
ell 782, elapsed: 0.0004940032958984375
ell 781, elapsed: 0.000701904296875
ell 780, elapsed: 0.0005979537963867188
ell 779, elapsed: 0.0006160736083984375
ell 778, elapsed: 0.00039005279541015625
ell 777, elapsed: 0.0006330013275146484
ell 776, elapsed: 0.0005509853363037109
ell 775, elapsed: 0.0006051063537597656
ell 774, elapsed: 0.0005548000335693359
ell 773, elapsed: 0.0006110668182373047
ell 772, elapsed: 0.0003879070281982422
ell 771, elapsed: 0.0005831718444824219
ell 770, elapsed: 0.0005002021789550781
ell 769, elapsed: 0.0005729198455810547
ell 768, elapsed: 0.0004889965057373047
ell 767, elapsed: 0.00046896934509277344
ell 766, elapsed: 0.00039505958557128906
ell 765, elapsed: 0.0004649162292480469
ell 764, elapsed: 0.0005490779876708984
ell 763, elapsed: 0.0005419254302978516
ell 762, elapsed: 0.00038909912109375
ell 761, elapsed: 0.0006470680236816406
ell 760, elapsed: 0.0005669593811035156
ell 759, elapsed: 0.0005528926849365234
ell 758, elapsed: 0.0005397796630859375
ell 757, elapsed: 0.0005400180816650391
ell 756, elapsed: 0.0005161762237548828
ell 755, elapsed: 0.0006999969482421875
ell 754, elapsed: 0.0005490779876708984
ell 753, elapsed: 0.0007960796356201172
ell 752, elapsed: 0.0006000995635986328
ell 751, elapsed: 0.0007991790771484375
ell 750, elapsed: 0.000720977783203125
ell 749, elapsed: 0.0006008148193359375
ell 748, elapsed: 0.0004131793975830078
ell 747, elapsed: 0.0004868507385253906
ell 746, elapsed: 0.00047898292541503906
ell 745, elapsed: 0.0005440711975097656
ell 744, elapsed: 0.0006730556488037109
ell 743, elapsed: 0.0006489753723144531
ell 742, elapsed: 0.00041794776916503906
ell 741, elapsed: 0.000476837158203125
ell 740, elapsed: 0.0005540847778320312
ell 739, elapsed: 0.0007729530334472656
ell 738, elapsed: 0.0006389617919921875
ell 737, elapsed: 0.0008490085601806641
ell 736, elapsed: 0.0005137920379638672
ell 735, elapsed: 0.0006399154663085938
ell 734, elapsed: 0.0004730224609375
ell 733, elapsed: 0.0007879734039306641
ell 732, elapsed: 0.0005130767822265625
ell 731, elapsed: 0.000637054443359375
ell 730, elapsed: 0.001051187515258789
ell 729, elapsed: 0.0008320808410644531
ell 728, elapsed: 0.00047898292541503906
ell 727, elapsed: 0.000576019287109375
ell 726, elapsed: 0.0004899501800537109
ell 725, elapsed: 0.0005719661712646484
ell 724, elapsed: 0.0004780292510986328
ell 723, elapsed: 0.0006718635559082031
ell 722, elapsed: 0.00043392181396484375
ell 721, elapsed: 0.0006639957427978516
ell 720, elapsed: 0.0005540847778320312
ell 719, elapsed: 0.0006330013275146484
ell 718, elapsed: 0.0005080699920654297
ell 717, elapsed: 0.000576019287109375
ell 716, elapsed: 0.0004711151123046875
ell 715, elapsed: 0.0006248950958251953
ell 714, elapsed: 0.0005769729614257812
ell 713, elapsed: 0.0007100105285644531
ell 712, elapsed: 0.0004971027374267578
ell 711, elapsed: 0.0005159378051757812
ell 710, elapsed: 0.00041794776916503906
ell 709, elapsed: 0.0005078315734863281
ell 708, elapsed: 0.00041794776916503906
ell 707, elapsed: 0.0004999637603759766
ell 706, elapsed: 0.0005869865417480469
ell 705, elapsed: 0.0005960464477539062
ell 704, elapsed: 0.0005881786346435547
ell 703, elapsed: 0.0006110668182373047
ell 702, elapsed: 0.00041103363037109375
ell 701, elapsed: 0.0005998611450195312
ell 700, elapsed: 0.0004639625549316406
ell 699, elapsed: 0.0006601810455322266
ell 698, elapsed: 0.0006010532379150391
ell 697, elapsed: 0.0005400180816650391
ell 696, elapsed: 0.0004279613494873047
ell 695, elapsed: 0.0006740093231201172
ell 694, elapsed: 0.0005891323089599609
ell 693, elapsed: 0.0006949901580810547
ell 692, elapsed: 0.0004999637603759766
ell 691, elapsed: 0.0006480216979980469
ell 690, elapsed: 0.0005350112915039062
ell 689, elapsed: 0.0005939006805419922
ell 688, elapsed: 0.0005850791931152344
ell 687, elapsed: 0.0007729530334472656
ell 686, elapsed: 0.0005860328674316406
ell 685, elapsed: 0.000576019287109375
ell 684, elapsed: 0.0004980564117431641
ell 683, elapsed: 0.0007359981536865234
ell 682, elapsed: 0.0004439353942871094
ell 681, elapsed: 0.0005040168762207031
ell 680, elapsed: 0.00046706199645996094
ell 679, elapsed: 0.0007448196411132812
ell 678, elapsed: 0.0005738735198974609
ell 677, elapsed: 0.0005960464477539062
ell 676, elapsed: 0.0005590915679931641
ell 675, elapsed: 0.0006821155548095703
ell 674, elapsed: 0.0006148815155029297
ell 673, elapsed: 0.0007328987121582031
ell 672, elapsed: 0.0005638599395751953
ell 671, elapsed: 0.0007770061492919922
ell 670, elapsed: 0.00042700767517089844
ell 669, elapsed: 0.0004780292510986328
ell 668, elapsed: 0.0004150867462158203
ell 667, elapsed: 0.0006508827209472656
ell 666, elapsed: 0.0005688667297363281
ell 665, elapsed: 0.0006899833679199219
ell 664, elapsed: 0.0006170272827148438
ell 663, elapsed: 0.0006978511810302734
ell 662, elapsed: 0.00046706199645996094
ell 661, elapsed: 0.0006721019744873047
ell 660, elapsed: 0.00043511390686035156
ell 659, elapsed: 0.0004901885986328125
ell 658, elapsed: 0.0004119873046875
ell 657, elapsed: 0.000492095947265625
ell 656, elapsed: 0.00040602684020996094
ell 655, elapsed: 0.0004699230194091797
ell 654, elapsed: 0.0005900859832763672
ell 653, elapsed: 0.0006139278411865234
ell 652, elapsed: 0.0005841255187988281
ell 651, elapsed: 0.0007169246673583984
ell 650, elapsed: 0.0004870891571044922
ell 649, elapsed: 0.0006108283996582031
ell 648, elapsed: 0.0006890296936035156
ell 647, elapsed: 0.0005979537963867188
ell 646, elapsed: 0.0005788803100585938
ell 645, elapsed: 0.0005779266357421875
ell 644, elapsed: 0.0005311965942382812
ell 643, elapsed: 0.0006530284881591797
ell 642, elapsed: 0.0005970001220703125
ell 641, elapsed: 0.0007250308990478516
ell 640, elapsed: 0.00051116943359375
ell 639, elapsed: 0.0007829666137695312
ell 638, elapsed: 0.0004448890686035156
ell 637, elapsed: 0.0006399154663085938
ell 636, elapsed: 0.0005137920379638672
ell 635, elapsed: 0.0005090236663818359
ell 634, elapsed: 0.0005450248718261719
ell 633, elapsed: 0.0006399154663085938
ell 632, elapsed: 0.00043702125549316406
ell 631, elapsed: 0.0005099773406982422
ell 630, elapsed: 0.0005249977111816406
ell 629, elapsed: 0.0006480216979980469
ell 628, elapsed: 0.0005519390106201172
ell 627, elapsed: 0.0006890296936035156
ell 626, elapsed: 0.0005381107330322266
ell 625, elapsed: 0.0006279945373535156
ell 624, elapsed: 0.0005321502685546875
ell 623, elapsed: 0.0006220340728759766
ell 622, elapsed: 0.0005509853363037109
ell 621, elapsed: 0.0007419586181640625
ell 620, elapsed: 0.0006330013275146484
ell 619, elapsed: 0.0006909370422363281
ell 618, elapsed: 0.0005199909210205078
ell 617, elapsed: 0.0006880760192871094
ell 616, elapsed: 0.0005860328674316406
ell 615, elapsed: 0.0008127689361572266
ell 614, elapsed: 0.0006811618804931641
ell 613, elapsed: 0.0006849765777587891
ell 612, elapsed: 0.0005080699920654297
ell 611, elapsed: 0.0007200241088867188
ell 610, elapsed: 0.0004398822784423828
ell 609, elapsed: 0.0006101131439208984
ell 608, elapsed: 0.0006489753723144531
ell 607, elapsed: 0.0006470680236816406
ell 606, elapsed: 0.0006060600280761719
ell 605, elapsed: 0.0005950927734375
ell 604, elapsed: 0.0004239082336425781
ell 603, elapsed: 0.0005099773406982422
ell 602, elapsed: 0.0004150867462158203
ell 601, elapsed: 0.0004999637603759766
ell 600, elapsed: 0.0004220008850097656
ell 599, elapsed: 0.0005221366882324219
ell 598, elapsed: 0.0004220008850097656
ell 597, elapsed: 0.0005130767822265625
ell 596, elapsed: 0.000408172607421875
ell 595, elapsed: 0.000518798828125
ell 594, elapsed: 0.0004298686981201172
ell 593, elapsed: 0.0006899833679199219
ell 592, elapsed: 0.0006499290466308594
ell 591, elapsed: 0.0007510185241699219
ell 590, elapsed: 0.0006048679351806641
ell 589, elapsed: 0.0007460117340087891
ell 588, elapsed: 0.0006289482116699219
ell 587, elapsed: 0.0006399154663085938
ell 586, elapsed: 0.0006132125854492188
ell 585, elapsed: 0.0005879402160644531
ell 584, elapsed: 0.0004150867462158203
ell 583, elapsed: 0.00061798095703125
ell 582, elapsed: 0.0005970001220703125
ell 581, elapsed: 0.0007538795471191406
ell 580, elapsed: 0.0004100799560546875
ell 579, elapsed: 0.0008189678192138672
ell 578, elapsed: 0.0007350444793701172
ell 577, elapsed: 0.0008502006530761719
ell 576, elapsed: 0.0007178783416748047
ell 575, elapsed: 0.0007169246673583984
ell 574, elapsed: 0.00047898292541503906
ell 573, elapsed: 0.0005769729614257812
ell 572, elapsed: 0.0005800724029541016
ell 571, elapsed: 0.0006229877471923828
ell 570, elapsed: 0.0006849765777587891
ell 569, elapsed: 0.0005559921264648438
ell 568, elapsed: 0.0004968643188476562
ell 567, elapsed: 0.0008459091186523438
ell 566, elapsed: 0.0007410049438476562
ell 565, elapsed: 0.0008358955383300781
ell 564, elapsed: 0.0007541179656982422
ell 563, elapsed: 0.0007030963897705078
ell 562, elapsed: 0.0006229877471923828
ell 561, elapsed: 0.0007610321044921875
ell 560, elapsed: 0.0007469654083251953
ell 559, elapsed: 0.0008552074432373047
ell 558, elapsed: 0.0004229545593261719
ell 557, elapsed: 0.0005791187286376953
ell 556, elapsed: 0.0004630088806152344
ell 555, elapsed: 0.0005431175231933594
ell 554, elapsed: 0.0007200241088867188
ell 553, elapsed: 0.0007669925689697266
ell 552, elapsed: 0.0006771087646484375
ell 551, elapsed: 0.0008020401000976562
ell 550, elapsed: 0.0006830692291259766
ell 549, elapsed: 0.0008480548858642578
ell 548, elapsed: 0.0006830692291259766
ell 547, elapsed: 0.0008070468902587891
ell 546, elapsed: 0.0006821155548095703
ell 545, elapsed: 0.0007410049438476562
ell 544, elapsed: 0.00047898292541503906
ell 543, elapsed: 0.0005772113800048828
ell 542, elapsed: 0.0004820823669433594
ell 541, elapsed: 0.0007181167602539062
ell 540, elapsed: 0.0006680488586425781
ell 539, elapsed: 0.0008289813995361328
ell 538, elapsed: 0.0006830692291259766
ell 537, elapsed: 0.0007569789886474609
ell 536, elapsed: 0.0004980564117431641
ell 535, elapsed: 0.0007870197296142578
ell 534, elapsed: 0.0004608631134033203
ell 533, elapsed: 0.0005729198455810547
ell 532, elapsed: 0.0004298686981201172
ell 531, elapsed: 0.0005340576171875
ell 530, elapsed: 0.0004448890686035156
ell 529, elapsed: 0.0005369186401367188
ell 528, elapsed: 0.00044798851013183594
ell 527, elapsed: 0.0005538463592529297
ell 526, elapsed: 0.0004711151123046875
ell 525, elapsed: 0.0008409023284912109
ell 524, elapsed: 0.0005009174346923828
ell 523, elapsed: 0.0008330345153808594
ell 522, elapsed: 0.0007021427154541016
ell 521, elapsed: 0.0008509159088134766
ell 520, elapsed: 0.00047206878662109375
ell 519, elapsed: 0.0005900859832763672
ell 518, elapsed: 0.0005059242248535156
ell 517, elapsed: 0.0005929470062255859
ell 516, elapsed: 0.00047206878662109375
ell 515, elapsed: 0.0008451938629150391
ell 514, elapsed: 0.0006542205810546875
ell 513, elapsed: 0.0008189678192138672
ell 512, elapsed: 0.0007050037384033203
ell 511, elapsed: 0.0005509853363037109
ell 510, elapsed: 0.000453948974609375
ell 509, elapsed: 0.0008139610290527344
ell 508, elapsed: 0.0006129741668701172
ell 507, elapsed: 0.0007839202880859375
ell 506, elapsed: 0.0006971359252929688
ell 505, elapsed: 0.0008530616760253906
ell 504, elapsed: 0.0007281303405761719
ell 503, elapsed: 0.0005869865417480469
ell 502, elapsed: 0.0006489753723144531
ell 501, elapsed: 0.0008268356323242188
ell 500, elapsed: 0.0006999969482421875
ell 499, elapsed: 0.0007348060607910156
ell 498, elapsed: 0.0006959438323974609
ell 497, elapsed: 0.0008099079132080078
ell 496, elapsed: 0.0006618499755859375
ell 495, elapsed: 0.0007498264312744141
ell 494, elapsed: 0.0004990100860595703
ell 493, elapsed: 0.0008227825164794922
ell 492, elapsed: 0.0007300376892089844
ell 491, elapsed: 0.0008141994476318359
ell 490, elapsed: 0.0007369518280029297
ell 489, elapsed: 0.000743865966796875
ell 488, elapsed: 0.0007200241088867188
ell 487, elapsed: 0.0008289813995361328
ell 486, elapsed: 0.0006361007690429688
ell 485, elapsed: 0.0008261203765869141
ell 484, elapsed: 0.00047206878662109375
ell 483, elapsed: 0.0005638599395751953
ell 482, elapsed: 0.0004858970642089844
ell 481, elapsed: 0.0007920265197753906
ell 480, elapsed: 0.0007028579711914062
ell 479, elapsed: 0.0008080005645751953
ell 478, elapsed: 0.0004990100860595703
ell 477, elapsed: 0.0008089542388916016
ell 476, elapsed: 0.0005919933319091797
ell 475, elapsed: 0.0007588863372802734
ell 474, elapsed: 0.0007059574127197266
ell 473, elapsed: 0.0007998943328857422
ell 472, elapsed: 0.0006430149078369141
ell 471, elapsed: 0.0008139610290527344
ell 470, elapsed: 0.000720977783203125
ell 469, elapsed: 0.0005879402160644531
ell 468, elapsed: 0.0007050037384033203
ell 467, elapsed: 0.0005931854248046875
ell 466, elapsed: 0.0006890296936035156
ell 465, elapsed: 0.0008051395416259766
ell 464, elapsed: 0.0004100799560546875
ell 463, elapsed: 0.0006561279296875
ell 462, elapsed: 0.0005240440368652344
ell 461, elapsed: 0.0006020069122314453
ell 460, elapsed: 0.0005269050598144531
ell 459, elapsed: 0.0006229877471923828
ell 458, elapsed: 0.0006010532379150391
ell 457, elapsed: 0.0005509853363037109
ell 456, elapsed: 0.0003879070281982422
ell 455, elapsed: 0.0006051063537597656
ell 454, elapsed: 0.0004551410675048828
ell 453, elapsed: 0.0006749629974365234
ell 452, elapsed: 0.0007200241088867188
ell 451, elapsed: 0.0007219314575195312
ell 450, elapsed: 0.0006160736083984375
ell 449, elapsed: 0.0006198883056640625
ell 448, elapsed: 0.0006480216979980469
ell 447, elapsed: 0.0007588863372802734
ell 446, elapsed: 0.0004639625549316406
ell 445, elapsed: 0.0005159378051757812
ell 444, elapsed: 0.0004420280456542969
ell 443, elapsed: 0.0007560253143310547
ell 442, elapsed: 0.0006091594696044922
ell 441, elapsed: 0.0007739067077636719
ell 440, elapsed: 0.0006449222564697266
ell 439, elapsed: 0.0005409717559814453
ell 438, elapsed: 0.0004420280456542969
ell 437, elapsed: 0.0007009506225585938
ell 436, elapsed: 0.0006601810455322266
ell 435, elapsed: 0.0007040500640869141
ell 434, elapsed: 0.0004620552062988281
ell 433, elapsed: 0.0007219314575195312
ell 432, elapsed: 0.0005979537963867188
ell 431, elapsed: 0.000759124755859375
ell 430, elapsed: 0.0004811286926269531
ell 429, elapsed: 0.0005180835723876953
ell 428, elapsed: 0.000576019287109375
ell 427, elapsed: 0.0005960464477539062
ell 426, elapsed: 0.00047397613525390625
ell 425, elapsed: 0.0007028579711914062
ell 424, elapsed: 0.0005168914794921875
ell 423, elapsed: 0.0006339550018310547
ell 422, elapsed: 0.00047707557678222656
ell 421, elapsed: 0.0004742145538330078
ell 420, elapsed: 0.0005438327789306641
ell 419, elapsed: 0.000598907470703125
ell 418, elapsed: 0.0005500316619873047
ell 417, elapsed: 0.0005359649658203125
ell 416, elapsed: 0.0005018711090087891
ell 415, elapsed: 0.0005829334259033203
ell 414, elapsed: 0.0003910064697265625
ell 413, elapsed: 0.0004680156707763672
ell 412, elapsed: 0.0003871917724609375
ell 411, elapsed: 0.0007641315460205078
ell 410, elapsed: 0.0004329681396484375
ell 409, elapsed: 0.0005648136138916016
ell 408, elapsed: 0.0005300045013427734
ell 407, elapsed: 0.0006630420684814453
ell 406, elapsed: 0.0004949569702148438
ell 405, elapsed: 0.0006070137023925781
ell 404, elapsed: 0.0006129741668701172
ell 403, elapsed: 0.0007200241088867188
ell 402, elapsed: 0.0005300045013427734
ell 401, elapsed: 0.000698089599609375
ell 400, elapsed: 0.0004639625549316406
ell 399, elapsed: 0.0004820823669433594
ell 398, elapsed: 0.0003879070281982422
ell 397, elapsed: 0.0004591941833496094
ell 396, elapsed: 0.00037217140197753906
ell 395, elapsed: 0.0004570484161376953
ell 394, elapsed: 0.0005049705505371094
ell 393, elapsed: 0.0005550384521484375
ell 392, elapsed: 0.00037980079650878906
ell 391, elapsed: 0.0006611347198486328
ell 390, elapsed: 0.0004780292510986328
ell 389, elapsed: 0.0006120204925537109
ell 388, elapsed: 0.0004999637603759766
ell 387, elapsed: 0.0007238388061523438
ell 386, elapsed: 0.0005269050598144531
ell 385, elapsed: 0.000614166259765625
ell 384, elapsed: 0.0005540847778320312
ell 383, elapsed: 0.0004968643188476562
ell 382, elapsed: 0.0005571842193603516
ell 381, elapsed: 0.0004980564117431641
ell 380, elapsed: 0.0003910064697265625
ell 379, elapsed: 0.0006401538848876953
ell 378, elapsed: 0.0004661083221435547
ell 377, elapsed: 0.0007061958312988281
ell 376, elapsed: 0.0004050731658935547
ell 375, elapsed: 0.00046706199645996094
ell 374, elapsed: 0.0005490779876708984
ell 373, elapsed: 0.0005559921264648438
ell 372, elapsed: 0.00047779083251953125
ell 371, elapsed: 0.0006151199340820312
ell 370, elapsed: 0.0005881786346435547
ell 369, elapsed: 0.0006499290466308594
ell 368, elapsed: 0.0004210472106933594
ell 367, elapsed: 0.0005681514739990234
ell 366, elapsed: 0.0004971027374267578
ell 365, elapsed: 0.0004868507385253906
ell 364, elapsed: 0.0005190372467041016
ell 363, elapsed: 0.0005249977111816406
ell 362, elapsed: 0.0004930496215820312
ell 361, elapsed: 0.0008270740509033203
ell 360, elapsed: 0.0005152225494384766
ell 359, elapsed: 0.0005478858947753906
ell 358, elapsed: 0.000514984130859375
ell 357, elapsed: 0.0006899833679199219
ell 356, elapsed: 0.0005309581756591797
ell 355, elapsed: 0.0007081031799316406
ell 354, elapsed: 0.0005528926849365234
ell 353, elapsed: 0.0006151199340820312
ell 352, elapsed: 0.0006260871887207031
ell 351, elapsed: 0.0006749629974365234
ell 350, elapsed: 0.0005609989166259766
ell 349, elapsed: 0.0005011558532714844
ell 348, elapsed: 0.00037598609924316406
ell 347, elapsed: 0.00047898292541503906
ell 346, elapsed: 0.0003769397735595703
ell 345, elapsed: 0.00047278404235839844
ell 344, elapsed: 0.0004971027374267578
ell 343, elapsed: 0.0006041526794433594
ell 342, elapsed: 0.0004978179931640625
ell 341, elapsed: 0.0006890296936035156
ell 340, elapsed: 0.0004968643188476562
ell 339, elapsed: 0.0007059574127197266
ell 338, elapsed: 0.0005190372467041016
ell 337, elapsed: 0.0006811618804931641
ell 336, elapsed: 0.0005218982696533203
ell 335, elapsed: 0.0005128383636474609
ell 334, elapsed: 0.0003910064697265625
ell 333, elapsed: 0.0006558895111083984
ell 332, elapsed: 0.0005249977111816406
ell 331, elapsed: 0.0007081031799316406
ell 330, elapsed: 0.00041484832763671875
ell 329, elapsed: 0.0006420612335205078
ell 328, elapsed: 0.00046706199645996094
ell 327, elapsed: 0.0007770061492919922
ell 326, elapsed: 0.0003991127014160156
ell 325, elapsed: 0.0005729198455810547
ell 324, elapsed: 0.0005371570587158203
ell 323, elapsed: 0.0006210803985595703
ell 322, elapsed: 0.0005350112915039062
ell 321, elapsed: 0.0005879402160644531
ell 320, elapsed: 0.0005519390106201172
ell 319, elapsed: 0.0006859302520751953
ell 318, elapsed: 0.0004780292510986328
ell 317, elapsed: 0.0007138252258300781
ell 316, elapsed: 0.0005021095275878906
ell 315, elapsed: 0.0005121231079101562
ell 314, elapsed: 0.0005280971527099609
ell 313, elapsed: 0.0006110668182373047
ell 312, elapsed: 0.0005559921264648438
ell 311, elapsed: 0.00061798095703125
ell 310, elapsed: 0.0005960464477539062
ell 309, elapsed: 0.0006589889526367188
ell 308, elapsed: 0.0005438327789306641
ell 307, elapsed: 0.0006930828094482422
ell 306, elapsed: 0.0005600452423095703
ell 305, elapsed: 0.0005810260772705078
ell 304, elapsed: 0.00038909912109375
ell 303, elapsed: 0.00047016143798828125
ell 302, elapsed: 0.0003771781921386719
ell 301, elapsed: 0.0004799365997314453
ell 300, elapsed: 0.0003910064697265625
ell 299, elapsed: 0.0006368160247802734
ell 298, elapsed: 0.00042891502380371094
ell 297, elapsed: 0.0007200241088867188
ell 296, elapsed: 0.00047397613525390625
ell 295, elapsed: 0.0005280971527099609
ell 294, elapsed: 0.0006558895111083984
ell 293, elapsed: 0.0006949901580810547
ell 292, elapsed: 0.0005548000335693359
ell 291, elapsed: 0.0007510185241699219
ell 290, elapsed: 0.0004069805145263672
ell 289, elapsed: 0.0006220340728759766
ell 288, elapsed: 0.000453948974609375
ell 287, elapsed: 0.0006248950958251953
ell 286, elapsed: 0.0005638599395751953
ell 285, elapsed: 0.0007131099700927734
ell 284, elapsed: 0.00041604042053222656
ell 283, elapsed: 0.0006461143493652344
ell 282, elapsed: 0.000469207763671875
ell 281, elapsed: 0.0006749629974365234
ell 280, elapsed: 0.0004200935363769531
ell 279, elapsed: 0.0006201267242431641
ell 278, elapsed: 0.0005941390991210938
ell 277, elapsed: 0.0005791187286376953
ell 276, elapsed: 0.0003871917724609375
ell 275, elapsed: 0.0006649494171142578
ell 274, elapsed: 0.0004730224609375
ell 273, elapsed: 0.0006530284881591797
ell 272, elapsed: 0.0005900859832763672
ell 271, elapsed: 0.0005631446838378906
ell 270, elapsed: 0.0005381107330322266
ell 269, elapsed: 0.0006310939788818359
ell 268, elapsed: 0.0004601478576660156
ell 267, elapsed: 0.0006279945373535156
ell 266, elapsed: 0.0005300045013427734
ell 265, elapsed: 0.0005779266357421875
ell 264, elapsed: 0.0005288124084472656
ell 263, elapsed: 0.0007100105285644531
ell 262, elapsed: 0.0005931854248046875
ell 261, elapsed: 0.0007030963897705078
ell 260, elapsed: 0.0005059242248535156
ell 259, elapsed: 0.0006420612335205078
ell 258, elapsed: 0.0005049705505371094
ell 257, elapsed: 0.0006730556488037109
ell 256, elapsed: 0.0006079673767089844
ell 255, elapsed: 0.0007100105285644531
ell 254, elapsed: 0.0006139278411865234
ell 253, elapsed: 0.0005700588226318359
ell 252, elapsed: 0.00039386749267578125
ell 251, elapsed: 0.0004930496215820312
ell 250, elapsed: 0.00037789344787597656
ell 249, elapsed: 0.0004608631134033203
ell 248, elapsed: 0.0003769397735595703
ell 247, elapsed: 0.00046706199645996094
ell 246, elapsed: 0.0005381107330322266
ell 245, elapsed: 0.0005598068237304688
ell 244, elapsed: 0.0004999637603759766
ell 243, elapsed: 0.0005941390991210938
ell 242, elapsed: 0.00047016143798828125
ell 241, elapsed: 0.0007059574127197266
ell 240, elapsed: 0.0004961490631103516
ell 239, elapsed: 0.0005571842193603516
ell 238, elapsed: 0.0006070137023925781
ell 237, elapsed: 0.0006210803985595703
ell 236, elapsed: 0.0004451274871826172
ell 235, elapsed: 0.000701904296875
ell 234, elapsed: 0.00045609474182128906
ell 233, elapsed: 0.0004661083221435547
ell 232, elapsed: 0.0003859996795654297
ell 231, elapsed: 0.0006690025329589844
ell 230, elapsed: 0.0006248950958251953
ell 229, elapsed: 0.0004849433898925781
ell 228, elapsed: 0.0005550384521484375
ell 227, elapsed: 0.0004949569702148438
ell 226, elapsed: 0.0005991458892822266
ell 225, elapsed: 0.0004870891571044922
ell 224, elapsed: 0.0005409717559814453
ell 223, elapsed: 0.0005450248718261719
ell 222, elapsed: 0.00038909912109375
ell 221, elapsed: 0.0004868507385253906
ell 220, elapsed: 0.0005218982696533203
ell 219, elapsed: 0.0006628036499023438
ell 218, elapsed: 0.000408172607421875
ell 217, elapsed: 0.0004799365997314453
ell 216, elapsed: 0.0005719661712646484
ell 215, elapsed: 0.000637054443359375
ell 214, elapsed: 0.0005190372467041016
ell 213, elapsed: 0.0005240440368652344
ell 212, elapsed: 0.0005497932434082031
ell 211, elapsed: 0.0006799697875976562
ell 210, elapsed: 0.0005519390106201172
ell 209, elapsed: 0.0007328987121582031
ell 208, elapsed: 0.0005359649658203125
ell 207, elapsed: 0.0006361007690429688
ell 206, elapsed: 0.0006020069122314453
ell 205, elapsed: 0.0006530284881591797
ell 204, elapsed: 0.00040221214294433594
ell 203, elapsed: 0.0004940032958984375
ell 202, elapsed: 0.0003979206085205078
ell 201, elapsed: 0.00046706199645996094
ell 200, elapsed: 0.0003681182861328125
ell 199, elapsed: 0.00047087669372558594
ell 198, elapsed: 0.0003769397735595703
ell 197, elapsed: 0.0006380081176757812
ell 196, elapsed: 0.0004999637603759766
ell 195, elapsed: 0.0006690025329589844
ell 194, elapsed: 0.0005428791046142578
ell 193, elapsed: 0.0007658004760742188
ell 192, elapsed: 0.0005881786346435547
ell 191, elapsed: 0.0006439685821533203
ell 190, elapsed: 0.0004239082336425781
ell 189, elapsed: 0.0004711151123046875
ell 188, elapsed: 0.0004949569702148438
ell 187, elapsed: 0.0006749629974365234
ell 186, elapsed: 0.0005779266357421875
ell 185, elapsed: 0.0006818771362304688
ell 184, elapsed: 0.0004050731658935547
ell 183, elapsed: 0.000820159912109375
ell 182, elapsed: 0.0005648136138916016
ell 181, elapsed: 0.0008208751678466797
ell 180, elapsed: 0.00040912628173828125
ell 179, elapsed: 0.0006158351898193359
ell 178, elapsed: 0.0005249977111816406
ell 177, elapsed: 0.0004858970642089844
ell 176, elapsed: 0.0005240440368652344
ell 175, elapsed: 0.000637054443359375
ell 174, elapsed: 0.0004839897155761719
ell 173, elapsed: 0.0006129741668701172
ell 172, elapsed: 0.0005469322204589844
ell 171, elapsed: 0.0007040500640869141
ell 170, elapsed: 0.0005190372467041016
ell 169, elapsed: 0.0006110668182373047
ell 168, elapsed: 0.0004711151123046875
ell 167, elapsed: 0.0006630420684814453
ell 166, elapsed: 0.0006010532379150391
ell 165, elapsed: 0.0006999969482421875
ell 164, elapsed: 0.00048613548278808594
ell 163, elapsed: 0.0005979537963867188
ell 162, elapsed: 0.0006170272827148438
ell 161, elapsed: 0.0007500648498535156
ell 160, elapsed: 0.0006470680236816406
ell 159, elapsed: 0.0004961490631103516
ell 158, elapsed: 0.0006542205810546875
ell 157, elapsed: 0.000720977783203125
ell 156, elapsed: 0.0004677772521972656
ell 155, elapsed: 0.0005519390106201172
ell 154, elapsed: 0.00045609474182128906
ell 153, elapsed: 0.0005362033843994141
ell 152, elapsed: 0.0005900859832763672
ell 151, elapsed: 0.0006871223449707031
ell 150, elapsed: 0.0005068778991699219
ell 149, elapsed: 0.0008060932159423828
ell 148, elapsed: 0.0007081031799316406
ell 147, elapsed: 0.0008211135864257812
ell 146, elapsed: 0.0006940364837646484
ell 145, elapsed: 0.0005691051483154297
ell 144, elapsed: 0.0004858970642089844
ell 143, elapsed: 0.0007779598236083984
ell 142, elapsed: 0.0005049705505371094
ell 141, elapsed: 0.0008389949798583984
ell 140, elapsed: 0.0005071163177490234
ell 139, elapsed: 0.0007238388061523438
ell 138, elapsed: 0.000675201416015625
ell 137, elapsed: 0.0007839202880859375
ell 136, elapsed: 0.0004589557647705078
ell 135, elapsed: 0.0005319118499755859
ell 134, elapsed: 0.0004470348358154297
ell 133, elapsed: 0.0005331039428710938
ell 132, elapsed: 0.0004570484161376953
ell 131, elapsed: 0.0005700588226318359
ell 130, elapsed: 0.0006628036499023438
ell 129, elapsed: 0.000823974609375
ell 128, elapsed: 0.0006608963012695312
ell 127, elapsed: 0.00061798095703125
ell 126, elapsed: 0.0004899501800537109
ell 125, elapsed: 0.0005900859832763672
ell 124, elapsed: 0.0006651878356933594
ell 123, elapsed: 0.0008380413055419922
ell 122, elapsed: 0.0006577968597412109
ell 121, elapsed: 0.0008587837219238281
ell 120, elapsed: 0.000698089599609375
ell 119, elapsed: 0.0008571147918701172
ell 118, elapsed: 0.0004839897155761719
ell 117, elapsed: 0.0006229877471923828
ell 116, elapsed: 0.0005009174346923828
ell 115, elapsed: 0.0006239414215087891
ell 114, elapsed: 0.0004858970642089844
ell 113, elapsed: 0.0005979537963867188
ell 112, elapsed: 0.00045800209045410156
ell 111, elapsed: 0.0007748603820800781
ell 110, elapsed: 0.000659942626953125
ell 109, elapsed: 0.0007572174072265625
ell 108, elapsed: 0.0006220340728759766
ell 107, elapsed: 0.0007240772247314453
ell 106, elapsed: 0.0006120204925537109
ell 105, elapsed: 0.0008208751678466797
ell 104, elapsed: 0.0004980564117431641
ell 103, elapsed: 0.0007469654083251953
ell 102, elapsed: 0.0006659030914306641
ell 101, elapsed: 0.0007860660552978516
ell 100, elapsed: 0.0004839897155761719
ell 99, elapsed: 0.0007259845733642578
ell 98, elapsed: 0.0004799365997314453
ell 97, elapsed: 0.0007741451263427734
ell 96, elapsed: 0.0006928443908691406
ell 95, elapsed: 0.0008330345153808594
ell 94, elapsed: 0.00043511390686035156
ell 93, elapsed: 0.0006690025329589844
ell 92, elapsed: 0.0005328655242919922
ell 91, elapsed: 0.0007150173187255859
ell 90, elapsed: 0.00044083595275878906
ell 89, elapsed: 0.0005719661712646484
ell 88, elapsed: 0.000598907470703125
ell 87, elapsed: 0.0005478858947753906
ell 86, elapsed: 0.0005409717559814453
ell 85, elapsed: 0.0005421638488769531
ell 84, elapsed: 0.0005102157592773438
ell 83, elapsed: 0.0005960464477539062
ell 82, elapsed: 0.00039386749267578125
ell 81, elapsed: 0.0006020069122314453
ell 80, elapsed: 0.0006411075592041016
ell 79, elapsed: 0.0007081031799316406
ell 78, elapsed: 0.0004711151123046875
ell 77, elapsed: 0.0004761219024658203
ell 76, elapsed: 0.0004050731658935547
ell 75, elapsed: 0.0004589557647705078
ell 74, elapsed: 0.0003681182861328125
ell 73, elapsed: 0.0004620552062988281
ell 72, elapsed: 0.0003688335418701172
ell 71, elapsed: 0.00047588348388671875
ell 70, elapsed: 0.0005340576171875
ell 69, elapsed: 0.0005438327789306641
ell 68, elapsed: 0.0005140304565429688
ell 67, elapsed: 0.0006210803985595703
ell 66, elapsed: 0.0003991127014160156
ell 65, elapsed: 0.0004680156707763672
ell 64, elapsed: 0.0004999637603759766
ell 63, elapsed: 0.0005929470062255859
ell 62, elapsed: 0.0003960132598876953
ell 61, elapsed: 0.0005559921264648438
ell 60, elapsed: 0.0006139278411865234
ell 59, elapsed: 0.0006201267242431641
ell 58, elapsed: 0.0005509853363037109
ell 57, elapsed: 0.0005390644073486328
ell 56, elapsed: 0.0005528926849365234
ell 55, elapsed: 0.0007259845733642578
ell 54, elapsed: 0.0005738735198974609
ell 53, elapsed: 0.0005879402160644531
ell 52, elapsed: 0.0005419254302978516
ell 51, elapsed: 0.0006220340728759766
ell 50, elapsed: 0.0004649162292480469
ell 49, elapsed: 0.0006418228149414062
ell 48, elapsed: 0.0005228519439697266
ell 47, elapsed: 0.0005290508270263672
ell 46, elapsed: 0.0003790855407714844
ell 45, elapsed: 0.0004570484161376953
ell 44, elapsed: 0.0005400180816650391
ell 43, elapsed: 0.0005218982696533203
ell 42, elapsed: 0.013077974319458008
ell 41, elapsed: 0.0005211830139160156
ell 40, elapsed: 0.0004019737243652344
ell 39, elapsed: 0.0004868507385253906
ell 38, elapsed: 0.0003948211669921875
ell 37, elapsed: 0.00046896934509277344
ell 36, elapsed: 0.00044989585876464844
ell 35, elapsed: 0.0004839897155761719
ell 34, elapsed: 0.00039386749267578125
ell 33, elapsed: 0.0004780292510986328
ell 32, elapsed: 0.0003879070281982422
ell 31, elapsed: 0.0004630088806152344
ell 30, elapsed: 0.0003829002380371094
ell 29, elapsed: 0.0004711151123046875
ell 28, elapsed: 0.0003979206085205078
ell 27, elapsed: 0.0004780292510986328
ell 26, elapsed: 0.0004010200500488281
ell 25, elapsed: 0.0004680156707763672
ell 24, elapsed: 0.00037789344787597656
ell 23, elapsed: 0.00046896934509277344
ell 22, elapsed: 0.00038695335388183594
ell 21, elapsed: 0.00045800209045410156
ell 20, elapsed: 0.0003998279571533203
ell 19, elapsed: 0.00046706199645996094
ell 18, elapsed: 0.0005588531494140625
ell 17, elapsed: 0.0005238056182861328
ell 16, elapsed: 0.0003879070281982422
ell 15, elapsed: 0.00047087669372558594
ell 14, elapsed: 0.0003859996795654297
ell 13, elapsed: 0.016596078872680664
ell 12, elapsed: 0.0004119873046875
ell 11, elapsed: 0.00048613548278808594
ell 10, elapsed: 0.00038695335388183594
ell 9, elapsed: 0.00047707557678222656
ell 8, elapsed: 0.00038504600524902344
ell 7, elapsed: 0.0004658699035644531
ell 6, elapsed: 0.00038814544677734375
ell 5, elapsed: 0.0004909038543701172
ell 4, elapsed: 0.00039315223693847656
ell 3, elapsed: 0.0004611015319824219
ell 2, elapsed: 0.0003650188446044922
ell 1, elapsed: 0.0004601478576660156
ell 0, elapsed: 0.0005571842193603516
  1.045578 seconds (56.99 k allocations: 2.783 MiB)
elapsed: 0.0014259815216064453
step:          0.095528 sec (0 allocations: 0 byte, 0.0% gc time)
swapping:      0.000994 sec (0 allocations: 0 byte, 0.0% gc time)
calc_Mellell!: 0.012093 sec (0 allocations: 0 byte, 0.0% gc time)
  t0 :  0.003006 sec (0 allocations: 0 byte, 0.0% gc time)
  tm2 : 0.14008 sec (0 allocations: 0 byte, 0.0% gc time)
  tm2s: 0.002214 sec (0 allocations: 0 byte, 0.0% gc time)
  tm4 : 0.268565 sec (0 allocations: 0 byte, 0.0% gc time)
  tp2 : 0.0 sec (0 allocations: 0 byte, 0.0% gc time)
  tp2s: 0.0 sec (0 allocations: 0 byte, 0.0% gc time)
  tp4 : 0.0 sec (0 allocations: 0 byte, 0.0% gc time)
calc_wtdll!:   0.432899 sec (9.879 k allocations: 1.044 MB, 0.0% gc time)
calc_wljj!:    0.064848 sec (689 allocations: 10.766 KB, 0.0% gc time)
mult_prefac!:  0.0 sec (0 allocations: 0 byte, 0.0% gc time)
convert:       0.0 sec (0 allocations: 0 byte, 0.0% gc time)
write:         0.079606 sec (0 allocations: 0 byte, 0.0% gc time)
test_rand_2f1: 0.0 sec (0 allocations: 0 byte, 0.0% gc time)
Closing outfile out/Ml21-cache.bin...   0.022323 seconds
  0.000358 seconds (52 allocations: 28.297 KiB)
make_phi():   0.002255 seconds (8.20 k allocations: 238.016 KiB)
  0.167846 seconds (146.69 k allocations: 3.629 MiB, 3.91% gc time)
tskip:       0.000885 sec (0 allocations: 0 byte, 0.0% gc time)
tread:       0.025524 sec (20 allocations: 10.703 KB, 0.0% gc time)
tmultphi:    0.012113 sec (0 allocations: 0 byte, 0.0% gc time)
tbrfft:      0.043426 sec (9.592 k allocations: 449.625 KB, 0.0% gc time)
tmultprefac: 0.027932 sec (0 allocations: 0 byte, 0.0% gc time)
toutfunc:    0.055872 sec (129.905 k allocations: 2.421 MB, 11.74% gc time)
Testing R=1.0 ... passed
Calculating fmax: 
  dlrec    = 4
  dlrecRg1 = -4
  q=1.1, R=0.9:	  0.551133 seconds (149.41 k allocations: 69.863 MiB, 3.30% gc time)

  0.555080 seconds (149.48 k allocations: 69.895 MiB, 3.27% gc time)
ℓ = 1202
Δℓ = 4
ΔℓRg1 = -4
N = 1600
q = 1.1
kmin = 1.0e-5
kmax = 100000.00000000004
χ0 = 0.023029999999999995
RR = RR.tsv
ℓmax = ℓmax.bin
f21 = f21.bin
kmin = 1.0e-5
kmax = 100000.0
dlrec    = 4
dlrecRg1 = -4
Output size: 5741568 bytes = 0.005347251892089844 GiB
Output size: 51264 bytes = 4.774332046508789e-5 GiB
Reading 'out/F21EllCache'...   0.001052 seconds (271 allocations: 84.719 KiB)
ellmax: 1202
lmaxcache: 1202
fell[:,1,1] = Complex{Float64}[1.3482014726274674e-57 - 3.302141236118086e-73im, 1.357860004724329e-57 - 3.3257978169518355e-73im]
ell 1202, elapsed: 0.000225067138671875
ell 1201, elapsed: 0.0008790493011474609
ell 1200, elapsed: 0.0006849765777587891
ell 1199, elapsed: 0.0006489753723144531
ell 1198, elapsed: 0.0005021095275878906
ell 1002, elapsed: 0.010145902633666992
ell 1001, elapsed: 0.0004398822784423828
ell 1000, elapsed: 0.0007169246673583984
ell 999, elapsed: 0.0003941059112548828
ell 998, elapsed: 0.0003597736358642578
ell 902, elapsed: 0.005678892135620117
ell 901, elapsed: 0.0007371902465820312
ell 900, elapsed: 0.0005500316619873047
ell 899, elapsed: 0.000518798828125
ell 898, elapsed: 0.0005140304565429688
ell 802, elapsed: 0.005773067474365234
ell 801, elapsed: 0.0007638931274414062
ell 800, elapsed: 0.0004630088806152344
ell 799, elapsed: 0.0007660388946533203
ell 798, elapsed: 0.0005681514739990234
ell 702, elapsed: 0.005404233932495117
ell 701, elapsed: 0.0008220672607421875
ell 700, elapsed: 0.0006799697875976562
ell 699, elapsed: 0.0003879070281982422
ell 698, elapsed: 0.00048089027404785156
ell 602, elapsed: 0.005794048309326172
ell 601, elapsed: 0.0005009174346923828
ell 600, elapsed: 0.0004889965057373047
ell 599, elapsed: 0.0003440380096435547
ell 598, elapsed: 0.0004558563232421875
ell 502, elapsed: 0.00518798828125
ell 501, elapsed: 0.0002961158752441406
ell 500, elapsed: 0.00023698806762695312
ell 499, elapsed: 0.00024700164794921875
ell 498, elapsed: 0.0002448558807373047
ell 402, elapsed: 0.004382133483886719
ell 401, elapsed: 0.00031304359436035156
ell 400, elapsed: 0.0003139972686767578
ell 399, elapsed: 0.00030517578125
ell 398, elapsed: 0.0002758502960205078
ell 302, elapsed: 0.004828929901123047
ell 301, elapsed: 0.00023293495178222656
ell 300, elapsed: 0.00031113624572753906
ell 299, elapsed: 0.00022792816162109375
ell 298, elapsed: 0.0002598762512207031
ell 202, elapsed: 0.02084803581237793
ell 201, elapsed: 0.00030493736267089844
ell 200, elapsed: 0.0002989768981933594
ell 199, elapsed: 0.0004680156707763672
ell 198, elapsed: 0.0003380775451660156
ell 152, elapsed: 0.002515077590942383
ell 151, elapsed: 0.00035691261291503906
ell 150, elapsed: 0.0003540515899658203
ell 149, elapsed: 0.00033593177795410156
ell 148, elapsed: 0.00032711029052734375
ell 127, elapsed: 0.0015110969543457031
ell 126, elapsed: 0.0003399848937988281
ell 125, elapsed: 0.0004029273986816406
ell 124, elapsed: 0.0008909702301025391
ell 123, elapsed: 0.00033211708068847656
ell 114, elapsed: 0.0007989406585693359
ell 113, elapsed: 0.00033593177795410156
ell 112, elapsed: 0.0003230571746826172
ell 111, elapsed: 0.0003209114074707031
ell 110, elapsed: 0.00032901763916015625
ell 102, elapsed: 0.0009400844573974609
ell 101, elapsed: 0.0003490447998046875
ell 100, elapsed: 0.00033402442932128906
ell 99, elapsed: 0.00033092498779296875
ell 98, elapsed: 0.00047898292541503906
ell 97, elapsed: 0.0005459785461425781
ell 96, elapsed: 0.0006380081176757812
ell 95, elapsed: 0.00042700767517089844
ell 94, elapsed: 0.0006461143493652344
ell 93, elapsed: 0.0004410743713378906
ell 92, elapsed: 0.00047087669372558594
ell 91, elapsed: 0.0004949569702148438
ell 90, elapsed: 0.0005869865417480469
ell 89, elapsed: 0.0003800392150878906
ell 88, elapsed: 0.000640869140625
ell 87, elapsed: 0.0004899501800537109
ell 86, elapsed: 0.00045013427734375
ell 85, elapsed: 0.00036597251892089844
ell 84, elapsed: 0.0004601478576660156
ell 83, elapsed: 0.0003650188446044922
ell 82, elapsed: 0.0004570484161376953
ell 81, elapsed: 0.0003650188446044922
ell 80, elapsed: 0.0005259513854980469
ell 79, elapsed: 0.00036907196044921875
ell 78, elapsed: 0.00045609474182128906
ell 77, elapsed: 0.0003669261932373047
ell 76, elapsed: 0.0004489421844482422
ell 75, elapsed: 0.00037097930908203125
ell 74, elapsed: 0.000453948974609375
ell 73, elapsed: 0.00036907196044921875
ell 72, elapsed: 0.0006580352783203125
ell 71, elapsed: 0.000370025634765625
ell 70, elapsed: 0.0004551410675048828
ell 69, elapsed: 0.0003559589385986328
ell 68, elapsed: 0.00045299530029296875
ell 67, elapsed: 0.0003681182861328125
ell 66, elapsed: 0.00045490264892578125
ell 65, elapsed: 0.0005218982696533203
ell 64, elapsed: 0.0008211135864257812
ell 63, elapsed: 0.0003769397735595703
ell 62, elapsed: 0.0004749298095703125
ell 61, elapsed: 0.0003829002380371094
ell 60, elapsed: 0.0004839897155761719
ell 59, elapsed: 0.0005040168762207031
ell 58, elapsed: 0.0007009506225585938
ell 57, elapsed: 0.0003800392150878906
ell 56, elapsed: 0.000576019287109375
ell 55, elapsed: 0.0004799365997314453
ell 54, elapsed: 0.0004448890686035156
ell 53, elapsed: 0.00036597251892089844
ell 52, elapsed: 0.0004570484161376953
ell 51, elapsed: 0.00036787986755371094
ell 50, elapsed: 0.0005879402160644531
ell 49, elapsed: 0.0003681182861328125
ell 48, elapsed: 0.0004551410675048828
ell 47, elapsed: 0.0003719329833984375
ell 46, elapsed: 0.00045299530029296875
ell 45, elapsed: 0.0004742145538330078
ell 44, elapsed: 0.0005810260772705078
ell 43, elapsed: 0.00036716461181640625
ell 42, elapsed: 0.00047516822814941406
ell 41, elapsed: 0.00036597251892089844
ell 40, elapsed: 0.0004611015319824219
ell 39, elapsed: 0.0003731250762939453
ell 38, elapsed: 0.0005800724029541016
ell 37, elapsed: 0.0005619525909423828
ell 36, elapsed: 0.0005440711975097656
ell 35, elapsed: 0.0006389617919921875
ell 34, elapsed: 0.0006868839263916016
ell 33, elapsed: 0.0005879402160644531
ell 32, elapsed: 0.0006618499755859375
ell 31, elapsed: 0.00045108795166015625
ell 30, elapsed: 0.0008060932159423828
ell 29, elapsed: 0.00044798851013183594
ell 28, elapsed: 0.0006959438323974609
ell 27, elapsed: 0.0004818439483642578
ell 26, elapsed: 0.0006549358367919922
ell 25, elapsed: 0.00045609474182128906
ell 24, elapsed: 0.0007998943328857422
ell 23, elapsed: 0.0004248619079589844
ell 22, elapsed: 0.0004680156707763672
ell 21, elapsed: 0.0003750324249267578
ell 20, elapsed: 0.0004620552062988281
ell 19, elapsed: 0.0003941059112548828
ell 18, elapsed: 0.0006151199340820312
ell 17, elapsed: 0.00043702125549316406
ell 16, elapsed: 0.00047779083251953125
ell 15, elapsed: 0.0005171298980712891
ell 14, elapsed: 0.0005588531494140625
ell 13, elapsed: 0.00039005279541015625
ell 12, elapsed: 0.0004749298095703125
ell 11, elapsed: 0.0004990100860595703
ell 10, elapsed: 0.0007359981536865234
ell 9, elapsed: 0.00044083595275878906
ell 8, elapsed: 0.0005598068237304688
ell 7, elapsed: 0.0005028247833251953
ell 6, elapsed: 0.00047898292541503906
ell 5, elapsed: 0.0003910064697265625
ell 4, elapsed: 0.0005991458892822266
ell 3, elapsed: 0.0005629062652587891
ell 2, elapsed: 0.0005970001220703125
ell 1, elapsed: 0.0004730224609375
ell 0, elapsed: 0.0006499290466308594
  0.171673 seconds (13.00 k allocations: 675.016 KiB)
elapsed: 0.00080108642578125
step:          0.075431 sec (0 allocations: 0 byte, 0.0% gc time)
swapping:      0.000567 sec (0 allocations: 0 byte, 0.0% gc time)
calc_Mellell!: 0.001776 sec (0 allocations: 0 byte, 0.0% gc time)
  t0 :  0.000348 sec (0 allocations: 0 byte, 0.0% gc time)
  tm2 : 0.01304 sec (0 allocations: 0 byte, 0.0% gc time)
  tm2s: 0.000309 sec (0 allocations: 0 byte, 0.0% gc time)
  tm4 : 0.034617 sec (0 allocations: 0 byte, 0.0% gc time)
  tp2 : 0.0 sec (0 allocations: 0 byte, 0.0% gc time)
  tp2s: 0.0 sec (0 allocations: 0 byte, 0.0% gc time)
  tp4 : 0.0 sec (0 allocations: 0 byte, 0.0% gc time)
calc_wtdll!:   0.049273 sec (1.344 k allocations: 147.0 KB, 0.0% gc time)
calc_wljj!:    0.004081 sec (6 allocations: 96 byte, 0.0% gc time)
mult_prefac!:  0.0 sec (0 allocations: 0 byte, 0.0% gc time)
convert:       0.0 sec (0 allocations: 0 byte, 0.0% gc time)
write:         0.005922 sec (0 allocations: 0 byte, 0.0% gc time)
test_rand_2f1: 0.0 sec (0 allocations: 0 byte, 0.0% gc time)
Closing outfile out/Ml21-cache.bin...   0.002883 seconds
  0.000421 seconds (52 allocations: 28.297 KiB)
make_phi():   0.002135 seconds (8.20 k allocations: 238.016 KiB)
  0.029589 seconds (12.10 k allocations: 322.000 KiB)
tskip:       1.8e-5 sec (0 allocations: 0 byte, 0.0% gc time)
tread:       0.00239 sec (20 allocations: 2.188 KB, 0.0% gc time)
tmultphi:    0.001048 sec (0 allocations: 0 byte, 0.0% gc time)
tbrfft:      0.004192 sec (896 allocations: 42.0 KB, 0.0% gc time)
tmultprefac: 0.002195 sec (0 allocations: 0 byte, 0.0% gc time)
toutfunc:    0.019667 sec (10.528 k allocations: 206.5 KB, 0.0% gc time)
Testing R=0.9 ... passed
Calculating fmax: 
  dlrec    = 4
  dlrecRg1 = -4
  q=1.1, R=0.8:	  0.528252 seconds (145.59 k allocations: 68.095 MiB, 6.88% gc time)

  0.528981 seconds (145.66 k allocations: 68.127 MiB, 6.87% gc time)
ℓ = 1202
Δℓ = 4
ΔℓRg1 = -4
N = 1600
q = 1.1
kmin = 1.0e-5
kmax = 100000.00000000004
χ0 = 0.023029999999999995
RR = RR.tsv
ℓmax = ℓmax.bin
f21 = f21.bin
kmin = 1.0e-5
kmax = 100000.0
dlrec    = 4
dlrecRg1 = -4
Output size: 5741568 bytes = 0.005347251892089844 GiB
Output size: 51264 bytes = 4.774332046508789e-5 GiB
Reading 'out/F21EllCache'...   0.001366 seconds (271 allocations: 84.719 KiB)
ellmax: 1202
lmaxcache: 1202
fell[:,1,1] = Complex{Float64}[7.519068145690986e-120 - 1.8416405474382574e-135im, 7.541664537386155e-120 - 1.847175067190611e-135im]
ell 1202, elapsed: 3.886222839355469e-5
ell 1201, elapsed: 0.0003190040588378906
ell 1200, elapsed: 0.0002949237823486328
ell 1199, elapsed: 0.00030112266540527344
ell 1198, elapsed: 0.0003018379211425781
ell 1002, elapsed: 0.010608196258544922
ell 1001, elapsed: 0.0005810260772705078
ell 1000, elapsed: 0.0004341602325439453
ell 999, elapsed: 0.0004820823669433594
ell 998, elapsed: 0.0004429817199707031
ell 902, elapsed: 0.005584001541137695
ell 901, elapsed: 0.0004801750183105469
ell 900, elapsed: 0.00045800209045410156
ell 899, elapsed: 0.00045108795166015625
ell 898, elapsed: 0.0005190372467041016
ell 802, elapsed: 0.005632877349853516
ell 801, elapsed: 0.0004870891571044922
ell 800, elapsed: 0.00046515464782714844
ell 799, elapsed: 0.0004611015319824219
ell 798, elapsed: 0.0004658699035644531
ell 702, elapsed: 0.005555152893066406
ell 701, elapsed: 0.00048613548278808594
ell 700, elapsed: 0.0004680156707763672
ell 699, elapsed: 0.0004279613494873047
ell 698, elapsed: 0.0003409385681152344
ell 602, elapsed: 0.0053021907806396484
ell 601, elapsed: 0.00037097930908203125
ell 600, elapsed: 0.0003409385681152344
ell 599, elapsed: 0.0003838539123535156
ell 598, elapsed: 0.0003409385681152344
ell 502, elapsed: 0.005059003829956055
ell 501, elapsed: 0.0004248619079589844
ell 500, elapsed: 0.0003859996795654297
ell 499, elapsed: 0.0003440380096435547
ell 498, elapsed: 0.0003559589385986328
ell 402, elapsed: 0.005608081817626953
ell 401, elapsed: 0.0004458427429199219
ell 400, elapsed: 0.0004801750183105469
ell 399, elapsed: 0.0004508495330810547
ell 398, elapsed: 0.00034499168395996094
ell 302, elapsed: 0.005468845367431641
ell 301, elapsed: 0.0004069805145263672
ell 300, elapsed: 0.0003848075866699219
ell 299, elapsed: 0.0003848075866699219
ell 298, elapsed: 0.0003941059112548828
ell 202, elapsed: 0.0056400299072265625
ell 201, elapsed: 0.0005550384521484375
ell 200, elapsed: 0.0004799365997314453
ell 199, elapsed: 0.0007040500640869141
ell 198, elapsed: 0.0003361701965332031
ell 152, elapsed: 0.002758026123046875
ell 151, elapsed: 0.0011751651763916016
ell 150, elapsed: 0.0004799365997314453
ell 149, elapsed: 0.00042700767517089844
ell 148, elapsed: 0.0003409385681152344
ell 127, elapsed: 0.0023958683013916016
ell 126, elapsed: 0.00034308433532714844
ell 125, elapsed: 0.0003349781036376953
ell 124, elapsed: 0.0003368854522705078
ell 123, elapsed: 0.0003409385681152344
ell 114, elapsed: 0.0008139610290527344
ell 113, elapsed: 0.00033211708068847656
ell 112, elapsed: 0.0011491775512695312
ell 111, elapsed: 0.0003421306610107422
ell 110, elapsed: 0.0003399848937988281
ell 102, elapsed: 0.000865936279296875
ell 101, elapsed: 0.0003418922424316406
ell 100, elapsed: 0.00047016143798828125
ell 99, elapsed: 0.0012471675872802734
ell 98, elapsed: 0.0004730224609375
ell 97, elapsed: 0.0004699230194091797
ell 96, elapsed: 0.0004780292510986328
ell 95, elapsed: 0.0003790855407714844
ell 94, elapsed: 0.0004620552062988281
ell 93, elapsed: 0.0011868476867675781
ell 92, elapsed: 0.0006361007690429688
ell 91, elapsed: 0.00043201446533203125
ell 90, elapsed: 0.00046515464782714844
ell 89, elapsed: 0.00038313865661621094
ell 88, elapsed: 0.0004611015319824219
ell 87, elapsed: 0.001277923583984375
ell 86, elapsed: 0.0004429817199707031
ell 85, elapsed: 0.0003540515899658203
ell 84, elapsed: 0.0004241466522216797
ell 83, elapsed: 0.0003409385681152344
ell 82, elapsed: 0.0004210472106933594
ell 81, elapsed: 0.00035500526428222656
ell 80, elapsed: 0.0013899803161621094
ell 79, elapsed: 0.00036907196044921875
ell 78, elapsed: 0.0004649162292480469
ell 77, elapsed: 0.00038313865661621094
ell 76, elapsed: 0.0004639625549316406
ell 75, elapsed: 0.0004000663757324219
ell 74, elapsed: 0.0005681514739990234
ell 73, elapsed: 0.00048613548278808594
ell 72, elapsed: 0.0008668899536132812
ell 71, elapsed: 0.00039696693420410156
ell 70, elapsed: 0.0004699230194091797
ell 69, elapsed: 0.0003561973571777344
ell 68, elapsed: 0.0004398822784423828
ell 67, elapsed: 0.0003688335418701172
ell 66, elapsed: 0.0004820823669433594
ell 65, elapsed: 0.00038886070251464844
ell 64, elapsed: 0.00046706199645996094
ell 63, elapsed: 0.0003800392150878906
ell 62, elapsed: 0.0004799365997314453
ell 61, elapsed: 0.00041103363037109375
ell 60, elapsed: 0.0006771087646484375
ell 59, elapsed: 0.0003960132598876953
ell 58, elapsed: 0.00046896934509277344
ell 57, elapsed: 0.0004470348358154297
ell 56, elapsed: 0.0006670951843261719
[...]
ell 788, elapsed: 0.0008490085601806641
ell 782, elapsed: 0.001934051513671875
ell 781, elapsed: 0.0007600784301757812
ell 780, elapsed: 0.0008039474487304688
ell 779, elapsed: 0.0008649826049804688
ell 778, elapsed: 0.0009729862213134766
ell 772, elapsed: 0.0016219615936279297
ell 771, elapsed: 0.0008099079132080078
ell 770, elapsed: 0.0009329319000244141
ell 769, elapsed: 0.0008130073547363281
ell 768, elapsed: 0.0008189678192138672
ell 762, elapsed: 0.0016739368438720703
ell 761, elapsed: 0.0009648799896240234
ell 760, elapsed: 0.0008070468902587891
ell 759, elapsed: 0.0008041858673095703
ell 758, elapsed: 0.0008559226989746094
ell 752, elapsed: 0.0017399787902832031
ell 751, elapsed: 0.0007719993591308594
ell 750, elapsed: 0.0008490085601806641
ell 749, elapsed: 0.0008680820465087891
ell 748, elapsed: 0.0009260177612304688
ell 742, elapsed: 0.0015659332275390625
ell 741, elapsed: 0.0008759498596191406
ell 740, elapsed: 0.0008940696716308594
ell 739, elapsed: 0.0008528232574462891
ell 738, elapsed: 0.0008587837219238281
ell 732, elapsed: 0.0018520355224609375
ell 731, elapsed: 0.0008721351623535156
ell 730, elapsed: 0.0008637905120849609
ell 729, elapsed: 0.0008618831634521484
ell 728, elapsed: 0.0008640289306640625
ell 722, elapsed: 0.0018448829650878906
ell 721, elapsed: 0.0008690357208251953
ell 720, elapsed: 0.0008649826049804688
ell 719, elapsed: 0.0009758472442626953
ell 718, elapsed: 0.0008780956268310547
ell 712, elapsed: 0.001728057861328125
ell 711, elapsed: 0.0009920597076416016
ell 710, elapsed: 0.0008690357208251953
ell 709, elapsed: 0.0008640289306640625
ell 708, elapsed: 0.0008699893951416016
ell 702, elapsed: 0.0018532276153564453
ell 701, elapsed: 0.0008680820465087891
ell 700, elapsed: 0.0008628368377685547
ell 699, elapsed: 0.0009789466857910156
ell 698, elapsed: 0.0008728504180908203
ell 692, elapsed: 0.0017349720001220703
ell 691, elapsed: 0.0008699893951416016
ell 690, elapsed: 0.0009970664978027344
ell 689, elapsed: 0.0008721351623535156
ell 688, elapsed: 0.0007369518280029297
ell 682, elapsed: 0.001216888427734375
ell 681, elapsed: 0.0006868839263916016
ell 680, elapsed: 0.0005748271942138672
ell 679, elapsed: 0.0005629062652587891
ell 678, elapsed: 0.0005660057067871094
ell 672, elapsed: 0.0010781288146972656
ell 671, elapsed: 0.0005960464477539062
ell 670, elapsed: 0.0005710124969482422
ell 669, elapsed: 0.0005650520324707031
ell 668, elapsed: 0.0005679130554199219
ell 662, elapsed: 0.0010800361633300781
ell 661, elapsed: 0.0005669593811035156
ell 660, elapsed: 0.0005919933319091797
ell 659, elapsed: 0.0005788803100585938
ell 658, elapsed: 0.0008141994476318359
ell 652, elapsed: 0.0016450881958007812
ell 651, elapsed: 0.0008461475372314453
ell 650, elapsed: 0.0008380413055419922
ell 649, elapsed: 0.0008258819580078125
ell 648, elapsed: 0.0008358955383300781
ell 642, elapsed: 0.0016260147094726562
ell 641, elapsed: 0.000823974609375
ell 640, elapsed: 0.0008220672607421875
ell 639, elapsed: 0.0008230209350585938
ell 638, elapsed: 0.0008358955383300781
ell 632, elapsed: 0.0016248226165771484
ell 631, elapsed: 0.0008261203765869141
ell 630, elapsed: 0.0008959770202636719
ell 629, elapsed: 0.0008628368377685547
ell 628, elapsed: 0.0008690357208251953
ell 622, elapsed: 0.0016329288482666016
ell 621, elapsed: 0.0008170604705810547
ell 620, elapsed: 0.000823974609375
ell 619, elapsed: 0.000885009765625
ell 618, elapsed: 0.0008280277252197266
ell 612, elapsed: 0.0016050338745117188
ell 611, elapsed: 0.0008230209350585938
ell 610, elapsed: 0.000823974609375
ell 609, elapsed: 0.0008339881896972656
ell 608, elapsed: 0.0008258819580078125
ell 602, elapsed: 0.001631021499633789
ell 601, elapsed: 0.0008320808410644531
ell 600, elapsed: 0.0008199214935302734
ell 599, elapsed: 0.0008258819580078125
ell 598, elapsed: 0.0008208751678466797
ell 592, elapsed: 0.0016350746154785156
ell 591, elapsed: 0.0008230209350585938
ell 590, elapsed: 0.0009000301361083984
ell 589, elapsed: 0.00092315673828125
ell 588, elapsed: 0.0009469985961914062
ell 582, elapsed: 0.00174713134765625
ell 581, elapsed: 0.0008599758148193359
ell 580, elapsed: 0.0008640289306640625
ell 579, elapsed: 0.0008339881896972656
ell 578, elapsed: 0.0008831024169921875
ell 572, elapsed: 0.0017158985137939453
ell 571, elapsed: 0.0008831024169921875
ell 570, elapsed: 0.0009360313415527344
ell 569, elapsed: 0.0009520053863525391
ell 568, elapsed: 0.0008771419525146484
ell 562, elapsed: 0.0017778873443603516
ell 561, elapsed: 0.000946044921875
ell 560, elapsed: 0.0009341239929199219
ell 559, elapsed: 0.0008900165557861328
ell 558, elapsed: 0.0008270740509033203
ell 552, elapsed: 0.0016248226165771484
ell 551, elapsed: 0.0008280277252197266
ell 550, elapsed: 0.0008180141448974609
ell 549, elapsed: 0.0008270740509033203
ell 548, elapsed: 0.0008261203765869141
ell 542, elapsed: 0.0016980171203613281
ell 541, elapsed: 0.0008280277252197266
ell 540, elapsed: 0.0008308887481689453
ell 539, elapsed: 0.0008349418640136719
ell 538, elapsed: 0.0008230209350585938
ell 532, elapsed: 0.0017368793487548828
ell 531, elapsed: 0.0009319782257080078
ell 530, elapsed: 0.0008320808410644531
ell 529, elapsed: 0.0008270740509033203
ell 528, elapsed: 0.0009369850158691406
ell 522, elapsed: 0.0017559528350830078
ell 521, elapsed: 0.0008490085601806641
ell 520, elapsed: 0.0008699893951416016
ell 519, elapsed: 0.0009200572967529297
ell 518, elapsed: 0.0009379386901855469
ell 512, elapsed: 0.0017459392547607422
ell 511, elapsed: 0.0008327960968017578
ell 510, elapsed: 0.0008180141448974609
ell 509, elapsed: 0.0008130073547363281
ell 508, elapsed: 0.0010631084442138672
ell 502, elapsed: 0.0017478466033935547
ell 501, elapsed: 0.0010540485382080078
ell 500, elapsed: 0.0009889602661132812
ell 499, elapsed: 0.0010509490966796875
ell 498, elapsed: 0.0009949207305908203
ell 492, elapsed: 0.0018680095672607422
ell 491, elapsed: 0.0009920597076416016
ell 490, elapsed: 0.0010180473327636719
ell 489, elapsed: 0.0009870529174804688
ell 488, elapsed: 0.0010488033294677734
ell 482, elapsed: 0.0019028186798095703
ell 481, elapsed: 0.0010478496551513672
ell 480, elapsed: 0.0010259151458740234
ell 479, elapsed: 0.0009999275207519531
ell 478, elapsed: 0.001032114028930664
ell 472, elapsed: 0.0018968582153320312
ell 471, elapsed: 0.001043081283569336
ell 470, elapsed: 0.001032114028930664
ell 469, elapsed: 0.0010721683502197266
ell 468, elapsed: 0.0010030269622802734
ell 462, elapsed: 0.0019030570983886719
ell 461, elapsed: 0.0010118484497070312
ell 460, elapsed: 0.0010581016540527344
ell 459, elapsed: 0.001055002212524414
ell 458, elapsed: 0.0008809566497802734
ell 452, elapsed: 0.0016629695892333984
ell 451, elapsed: 0.0010190010070800781
ell 450, elapsed: 0.0010352134704589844
ell 449, elapsed: 0.0008590221405029297
ell 448, elapsed: 0.0009808540344238281
ell 442, elapsed: 0.0017979145050048828
ell 441, elapsed: 0.0009770393371582031
ell 440, elapsed: 0.000982046127319336
ell 439, elapsed: 0.0009801387786865234
ell 438, elapsed: 0.0008580684661865234
ell 432, elapsed: 0.0018110275268554688
ell 431, elapsed: 0.0009729862213134766
ell 430, elapsed: 0.0009670257568359375
ell 429, elapsed: 0.0008652210235595703
ell 428, elapsed: 0.0009469985961914062
ell 422, elapsed: 0.0017871856689453125
ell 421, elapsed: 0.000982046127319336
ell 420, elapsed: 0.0009639263153076172
ell 419, elapsed: 0.00084686279296875
ell 418, elapsed: 0.0009739398956298828
ell 412, elapsed: 0.0017819404602050781
ell 411, elapsed: 0.0009927749633789062
ell 410, elapsed: 0.0009620189666748047
ell 409, elapsed: 0.0008480548858642578
ell 408, elapsed: 0.0008528232574462891
ell 402, elapsed: 0.0017731189727783203
ell 401, elapsed: 0.0008480548858642578
ell 400, elapsed: 0.0009911060333251953
ell 399, elapsed: 0.0009560585021972656
ell 398, elapsed: 0.0009729862213134766
ell 392, elapsed: 0.001811981201171875
ell 391, elapsed: 0.0009608268737792969
ell 390, elapsed: 0.0009491443634033203
ell 389, elapsed: 0.0008671283721923828
ell 388, elapsed: 0.0009679794311523438
ell 382, elapsed: 0.0016469955444335938
ell 381, elapsed: 0.000988006591796875
ell 380, elapsed: 0.0009760856628417969
ell 379, elapsed: 0.0008459091186523438
ell 378, elapsed: 0.00096893310546875
ell 372, elapsed: 0.0017268657684326172
ell 371, elapsed: 0.0008528232574462891
ell 370, elapsed: 0.0008480548858642578
ell 369, elapsed: 0.0008740425109863281
ell 368, elapsed: 0.0008680820465087891
ell 362, elapsed: 0.0016682147979736328
ell 361, elapsed: 0.0008749961853027344
ell 360, elapsed: 0.0008640289306640625
ell 359, elapsed: 0.0008630752563476562
ell 358, elapsed: 0.0009109973907470703
ell 352, elapsed: 0.0016400814056396484
ell 351, elapsed: 0.0008602142333984375
ell 350, elapsed: 0.0008590221405029297
ell 349, elapsed: 0.0008509159088134766
ell 348, elapsed: 0.0008471012115478516
ell 342, elapsed: 0.0016591548919677734
ell 341, elapsed: 0.0008618831634521484
ell 340, elapsed: 0.0008590221405029297
ell 339, elapsed: 0.0008490085601806641
ell 338, elapsed: 0.00086212158203125
ell 332, elapsed: 0.0018110275268554688
ell 331, elapsed: 0.0009930133819580078
ell 330, elapsed: 0.0009489059448242188
ell 329, elapsed: 0.0009419918060302734
ell 328, elapsed: 0.0009489059448242188
ell 322, elapsed: 0.0018031597137451172
ell 321, elapsed: 0.000946044921875
ell 320, elapsed: 0.0009322166442871094
ell 319, elapsed: 0.0009300708770751953
ell 318, elapsed: 0.0009379386901855469
ell 312, elapsed: 0.0018069744110107422
ell 311, elapsed: 0.0008869171142578125
ell 310, elapsed: 0.0008900165557861328
ell 309, elapsed: 0.0009388923645019531
ell 308, elapsed: 0.0009431838989257812
ell 302, elapsed: 0.18978095054626465
ell 301, elapsed: 0.0009160041809082031
ell 300, elapsed: 0.0008869171142578125
ell 299, elapsed: 0.0008928775787353516
ell 298, elapsed: 0.0009329319000244141
ell 292, elapsed: 0.0017578601837158203
ell 291, elapsed: 0.0009551048278808594
ell 290, elapsed: 0.0009450912475585938
ell 289, elapsed: 0.0008778572082519531
ell 288, elapsed: 0.0008721351623535156
ell 282, elapsed: 0.0017631053924560547
ell 281, elapsed: 0.0009379386901855469
ell 280, elapsed: 0.0008947849273681641
ell 279, elapsed: 0.000885009765625
ell 278, elapsed: 0.0009551048278808594
ell 272, elapsed: 0.0018620491027832031
ell 271, elapsed: 0.0009739398956298828
ell 270, elapsed: 0.0009410381317138672
ell 269, elapsed: 0.0009419918060302734
ell 268, elapsed: 0.000946044921875
ell 262, elapsed: 0.0018148422241210938
ell 261, elapsed: 0.0009670257568359375
ell 260, elapsed: 0.007267951965332031
ell 259, elapsed: 0.0009927749633789062
ell 258, elapsed: 0.000904083251953125
ell 252, elapsed: 0.001873016357421875
ell 251, elapsed: 0.0009398460388183594
ell 250, elapsed: 0.0009450912475585938
ell 249, elapsed: 0.0009529590606689453
ell 248, elapsed: 0.0009448528289794922
ell 242, elapsed: 0.0018320083618164062
ell 241, elapsed: 0.0008518695831298828
ell 240, elapsed: 0.0008440017700195312
ell 239, elapsed: 0.0007960796356201172
ell 238, elapsed: 0.0007669925689697266
ell 232, elapsed: 0.001477956771850586
ell 231, elapsed: 0.0007419586181640625
ell 230, elapsed: 0.0007350444793701172
ell 229, elapsed: 0.0007469654083251953
ell 228, elapsed: 0.0007269382476806641
ell 222, elapsed: 0.0014760494232177734
ell 221, elapsed: 0.0007338523864746094
ell 220, elapsed: 0.0009751319885253906
ell 219, elapsed: 0.0007531642913818359
ell 218, elapsed: 0.0007359981536865234
ell 212, elapsed: 0.0015749931335449219
ell 211, elapsed: 0.0007369518280029297
ell 210, elapsed: 0.0007350444793701172
ell 209, elapsed: 0.0007321834564208984
ell 208, elapsed: 0.0007328987121582031
ell 202, elapsed: 0.0016319751739501953
ell 201, elapsed: 0.0007390975952148438
ell 200, elapsed: 0.0007319450378417969
ell 199, elapsed: 0.0007579326629638672
ell 198, elapsed: 0.0009789466857910156
ell 192, elapsed: 0.0015320777893066406
ell 191, elapsed: 0.0007829666137695312
ell 190, elapsed: 0.0007770061492919922
ell 189, elapsed: 0.0007860660552978516
ell 188, elapsed: 0.0007710456848144531
ell 182, elapsed: 0.001547098159790039
ell 181, elapsed: 0.0008101463317871094
ell 180, elapsed: 0.0007710456848144531
ell 179, elapsed: 0.0007641315460205078
ell 178, elapsed: 0.0007638931274414062
ell 172, elapsed: 0.001547098159790039
ell 171, elapsed: 0.0007710456848144531
ell 170, elapsed: 0.0007708072662353516
ell 169, elapsed: 0.0007719993591308594
ell 168, elapsed: 0.0007719993591308594
ell 162, elapsed: 0.0016069412231445312
ell 161, elapsed: 0.0007760524749755859
ell 160, elapsed: 0.0007760524749755859
ell 159, elapsed: 0.0007679462432861328
ell 158, elapsed: 0.0008301734924316406
ell 152, elapsed: 0.0017349720001220703
ell 151, elapsed: 0.0007240772247314453
ell 150, elapsed: 0.0008199214935302734
ell 149, elapsed: 0.0007600784301757812
ell 148, elapsed: 0.0007710456848144531
ell 142, elapsed: 0.0015590190887451172
ell 141, elapsed: 0.0008380413055419922
ell 140, elapsed: 0.0007688999176025391
ell 139, elapsed: 0.0007791519165039062
ell 138, elapsed: 0.0007710456848144531
ell 132, elapsed: 0.0015969276428222656
ell 131, elapsed: 0.0007708072662353516
ell 130, elapsed: 0.0007610321044921875
ell 129, elapsed: 0.0007669925689697266
ell 128, elapsed: 0.0007688999176025391
ell 122, elapsed: 0.0015330314636230469
ell 121, elapsed: 0.0007770061492919922
ell 120, elapsed: 0.0007810592651367188
ell 119, elapsed: 0.0008730888366699219
ell 118, elapsed: 0.0007798671722412109
ell 112, elapsed: 0.001722097396850586
ell 111, elapsed: 0.0007770061492919922
ell 110, elapsed: 0.0008859634399414062
ell 109, elapsed: 0.0007698535919189453
ell 108, elapsed: 0.0007579326629638672
ell 102, elapsed: 0.0015060901641845703
ell 101, elapsed: 0.003957033157348633
ell 100, elapsed: 0.0044209957122802734
ell 99, elapsed: 0.004339933395385742
ell 98, elapsed: 0.004275083541870117
ell 92, elapsed: 0.007447957992553711
ell 91, elapsed: 0.00439906120300293
ell 90, elapsed: 0.004411935806274414
ell 89, elapsed: 0.003247976303100586
ell 88, elapsed: 0.004381895065307617
ell 82, elapsed: 0.009341001510620117
ell 81, elapsed: 0.0030059814453125
ell 80, elapsed: 0.0029587745666503906
ell 79, elapsed: 0.0029630661010742188
ell 78, elapsed: 0.0029718875885009766
ell 72, elapsed: 0.006066083908081055
ell 71, elapsed: 0.0031909942626953125
ell 70, elapsed: 0.0029838085174560547
ell 69, elapsed: 0.003487110137939453
ell 68, elapsed: 0.0032951831817626953
ell 62, elapsed: 0.0061419010162353516
ell 61, elapsed: 0.0031130313873291016
ell 60, elapsed: 0.003522157669067383
ell 59, elapsed: 0.0031290054321289062
ell 58, elapsed: 0.0032958984375
ell 52, elapsed: 0.0061931610107421875
ell 51, elapsed: 0.0030858516693115234
ell 50, elapsed: 0.0035431385040283203
ell 49, elapsed: 0.0034189224243164062
ell 48, elapsed: 0.0031938552856445312
ell 42, elapsed: 0.006460905075073242
ell 41, elapsed: 0.002994060516357422
ell 40, elapsed: 0.0031881332397460938
ell 39, elapsed: 0.002930879592895508
ell 38, elapsed: 0.0030422210693359375
ell 32, elapsed: 0.0056018829345703125
ell 31, elapsed: 0.003248929977416992
ell 30, elapsed: 0.003175973892211914
ell 29, elapsed: 0.0031671524047851562
ell 28, elapsed: 0.0033409595489501953
ell 22, elapsed: 0.00586700439453125
ell 21, elapsed: 0.003033161163330078
ell 20, elapsed: 0.004209995269775391
ell 19, elapsed: 0.002980947494506836
ell 18, elapsed: 0.0032320022583007812
ell 12, elapsed: 0.006123065948486328
ell 11, elapsed: 0.003480195999145508
ell 10, elapsed: 0.003261089324951172
ell 9, elapsed: 0.0037899017333984375
ell 8, elapsed: 0.003242015838623047
  1.042130 seconds (74.11 k allocations: 12.050 MiB)
elapsed: 0.0039751529693603516
step:          0.069877 sec (0 allocations: 0 byte, 0.0% gc time)
swapping:      0.000741 sec (0 allocations: 0 byte, 0.0% gc time)
calc_Mellell!: 0.035131 sec (0 allocations: 0 byte, 0.0% gc time)
  t0 :  0.01025 sec (0 allocations: 0 byte, 0.0% gc time)
  tm2 : 0.066226 sec (0 allocations: 0 byte, 0.0% gc time)
  tm2s: 0.008924 sec (0 allocations: 0 byte, 0.0% gc time)
  tm4 : 0.17054 sec (0 allocations: 0 byte, 0.0% gc time)
  tp2 : 0.0 sec (0 allocations: 0 byte, 0.0% gc time)
  tp2s: 0.0 sec (0 allocations: 0 byte, 0.0% gc time)
  tp4 : 0.0 sec (0 allocations: 0 byte, 0.0% gc time)
calc_wtdll!:   0.507471 sec (49.2 k allocations: 11.133 MB, 0.0% gc time)
calc_wljj!:    0.037549 sec (69 allocations: 1.078 KB, 0.0% gc time)
mult_prefac!:  0.0 sec (0 allocations: 0 byte, 0.0% gc time)
convert:       0.0 sec (0 allocations: 0 byte, 0.0% gc time)
write:         0.226725 sec (0 allocations: 0 byte, 0.0% gc time)
test_rand_2f1: 0.0 sec (0 allocations: 0 byte, 0.0% gc time)
Closing outfile out/MlCache/MlCache.bin...   0.000010 seconds
xi, l=0, nu=0:   0.372405 seconds (556.07 k allocations: 27.070 MiB, 3.55% gc time)
xi, l=0, nu=-2:  0.002204 seconds (144 allocations: 149.563 KiB)
Created 'out/xi.tsv'.
  q=1.1, R=0.6:	  1.124827 seconds (373.06 k allocations: 174.511 MiB, 5.95% gc time)
  q=1.1, R=0.7:	  1.288863 seconds (391.29 k allocations: 182.916 MiB, 1.72% gc time)
  q=1.1, R=0.8:	  1.229921 seconds (383.81 k allocations: 179.466 MiB, 3.82% gc time)
  q=1.1, R=0.9:	  1.354737 seconds (376.40 k allocations: 176.056 MiB, 2.01% gc time)
  q=1.1, R=0.998:	 21.908250 seconds (10.67 M allocations: 831.832 MiB, 0.77% gc time)
  q=1.1, R=1.0:	  0.045185 seconds (12.29 k allocations: 9.129 MiB, 5.79% gc time)

ℓ = 1000
Δℓ = 4
ΔℓRg1 = -4
N = 4096
q = 1.1
kmin = 1.0e-5
kmax = 1000.0
χ0 = 0.001
RR = RR.tsv
ℓmax = ℓmax.bin
f21 = f21.bin
kmin = 1.0e-5
kmax = 1000.0
dlrec    = 4
dlrecRg1 = -4
Output size: 1573632 bytes = 0.0014655590057373047 GiB
Output size: 786816 bytes = 0.0007327795028686523 GiB
Reading 'out/F21EllCache'...   0.001539 seconds (272 allocations: 533.594 KiB)
ellmax: 1002
lmaxcache: 1000
fell[:,1,1] = Complex{Float64}[1.7262928128202118e-224 - 4.2281979352226944e-240im, 1.7282693092099662e-224 - 4.233038955177176e-240im]
ell 1002, elapsed: 2.5987625122070312e-5
ell 1001, elapsed: 0.001168966293334961
ell 1000, elapsed: 0.0011448860168457031
ell 999, elapsed: 0.006331920623779297
ell 998, elapsed: 0.006999969482421875
ell 44, elapsed: 0.6829490661621094
ell 43, elapsed: 0.013239860534667969
ell 42, elapsed: 0.01836991310119629
ell 41, elapsed: 0.00631403923034668
ell 40, elapsed: 0.006212949752807617
  0.751983 seconds (4.64 k allocations: 318.281 KiB)
elapsed: 0.008734941482543945
step:          0.680106 sec (0 allocations: 0 byte, 0.0% gc time)
swapping:      0.000546 sec (0 allocations: 0 byte, 0.0% gc time)
calc_Mellell!: 0.012974 sec (0 allocations: 0 byte, 0.0% gc time)
  t0 :  0.000905 sec (0 allocations: 0 byte, 0.0% gc time)
  tm2 : 0.01773 sec (0 allocations: 0 byte, 0.0% gc time)
  tm2s: 0.00081 sec (0 allocations: 0 byte, 0.0% gc time)
  tm4 : 0.032556 sec (0 allocations: 0 byte, 0.0% gc time)
  tp2 : 0.0 sec (0 allocations: 0 byte, 0.0% gc time)
  tp2s: 0.0 sec (0 allocations: 0 byte, 0.0% gc time)
  tp4 : 0.0 sec (0 allocations: 0 byte, 0.0% gc time)
calc_wtdll!:   0.052243 sec (480 allocations: 52.5 KB, 0.0% gc time)
calc_wljj!:    0.002176 sec (1 allocations: 16 byte, 0.0% gc time)
mult_prefac!:  0.0 sec (0 allocations: 0 byte, 0.0% gc time)
convert:       0.0 sec (0 allocations: 0 byte, 0.0% gc time)
write:         0.000948 sec (0 allocations: 0 byte, 0.0% gc time)
test_rand_2f1: 0.0 sec (0 allocations: 0 byte, 0.0% gc time)
Closing outfile out/MlCache/MlCache.bin...   0.001023 seconds
  0.491670 seconds (54 allocations: 67.203 KiB)
make_phi():   0.011076 seconds (80 allocations: 276.297 KiB)
  0.003064 seconds (108 allocations: 5.813 KiB)
tskip:       1.0e-6 sec (0 allocations: 0 byte, 0.0% gc time)
tread:       0.000607 sec (20 allocations: 1.328 KB, 0.0% gc time)
tmultphi:    0.00031 sec (0 allocations: 0 byte, 0.0% gc time)
tbrfft:      0.001177 sec (96 allocations: 4.5 KB, 0.0% gc time)
tmultprefac: 0.000935 sec (0 allocations: 0 byte, 0.0% gc time)
toutfunc:    0.000134 sec (0 allocations: 0 byte, 0.0% gc time)
Created 'out/wl42_jj00.tsv'.
Created 'out/wl42_jj02.tsv'.
   Testing TwoFAST tests passed 
