Julia Version 1.6.0-DEV.1129
Commit 2a9b5926b7 (2020-10-03 06:15 UTC)
Platform Info:
  OS: Linux (x86_64-linux-gnu)
  CPU: AMD EPYC 7502 32-Core Processor
  WORD_SIZE: 64
  LIBM: libopenlibm
  LLVM: libLLVM-10.0.1 (ORCJIT, znver2)
Environment:
  JULIA_DEPOT_PATH = ::/usr/local/share/julia
  JULIA_NUM_THREADS = 2

  Resolving package versions...
  Installed MKL_jll ────────────────────── v2020.2.254+0
  Installed Readables ──────────────────── v0.3.3
  Installed CompilerSupportLibraries_jll ─ v0.3.3+0
  Installed GenericSchur ───────────────── v0.4.0
  Installed SpecialFunctions ───────────── v0.10.3
  Installed BinaryProvider ─────────────── v0.5.10
  Installed ArbNumerics ────────────────── v1.2.1
  Installed AbstractFFTs ───────────────── v0.5.0
  Installed Reexport ───────────────────── v0.2.0
  Installed GenericSVD ─────────────────── v0.3.0
  Installed OpenSpecFun_jll ────────────── v0.5.3+3
  Installed FFTW_jll ───────────────────── v3.3.9+5
  Installed IntelOpenMP_jll ────────────── v2018.0.3+0
  Installed FFTW ───────────────────────── v1.2.4
  Installed TwoFAST ────────────────────── v0.1.3
Updating `~/.julia/environments/v1.6/Project.toml`
  [0dd23c3e] + TwoFAST v0.1.3
Updating `~/.julia/environments/v1.6/Manifest.toml`
  [621f4979] + AbstractFFTs v0.5.0
  [7e558dbc] + ArbNumerics v1.2.1
  [b99e7846] + BinaryProvider v0.5.10
  [e66e0078] + CompilerSupportLibraries_jll v0.3.3+0
  [7a1cc6ca] + FFTW v1.2.4
  [f5851436] + FFTW_jll v3.3.9+5
  [01680d73] + GenericSVD v0.3.0
  [c145ed77] + GenericSchur v0.4.0
  [1d5cc7b8] + IntelOpenMP_jll v2018.0.3+0
  [856f044c] + MKL_jll v2020.2.254+0
  [efe28fd5] + OpenSpecFun_jll v0.5.3+3
  [0d4725de] + Readables v0.3.3
  [189a3867] + Reexport v0.2.0
  [276daf66] + SpecialFunctions v0.10.3
  [0dd23c3e] + TwoFAST v0.1.3
  [56f22d72] + Artifacts
  [2a0f44e3] + Base64
  [ade2ca70] + Dates
  [8bb1440f] + DelimitedFiles
  [8ba89e20] + Distributed
  [b77e0a4c] + InteractiveUtils
  [76f85450] + LibGit2
  [8f399da3] + Libdl
  [37e2e46d] + LinearAlgebra
  [56ddb016] + Logging
  [d6f4376e] + Markdown
  [a63ad114] + Mmap
  [44cfe95a] + Pkg
  [de0858da] + Printf
  [3fa0cd96] + REPL
  [9a3f8284] + Random
  [ea8e919c] + SHA
  [9e88b42a] + Serialization
  [6462fe0b] + Sockets
  [fa267f1f] + TOML
  [8dfed614] + Test
  [cf7118a7] + UUIDs
  [4ec0a83e] + Unicode
   Building ArbNumerics → `~/.julia/scratchspaces/44cfe95a-1eb2-52ea-b672-e2afdf69b78f/329a81d67c64e3a51c176a243b6424fbe39213d0/build.log`
   Building FFTW ───────→ `~/.julia/scratchspaces/44cfe95a-1eb2-52ea-b672-e2afdf69b78f/8b7c16b56936047ca41bf25effa137ae0b381ae8/build.log`
    Testing TwoFAST
Status `/tmp/jl_gzQ2cX/Project.toml`
  [7e558dbc] ArbNumerics v1.2.1
  [39dd38d3] Dierckx v0.5.0
  [7a1cc6ca] FFTW v1.2.4
  [276daf66] SpecialFunctions v0.10.3
  [0dd23c3e] TwoFAST v0.1.3
  [8bb1440f] DelimitedFiles
  [37e2e46d] LinearAlgebra
  [56ddb016] Logging
  [8dfed614] Test
Status `/tmp/jl_gzQ2cX/Manifest.toml`
  [621f4979] AbstractFFTs v0.5.0
  [7e558dbc] ArbNumerics v1.2.1
  [b99e7846] BinaryProvider v0.5.10
  [e66e0078] CompilerSupportLibraries_jll v0.3.3+0
  [39dd38d3] Dierckx v0.5.0
  [cd4c43a9] Dierckx_jll v0.0.1+0
  [7a1cc6ca] FFTW v1.2.4
  [f5851436] FFTW_jll v3.3.9+5
  [01680d73] GenericSVD v0.3.0
  [c145ed77] GenericSchur v0.4.0
  [1d5cc7b8] IntelOpenMP_jll v2018.0.3+0
  [856f044c] MKL_jll v2020.2.254+0
  [efe28fd5] OpenSpecFun_jll v0.5.3+3
  [0d4725de] Readables v0.3.3
  [189a3867] Reexport v0.2.0
  [276daf66] SpecialFunctions v0.10.3
  [0dd23c3e] TwoFAST v0.1.3
  [56f22d72] Artifacts
  [2a0f44e3] Base64
  [ade2ca70] Dates
  [8bb1440f] DelimitedFiles
  [8ba89e20] Distributed
  [b77e0a4c] InteractiveUtils
  [76f85450] LibGit2
  [8f399da3] Libdl
  [37e2e46d] LinearAlgebra
  [56ddb016] Logging
  [d6f4376e] Markdown
  [a63ad114] Mmap
  [44cfe95a] Pkg
  [de0858da] Printf
  [3fa0cd96] REPL
  [9a3f8284] Random
  [ea8e919c] SHA
  [9e88b42a] Serialization
  [6462fe0b] Sockets
  [fa267f1f] TOML
  [8dfed614] Test
  [cf7118a7] UUIDs
  [4ec0a83e] Unicode
    Testing Running tests...
WARNING: could not import Printf.ini_hex into ArbNumerics
WARNING: could not import Printf.ini_HEX into ArbNumerics
t = 0.0 sec (0 allocations: 0 byte, 0.0% gc time)
typeof(t) = NamedTuple{(:value, :time, :bytes, :gctime, :gcstats), Tuple{DataType, Float64, Int64, Float64, Base.GC_Diff}}
TwoFAST.PerformanceStats.TimedType = Union{NamedTuple{(:value, :time, :bytes, :gctime, :gcstats), Tuple{T, Float64, Int64, Float64, Base.GC_Diff}}, Tuple{Any, Float64, Int64, Float64, Base.GC_Diff}} where T
t = 0.0 sec (0 allocations: 0 byte, 0.0% gc time)
t: 0.0 sec (0 allocations: 0 byte, 0.0% gc time)
Testing ξ(r), ℓ=0, ν=-1 ... passed
Testing ξ(r), ℓ=0, ν=0 ... passed
Testing ξ(r), ℓ=0, ν=1 ... passed
Testing ξ(r), ℓ=0, ν=2 ... passed
Testing ξ(r), ℓ=0, ν=3 ... passed
Testing ξ(r), ℓ=1, ν=0 ... passed
Testing ξ(r), ℓ=1, ν=1 ... passed
Testing ξ(r), ℓ=1, ν=2 ... passed
Testing ξ(r), ℓ=1, ν=3 ... passed
Testing ξ(r), ℓ=2, ν=-1 ... passed
Testing ξ(r), ℓ=2, ν=0 ... passed
Testing ξ(r), ℓ=2, ν=1 ... passed
Testing ξ(r), ℓ=2, ν=2 ... passed
Testing ξ(r), ℓ=2, ν=3 ... passed
Testing ξ(r), ℓ=3, ν=-1 ... passed
Testing ξ(r), ℓ=3, ν=0 ... passed
Testing ξ(r), ℓ=3, ν=1 ... passed
Testing ξ(r), ℓ=3, ν=2 ... passed
Testing ξ(r), ℓ=3, ν=3 ... passed
Testing ξ(r), ℓ=4, ν=-1 ... passed
Testing ξ(r), ℓ=4, ν=0 ... passed
Testing ξ(r), ℓ=4, ν=1 ... passed
Testing ξ(r), ℓ=4, ν=2 ... passed
Testing ξ(r), ℓ=4, ν=3 ... passed
Testing ξ(r) ... passed
Testing ξ′(r) ... passed
Testing ξ″(r) ... passed
Calculating fmax: 
  dlrec    = 4
  dlrecRg1 = -4
  q=1.1, R=1.1:	  3.492275 seconds (843.99 k allocations: 53.962 MiB, 1.12% gc time, 91.26% compilation time)

  3.516198 seconds (856.49 k allocations: 54.750 MiB, 1.11% gc time, 91.31% compilation time)
ℓ = 1202
Δℓ = 4
ΔℓRg1 = -4
N = 1600
q = 1.1
kmin = 1.0e-5
kmax = 100000.00000000004
χ0 = 0.023029999999999995
RR = RR.tsv
ℓmax = ℓmax.bin
f21 = f21.bin
kmin = 1.0e-5
kmax = 100000.0
dlrec    = 4
dlrecRg1 = -4
Output size: 5741568 bytes = 0.005347251892089844 GiB
Output size: 51264 bytes = 4.774332046508789e-5 GiB
Reading 'out/F21EllCache'...   0.587383 seconds (426.51 k allocations: 24.994 MiB, 3.59% gc time, 99.59% compilation time)
ellmax: 1202
lmaxcache: 1202
fell[:,1,1] = ComplexF64[3.9583795592771634e-52 - 9.695233714158177e-68im, 3.990121772925759e-52 - 9.772979714843386e-68im]
ell 1202, elapsed: 3.600120544433594e-5
ell 1201, elapsed: 1.0380749702453613
ell 1200, elapsed: 0.0004279613494873047
ell 1199, elapsed: 0.00038313865661621094
ell 1198, elapsed: 0.0003821849822998047
ell 1002, elapsed: 0.008476972579956055
ell 1001, elapsed: 0.000392913818359375
ell 1000, elapsed: 0.00038313865661621094
ell 999, elapsed: 0.0003819465637207031
ell 998, elapsed: 0.0004429817199707031
ell 902, elapsed: 0.004481077194213867
ell 901, elapsed: 0.0004467964172363281
ell 900, elapsed: 0.0004429817199707031
ell 899, elapsed: 0.0004210472106933594
ell 898, elapsed: 0.00042319297790527344
ell 802, elapsed: 0.004190921783447266
ell 801, elapsed: 0.0004329681396484375
ell 800, elapsed: 0.0004169940948486328
ell 799, elapsed: 0.0004258155822753906
ell 798, elapsed: 0.00041794776916503906
ell 702, elapsed: 0.004375934600830078
ell 701, elapsed: 0.0004489421844482422
ell 700, elapsed: 0.00041604042053222656
ell 699, elapsed: 0.00043702125549316406
ell 698, elapsed: 0.0004391670227050781
ell 602, elapsed: 0.004312038421630859
ell 601, elapsed: 0.000431060791015625
ell 600, elapsed: 0.0004119873046875
ell 599, elapsed: 0.00041103363037109375
ell 598, elapsed: 0.00043582916259765625
ell 502, elapsed: 0.004385948181152344
ell 501, elapsed: 0.0004429817199707031
ell 500, elapsed: 0.0004298686981201172
ell 499, elapsed: 0.000431060791015625
ell 498, elapsed: 0.0004220008850097656
ell 402, elapsed: 0.004397153854370117
ell 401, elapsed: 0.00043702125549316406
ell 400, elapsed: 0.0004439353942871094
ell 399, elapsed: 0.00043702125549316406
ell 398, elapsed: 0.00043392181396484375
ell 302, elapsed: 0.004391193389892578
ell 301, elapsed: 0.00043201446533203125
ell 300, elapsed: 0.0004169940948486328
ell 299, elapsed: 0.0004138946533203125
ell 298, elapsed: 0.00043582916259765625
ell 202, elapsed: 0.004121065139770508
ell 201, elapsed: 0.00039505958557128906
ell 200, elapsed: 0.00038909912109375
ell 199, elapsed: 0.00038814544677734375
ell 198, elapsed: 0.00039005279541015625
ell 152, elapsed: 0.0023398399353027344
ell 151, elapsed: 0.00045013427734375
ell 150, elapsed: 0.0004379749298095703
ell 149, elapsed: 0.0004401206970214844
ell 148, elapsed: 0.00043487548828125
ell 127, elapsed: 0.0015270709991455078
ell 126, elapsed: 0.0005118846893310547
ell 125, elapsed: 0.0005028247833251953
ell 124, elapsed: 0.0005118846893310547
ell 123, elapsed: 0.0005109310150146484
ell 114, elapsed: 0.0009789466857910156
ell 113, elapsed: 0.0005099773406982422
ell 112, elapsed: 0.0005049705505371094
ell 111, elapsed: 0.0004749298095703125
ell 110, elapsed: 0.00043082237243652344
ell 102, elapsed: 0.0008099079132080078
ell 101, elapsed: 0.00042700767517089844
ell 100, elapsed: 0.0004470348358154297
ell 99, elapsed: 0.0004210472106933594
ell 98, elapsed: 0.00043892860412597656
ell 97, elapsed: 0.0004889965057373047
ell 96, elapsed: 0.0005130767822265625
ell 95, elapsed: 0.0004820823669433594
ell 94, elapsed: 0.0004608631134033203
ell 93, elapsed: 0.0004930496215820312
ell 92, elapsed: 0.00047087669372558594
ell 91, elapsed: 0.0004799365997314453
ell 90, elapsed: 0.0005221366882324219
ell 89, elapsed: 0.0004661083221435547
ell 88, elapsed: 0.0004677772521972656
ell 87, elapsed: 0.00045800209045410156
ell 86, elapsed: 0.0004589557647705078
ell 85, elapsed: 0.0004811286926269531
ell 84, elapsed: 0.0005018711090087891
ell 83, elapsed: 0.00048613548278808594
ell 82, elapsed: 0.00047898292541503906
ell 81, elapsed: 0.0004839897155761719
ell 80, elapsed: 0.0004949569702148438
ell 79, elapsed: 0.00046706199645996094
ell 78, elapsed: 0.00047707557678222656
ell 77, elapsed: 0.0004611015319824219
ell 76, elapsed: 0.0004899501800537109
ell 75, elapsed: 0.0004630088806152344
ell 74, elapsed: 0.0004649162292480469
ell 73, elapsed: 0.00047016143798828125
ell 72, elapsed: 0.00046896934509277344
ell 71, elapsed: 0.000514984130859375
ell 70, elapsed: 0.0004799365997314453
ell 69, elapsed: 0.0004849433898925781
ell 68, elapsed: 0.0004990100860595703
ell 67, elapsed: 0.0004761219024658203
ell 66, elapsed: 0.00047898292541503906
ell 65, elapsed: 0.00048089027404785156
ell 64, elapsed: 0.00047707557678222656
ell 63, elapsed: 0.0004649162292480469
ell 62, elapsed: 0.0004601478576660156
ell 61, elapsed: 0.0004909038543701172
ell 60, elapsed: 0.0004899501800537109
ell 59, elapsed: 0.0005028247833251953
ell 58, elapsed: 0.0004749298095703125
ell 57, elapsed: 0.00043201446533203125
ell 56, elapsed: 0.00043702125549316406
ell 55, elapsed: 0.0004220008850097656
ell 54, elapsed: 0.00043201446533203125
ell 53, elapsed: 0.0004169940948486328
ell 52, elapsed: 0.0004200935363769531
ell 51, elapsed: 0.0004260540008544922
ell 50, elapsed: 0.00045490264892578125
ell 49, elapsed: 0.000431060791015625
ell 48, elapsed: 0.0004279613494873047
ell 47, elapsed: 0.00043702125549316406
ell 46, elapsed: 0.0004401206970214844
ell 45, elapsed: 0.00042700767517089844
ell 44, elapsed: 0.0004401206970214844
ell 43, elapsed: 0.00042700767517089844
ell 42, elapsed: 0.0004260540008544922
ell 41, elapsed: 0.0004820823669433594
ell 40, elapsed: 0.0004260540008544922
ell 39, elapsed: 0.0004379749298095703
ell 38, elapsed: 0.00042510032653808594
ell 37, elapsed: 0.0004229545593261719
ell 36, elapsed: 0.0004220008850097656
ell 35, elapsed: 0.00043201446533203125
ell 34, elapsed: 0.0004360675811767578
ell 33, elapsed: 0.00046896934509277344
ell 32, elapsed: 0.0004420280456542969
ell 31, elapsed: 0.0004220008850097656
ell 30, elapsed: 0.0004291534423828125
ell 29, elapsed: 0.00043892860412597656
ell 28, elapsed: 0.0004940032958984375
ell 27, elapsed: 0.00045299530029296875
ell 26, elapsed: 0.0004291534423828125
ell 25, elapsed: 0.0004298686981201172
ell 24, elapsed: 0.0004971027374267578
ell 23, elapsed: 0.000431060791015625
ell 22, elapsed: 0.0004367828369140625
ell 21, elapsed: 0.00042891502380371094
ell 20, elapsed: 0.0004241466522216797
ell 19, elapsed: 0.0004260540008544922
ell 18, elapsed: 0.0004298686981201172
ell 17, elapsed: 0.0004329681396484375
ell 16, elapsed: 0.0004601478576660156
ell 15, elapsed: 0.0004048347473144531
ell 14, elapsed: 0.0004029273986816406
ell 13, elapsed: 0.0003960132598876953
ell 12, elapsed: 0.0003991127014160156
ell 11, elapsed: 0.0003972053527832031
ell 10, elapsed: 0.0004019737243652344
ell 9, elapsed: 0.000408172607421875
ell 8, elapsed: 0.000431060791015625
ell 7, elapsed: 0.00042700767517089844
ell 6, elapsed: 0.0004420280456542969
ell 5, elapsed: 0.00043511390686035156
ell 4, elapsed: 0.0004229545593261719
ell 3, elapsed: 0.00042510032653808594
ell 2, elapsed: 0.00043392181396484375
ell 1, elapsed: 0.0004220008850097656
ell 0, elapsed: 0.00043010711669921875
  1.523347 seconds (1.38 M allocations: 74.483 MiB, 1.28% gc time, 91.08% compilation time)
elapsed: 0.0005159378051757812
step:          0.29329 sec (311.14 k allocations: 16.963 MB, 0.0% gc time)
swapping:      0.000396 sec (0 allocations: 0 byte, 0.0% gc time)
calc_Mellell!: 0.111112 sec (135.739 k allocations: 7.431 MB, 0.0% gc time)
  t0 :  0.0 sec (0 allocations: 0 byte, 0.0% gc time)
  tm2 : 0.0 sec (0 allocations: 0 byte, 0.0% gc time)
  tm2s: 0.0 sec (0 allocations: 0 byte, 0.0% gc time)
  tm4 : 0.0 sec (0 allocations: 0 byte, 0.0% gc time)
  tp2 : 0.0 sec (0 allocations: 0 byte, 0.0% gc time)
  tp2s: 0.0 sec (0 allocations: 0 byte, 0.0% gc time)
  tp4 : 0.0 sec (0 allocations: 0 byte, 0.0% gc time)
calc_wtdll!:   0.736564 sec (509.622 k allocations: 28.2 MB, 0.0% gc time)
calc_wljj!:    0.002099 sec (6 allocations: 96 byte, 0.0% gc time)
mult_prefac!:  0.0 sec (0 allocations: 0 byte, 0.0% gc time)
convert:       0.0 sec (0 allocations: 0 byte, 0.0% gc time)
write:         0.003039 sec (0 allocations: 0 byte, 0.0% gc time)
test_rand_2f1: 0.0 sec (0 allocations: 0 byte, 0.0% gc time)
Closing outfile out/Ml21-cache.bin...   0.000011 seconds
  0.888694 seconds (246.23 k allocations: 14.211 MiB, 38.17% compilation time)
make_phi():   0.008918 seconds (8.18 k allocations: 237.844 KiB)
  0.255143 seconds (87.57 k allocations: 4.749 MiB, 13.28% gc time, 81.91% compilation time)
tskip:       1.5e-5 sec (0 allocations: 0 byte, 0.0% gc time)
tread:       0.001836 sec (17 allocations: 2.125 KB, 0.0% gc time)
tmultphi:    0.038813 sec (21.425 k allocations: 1.287 MB, 0.0% gc time)
tbrfft:      0.003144 sec (0 allocations: 0 byte, 0.0% gc time)
tmultprefac: 0.001432 sec (0 allocations: 0 byte, 0.0% gc time)
toutfunc:    0.175094 sec (64.483 k allocations: 3.33 MB, 19.35% gc time)
Testing R=1.1 ... passed
Calculating fmax: 
  dlrec    = 4
  dlrecRg1 = -4
  q=1.1, R=1.0:	  0.001179 seconds (3.20 k allocations: 275.344 KiB)

  0.001266 seconds (3.25 k allocations: 309.984 KiB)
ℓ = 1202
Δℓ = 4
ΔℓRg1 = -4
N = 1600
q = 1.1
kmin = 1.0e-5
kmax = 100000.00000000004
χ0 = 0.023029999999999995
RR = RR.tsv
ℓmax = ℓmax.bin
f21 = f21.bin
kmin = 1.0e-5
kmax = 100000.0
dlrec    = 4
dlrecRg1 = -4
Output size: 61465536 bytes = 0.05724424123764038 GiB
Output size: 51264 bytes = 4.774332046508789e-5 GiB
Reading 'out/F21EllCache'...   0.000928 seconds (197 allocations: 84.203 KiB)
ellmax: 1202
lmaxcache: 1202
fell[:,1,1] = ComplexF64[809.6031528389767 - 1.9829558194077161e-13im, 0.0 + 0.0im]
ell 1202, elapsed: 1.6927719116210938e-5
ell 1201, elapsed: 0.013681173324584961
ell 1200, elapsed: 0.016356945037841797
ell 1199, elapsed: 0.00027108192443847656
ell 1198, elapsed: 0.00027298927307128906
ell 1197, elapsed: 0.0003540515899658203
ell 1196, elapsed: 0.00028586387634277344
ell 1195, elapsed: 0.00029015541076660156
ell 1194, elapsed: 0.00028395652770996094
ell 1193, elapsed: 0.00028514862060546875
ell 1192, elapsed: 0.0003638267517089844
ell 1191, elapsed: 0.00028514862060546875
ell 1190, elapsed: 0.00030303001403808594
ell 1189, elapsed: 0.0002999305725097656
ell 1188, elapsed: 0.00030517578125
ell 1187, elapsed: 0.00029921531677246094
ell 1186, elapsed: 0.00028014183044433594
ell 1185, elapsed: 0.0002880096435546875
ell 1184, elapsed: 0.00027680397033691406
ell 1183, elapsed: 0.0002758502960205078
ell 1182, elapsed: 0.0002758502960205078
ell 1181, elapsed: 0.00027108192443847656
ell 1180, elapsed: 0.0002739429473876953
ell 1179, elapsed: 0.00038695335388183594
ell 1178, elapsed: 0.0002720355987548828
ell 1177, elapsed: 0.0002789497375488281
ell 1176, elapsed: 0.0002720355987548828
ell 1175, elapsed: 0.0002770423889160156
ell 1174, elapsed: 0.00026917457580566406
ell 1173, elapsed: 0.00027489662170410156
ell 1172, elapsed: 0.0002758502960205078
ell 1171, elapsed: 0.00026988983154296875
ell 1170, elapsed: 0.0002770423889160156
ell 1169, elapsed: 0.0002760887145996094
ell 1168, elapsed: 0.0002701282501220703
ell 1167, elapsed: 0.0002760887145996094
ell 1166, elapsed: 0.0002880096435546875
ell 1165, elapsed: 0.00040411949157714844
ell 1164, elapsed: 0.0003018379211425781
ell 1163, elapsed: 0.00028395652770996094
ell 1162, elapsed: 0.00029397010803222656
ell 1161, elapsed: 0.0002951622009277344
ell 1160, elapsed: 0.0002989768981933594
ell 1159, elapsed: 0.0002989768981933594
ell 1158, elapsed: 0.00029397010803222656
ell 1157, elapsed: 0.0003039836883544922
ell 1156, elapsed: 0.0002949237823486328
ell 1155, elapsed: 0.00029397010803222656
ell 1154, elapsed: 0.0002989768981933594
ell 1153, elapsed: 0.0004279613494873047
ell 1152, elapsed: 0.0003058910369873047
ell 1151, elapsed: 0.0002980232238769531
ell 1150, elapsed: 0.0003070831298828125
ell 1149, elapsed: 0.0002989768981933594
ell 1148, elapsed: 0.0003008842468261719
ell 1147, elapsed: 0.0002949237823486328
ell 1146, elapsed: 0.00029587745666503906
ell 1145, elapsed: 0.0002999305725097656
ell 1144, elapsed: 0.0003058910369873047
ell 1143, elapsed: 0.00026297569274902344
ell 1142, elapsed: 0.00025391578674316406
ell 1141, elapsed: 0.0003490447998046875
ell 1140, elapsed: 0.0002999305725097656
ell 1139, elapsed: 0.00030112266540527344
ell 1138, elapsed: 0.0003070831298828125
ell 1137, elapsed: 0.00028896331787109375
ell 1136, elapsed: 0.0002949237823486328
ell 1135, elapsed: 0.0002989768981933594
ell 1134, elapsed: 0.0002951622009277344
ell 1133, elapsed: 0.0003001689910888672
ell 1132, elapsed: 0.00028896331787109375
ell 1131, elapsed: 0.0002949237823486328
ell 1130, elapsed: 0.00030303001403808594
ell 1129, elapsed: 0.00029206275939941406
ell 1128, elapsed: 0.0003790855407714844
ell 1127, elapsed: 0.0002968311309814453
ell 1126, elapsed: 0.00030493736267089844
ell 1125, elapsed: 0.00030517578125
ell 1124, elapsed: 0.0002949237823486328
ell 1123, elapsed: 0.0003027915954589844
ell 1122, elapsed: 0.0002918243408203125
ell 1121, elapsed: 0.0002968311309814453
ell 1120, elapsed: 0.0002999305725097656
ell 1119, elapsed: 0.0002970695495605469
ell 1118, elapsed: 0.000308990478515625
ell 1117, elapsed: 0.00029397010803222656
ell 1116, elapsed: 0.00036907196044921875
ell 1115, elapsed: 0.0003008842468261719
ell 1114, elapsed: 0.00029015541076660156
ell 1113, elapsed: 0.0002980232238769531
ell 1112, elapsed: 0.00028896331787109375
ell 1111, elapsed: 0.0002949237823486328
ell 1110, elapsed: 0.00030684471130371094
ell 1109, elapsed: 0.0002989768981933594
ell 1108, elapsed: 0.0002980232238769531
ell 1107, elapsed: 0.00029087066650390625
ell 1106, elapsed: 0.0002911090850830078
ell 1105, elapsed: 0.0002970695495605469
ell 1104, elapsed: 0.00040078163146972656
ell 1103, elapsed: 0.00030803680419921875
ell 1102, elapsed: 0.0002911090850830078
ell 1101, elapsed: 0.0002930164337158203
ell 1100, elapsed: 0.00030422210693359375
ell 1099, elapsed: 0.00029397010803222656
ell 1098, elapsed: 0.0003039836883544922
ell 1097, elapsed: 0.00028705596923828125
ell 1096, elapsed: 0.00028586387634277344
ell 1095, elapsed: 0.0002970695495605469
ell 1094, elapsed: 0.0002961158752441406
ell 1093, elapsed: 0.0003070831298828125
ell 1092, elapsed: 0.00030112266540527344
ell 1091, elapsed: 0.0003809928894042969
ell 1090, elapsed: 0.00030303001403808594
ell 1089, elapsed: 0.0002989768981933594
ell 1088, elapsed: 0.00030684471130371094
ell 1087, elapsed: 0.0002989768981933594
ell 1086, elapsed: 0.0003039836883544922
ell 1085, elapsed: 0.00030493736267089844
ell 1084, elapsed: 0.0002970695495605469
ell 1083, elapsed: 0.0003020763397216797
ell 1082, elapsed: 0.0002949237823486328
ell 1081, elapsed: 0.0002989768981933594
ell 1080, elapsed: 0.00030303001403808594
ell 1079, elapsed: 0.00041604042053222656
ell 1078, elapsed: 0.0003230571746826172
ell 1077, elapsed: 0.0002970695495605469
ell 1076, elapsed: 0.0003120899200439453
ell 1075, elapsed: 0.0003020763397216797
ell 1074, elapsed: 0.0003058910369873047
ell 1073, elapsed: 0.0003108978271484375
ell 1072, elapsed: 0.00030303001403808594
ell 1071, elapsed: 0.00031304359436035156
ell 1070, elapsed: 0.0003108978271484375
ell 1069, elapsed: 0.00030112266540527344
ell 1068, elapsed: 0.000308990478515625
ell 1067, elapsed: 0.00031280517578125
ell 1066, elapsed: 0.0002529621124267578
ell 1065, elapsed: 0.00024700164794921875
ell 1064, elapsed: 0.000247955322265625
ell 1063, elapsed: 0.00025391578674316406
ell 1062, elapsed: 0.00024509429931640625
ell 1061, elapsed: 0.0002541542053222656
ell 1060, elapsed: 0.0002498626708984375
ell 1059, elapsed: 0.00024509429931640625
ell 1058, elapsed: 0.00025010108947753906
ell 1057, elapsed: 0.0002429485321044922
ell 1056, elapsed: 0.00024890899658203125
ell 1055, elapsed: 0.00024700164794921875
ell 1054, elapsed: 0.000244140625
ell 1053, elapsed: 0.0002498626708984375
ell 1052, elapsed: 0.0002620220184326172
ell 1051, elapsed: 0.00025010108947753906
ell 1050, elapsed: 0.00024390220642089844
ell 1049, elapsed: 0.0002460479736328125
ell 1048, elapsed: 0.00026106834411621094
ell 1047, elapsed: 0.0002448558807373047
ell 1046, elapsed: 0.00025200843811035156
ell 1045, elapsed: 0.00024700164794921875
ell 1044, elapsed: 0.0003120899200439453
ell 1043, elapsed: 0.00030303001403808594
ell 1042, elapsed: 0.0002949237823486328
ell 1041, elapsed: 0.0002999305725097656
ell 1040, elapsed: 0.00029206275939941406
ell 1039, elapsed: 0.0003020763397216797
ell 1038, elapsed: 0.0003161430358886719
ell 1037, elapsed: 0.0002970695495605469
ell 1036, elapsed: 0.0002999305725097656
ell 1035, elapsed: 0.00029397010803222656
ell 1034, elapsed: 0.00030493736267089844
ell 1033, elapsed: 0.00029397010803222656
ell 1032, elapsed: 0.00029206275939941406
ell 1031, elapsed: 0.000347137451171875
ell 1030, elapsed: 0.000308990478515625
ell 1029, elapsed: 0.0003020763397216797
ell 1028, elapsed: 0.0002942085266113281
ell 1027, elapsed: 0.0002918243408203125
ell 1026, elapsed: 0.0003159046173095703
ell 1025, elapsed: 0.0002949237823486328
ell 1024, elapsed: 0.0003020763397216797
ell 1023, elapsed: 0.00029587745666503906
ell 1022, elapsed: 0.0002951622009277344
ell 1021, elapsed: 0.0003008842468261719
ell 1020, elapsed: 0.00029397010803222656
ell 1019, elapsed: 0.0003070831298828125
ell 1018, elapsed: 0.0002999305725097656
ell 1017, elapsed: 0.0002918243408203125
ell 1016, elapsed: 0.00031185150146484375
ell 1015, elapsed: 0.00029206275939941406
ell 1014, elapsed: 0.0002999305725097656
ell 1013, elapsed: 0.0003190040588378906
ell 1012, elapsed: 0.0002930164337158203
ell 1011, elapsed: 0.0002989768981933594
ell 1010, elapsed: 0.0002930164337158203
ell 1009, elapsed: 0.0002942085266113281
ell 1008, elapsed: 0.0002918243408203125
ell 1007, elapsed: 0.00029397010803222656
ell 1006, elapsed: 0.0003139972686767578
ell 1005, elapsed: 0.00029206275939941406
ell 1004, elapsed: 0.0003008842468261719
ell 1003, elapsed: 0.00030994415283203125
ell 1002, elapsed: 0.0002949237823486328
ell 1001, elapsed: 0.0003368854522705078
ell 1000, elapsed: 0.0002968311309814453
ell 999, elapsed: 0.00029587745666503906
ell 998, elapsed: 0.00029206275939941406
ell 997, elapsed: 0.00029015541076660156
ell 996, elapsed: 0.0002980232238769531
ell 995, elapsed: 0.0002949237823486328
ell 994, elapsed: 0.0002989768981933594
ell 993, elapsed: 0.0002942085266113281
ell 992, elapsed: 0.0002899169921875
ell 991, elapsed: 0.0002999305725097656
ell 990, elapsed: 0.00029206275939941406
ell 989, elapsed: 0.0002970695495605469
ell 988, elapsed: 0.00031280517578125
ell 987, elapsed: 0.0003018379211425781
ell 986, elapsed: 0.0002911090850830078
ell 985, elapsed: 0.00029206275939941406
ell 984, elapsed: 0.0002930164337158203
ell 983, elapsed: 0.00029015541076660156
ell 982, elapsed: 0.0002930164337158203
ell 981, elapsed: 0.00028896331787109375
ell 980, elapsed: 0.00028896331787109375
ell 979, elapsed: 0.0003008842468261719
ell 978, elapsed: 0.00029206275939941406
ell 977, elapsed: 0.0002980232238769531
ell 976, elapsed: 0.0002880096435546875
ell 975, elapsed: 0.00032901763916015625
ell 974, elapsed: 0.0002961158752441406
ell 973, elapsed: 0.0002880096435546875
ell 972, elapsed: 0.0003018379211425781
ell 971, elapsed: 0.00028896331787109375
ell 970, elapsed: 0.0002911090850830078
ell 969, elapsed: 0.0002999305725097656
ell 968, elapsed: 0.0002880096435546875
ell 967, elapsed: 0.00029397010803222656
ell 966, elapsed: 0.0002899169921875
ell 965, elapsed: 0.0002968311309814453
ell 964, elapsed: 0.0002970695495605469
ell 963, elapsed: 0.0003070831298828125
ell 962, elapsed: 0.0002999305725097656
ell 961, elapsed: 0.0002899169921875
ell 960, elapsed: 0.0002930164337158203
ell 959, elapsed: 0.0002970695495605469
ell 958, elapsed: 0.00029206275939941406
ell 957, elapsed: 0.0002942085266113281
ell 956, elapsed: 0.0002899169921875
ell 955, elapsed: 0.0002899169921875
ell 954, elapsed: 0.0002949237823486328
ell 953, elapsed: 0.0002849102020263672
ell 952, elapsed: 0.0002961158752441406
ell 951, elapsed: 0.0002880096435546875
ell 950, elapsed: 0.0003261566162109375
ell 949, elapsed: 0.0002949237823486328
ell 948, elapsed: 0.00029087066650390625
ell 947, elapsed: 0.0002961158752441406
ell 946, elapsed: 0.00029087066650390625
ell 945, elapsed: 0.0002911090850830078
ell 944, elapsed: 0.0002970695495605469
ell 943, elapsed: 0.00028896331787109375
ell 942, elapsed: 0.0003180503845214844
ell 941, elapsed: 0.00029015541076660156
ell 940, elapsed: 0.0002911090850830078
ell 939, elapsed: 0.00029397010803222656
ell 938, elapsed: 0.00028705596923828125
ell 937, elapsed: 0.0003409385681152344
ell 936, elapsed: 0.0002968311309814453
ell 935, elapsed: 0.00028586387634277344
ell 934, elapsed: 0.0002849102020263672
ell 933, elapsed: 0.0002799034118652344
ell 932, elapsed: 0.0002980232238769531
ell 931, elapsed: 0.00029206275939941406
ell 930, elapsed: 0.00029397010803222656
ell 929, elapsed: 0.00029087066650390625
ell 928, elapsed: 0.0002849102020263672
ell 927, elapsed: 0.0002970695495605469
ell 926, elapsed: 0.00028705596923828125
ell 925, elapsed: 0.0002949237823486328
ell 924, elapsed: 0.0003619194030761719
ell 923, elapsed: 0.00026988983154296875
ell 922, elapsed: 0.0003058910369873047
ell 921, elapsed: 0.00026988983154296875
ell 920, elapsed: 0.00027298927307128906
ell 919, elapsed: 0.00026798248291015625
ell 918, elapsed: 0.00026702880859375
ell 917, elapsed: 0.0002760887145996094
ell 916, elapsed: 0.0002651214599609375
ell 915, elapsed: 0.0002720355987548828
ell 914, elapsed: 0.0002651214599609375
ell 913, elapsed: 0.00026607513427734375
ell 912, elapsed: 0.00027298927307128906
ell 911, elapsed: 0.00026488304138183594
ell 910, elapsed: 0.00033402442932128906
ell 909, elapsed: 0.00029087066650390625
ell 908, elapsed: 0.0002892017364501953
ell 907, elapsed: 0.0003077983856201172
ell 906, elapsed: 0.0002830028533935547
ell 905, elapsed: 0.0002899169921875
ell 904, elapsed: 0.000286102294921875
ell 903, elapsed: 0.000286102294921875
ell 902, elapsed: 0.00029206275939941406
ell 901, elapsed: 0.0002849102020263672
ell 900, elapsed: 0.0002951622009277344
ell 899, elapsed: 0.00028586387634277344
ell 898, elapsed: 0.00028514862060546875
ell 897, elapsed: 0.00029087066650390625
ell 896, elapsed: 0.0002841949462890625
ell 895, elapsed: 0.0002880096435546875
ell 894, elapsed: 0.000286102294921875
ell 893, elapsed: 0.0002899169921875
ell 892, elapsed: 0.00029921531677246094
ell 891, elapsed: 0.00028395652770996094
ell 890, elapsed: 0.0002980232238769531
ell 889, elapsed: 0.00029087066650390625
ell 888, elapsed: 0.0002918243408203125
ell 887, elapsed: 0.00029206275939941406
ell 886, elapsed: 0.00028896331787109375
ell 885, elapsed: 0.00029087066650390625
ell 884, elapsed: 0.0003018379211425781
ell 883, elapsed: 0.00029087066650390625
ell 882, elapsed: 0.0002961158752441406
ell 881, elapsed: 0.0002880096435546875
ell 880, elapsed: 0.0002970695495605469
ell 879, elapsed: 0.00029397010803222656
ell 878, elapsed: 0.0003008842468261719
ell 877, elapsed: 0.000286102294921875
ell 876, elapsed: 0.0002899169921875
ell 875, elapsed: 0.0002930164337158203
ell 874, elapsed: 0.0002899169921875
ell 873, elapsed: 0.0002930164337158203
ell 872, elapsed: 0.0003211498260498047
ell 871, elapsed: 0.0002880096435546875
ell 870, elapsed: 0.0002970695495605469
ell 869, elapsed: 0.00028896331787109375
ell 868, elapsed: 0.0003008842468261719
ell 867, elapsed: 0.0002942085266113281
ell 866, elapsed: 0.00028896331787109375
ell 865, elapsed: 0.00029397010803222656
ell 864, elapsed: 0.0002880096435546875
ell 863, elapsed: 0.00029587745666503906
ell 862, elapsed: 0.0002970695495605469
ell 861, elapsed: 0.0002918243408203125
ell 860, elapsed: 0.00029206275939941406
ell 859, elapsed: 0.0004220008850097656
ell 858, elapsed: 0.00029397010803222656
ell 857, elapsed: 0.0002961158752441406
ell 856, elapsed: 0.0002949237823486328
ell 855, elapsed: 0.0003001689910888672
ell 854, elapsed: 0.0002899169921875
ell 853, elapsed: 0.0002989768981933594
ell 852, elapsed: 0.00028896331787109375
ell 851, elapsed: 0.00031304359436035156
ell 850, elapsed: 0.0002980232238769531
ell 849, elapsed: 0.00028395652770996094
ell 848, elapsed: 0.0002980232238769531
ell 847, elapsed: 0.0003459453582763672
ell 846, elapsed: 0.0003001689910888672
ell 845, elapsed: 0.0003008842468261719
ell 844, elapsed: 0.0002968311309814453
ell 843, elapsed: 0.0003001689910888672
ell 842, elapsed: 0.0002930164337158203
ell 841, elapsed: 0.0002949237823486328
ell 840, elapsed: 0.00029397010803222656
ell 839, elapsed: 0.0002942085266113281
ell 838, elapsed: 0.00029587745666503906
ell 837, elapsed: 0.0002980232238769531
ell 836, elapsed: 0.0002951622009277344
ell 835, elapsed: 0.0002980232238769531
ell 834, elapsed: 0.00035500526428222656
ell 833, elapsed: 0.0002961158752441406
ell 832, elapsed: 0.0002968311309814453
ell 831, elapsed: 0.0002961158752441406
ell 830, elapsed: 0.0003001689910888672
ell 829, elapsed: 0.000308990478515625
ell 828, elapsed: 0.000308990478515625
ell 827, elapsed: 0.00029587745666503906
ell 826, elapsed: 0.0003039836883544922
ell 825, elapsed: 0.00030303001403808594
ell 824, elapsed: 0.0002980232238769531
ell 823, elapsed: 0.0002961158752441406
ell 822, elapsed: 0.0003249645233154297
ell 821, elapsed: 0.00029397010803222656
ell 820, elapsed: 0.00029397010803222656
ell 819, elapsed: 0.00029206275939941406
ell 818, elapsed: 0.0002989768981933594
ell 817, elapsed: 0.0002942085266113281
ell 816, elapsed: 0.0002930164337158203
ell 815, elapsed: 0.00029206275939941406
ell 814, elapsed: 0.00029397010803222656
ell 813, elapsed: 0.0002980232238769531
ell 812, elapsed: 0.00029206275939941406
ell 811, elapsed: 0.0003008842468261719
ell 810, elapsed: 0.00029206275939941406
ell 809, elapsed: 0.0003268718719482422
ell 808, elapsed: 0.0002951622009277344
ell 807, elapsed: 0.00029587745666503906
ell 806, elapsed: 0.0003070831298828125
ell 805, elapsed: 0.00029397010803222656
ell 804, elapsed: 0.0002980232238769531
ell 803, elapsed: 0.00029397010803222656
ell 802, elapsed: 0.00029397010803222656
ell 801, elapsed: 0.0002942085266113281
ell 800, elapsed: 0.00028896331787109375
ell 799, elapsed: 0.00030112266540527344
ell 798, elapsed: 0.0002989768981933594
ell 797, elapsed: 0.0003008842468261719
ell 796, elapsed: 0.0004329681396484375
ell 795, elapsed: 0.00029587745666503906
ell 794, elapsed: 0.0002980232238769531
ell 793, elapsed: 0.0002999305725097656
ell 792, elapsed: 0.0002911090850830078
ell 791, elapsed: 0.0002980232238769531
ell 790, elapsed: 0.00029397010803222656
ell 789, elapsed: 0.00029587745666503906
ell 788, elapsed: 0.00029587745666503906
ell 787, elapsed: 0.0003039836883544922
ell 786, elapsed: 0.0002970695495605469
ell 785, elapsed: 0.00029397010803222656
ell 784, elapsed: 0.00033020973205566406
ell 783, elapsed: 0.00030493736267089844
ell 782, elapsed: 0.0002970695495605469
ell 781, elapsed: 0.00030112266540527344
ell 780, elapsed: 0.00029587745666503906
ell 779, elapsed: 0.0002999305725097656
ell 778, elapsed: 0.0003020763397216797
ell 777, elapsed: 0.00029397010803222656
ell 776, elapsed: 0.0003008842468261719
ell 775, elapsed: 0.0002949237823486328
ell 774, elapsed: 0.0003020763397216797
ell 773, elapsed: 0.0002970695495605469
ell 772, elapsed: 0.0003218650817871094
ell 771, elapsed: 0.00030493736267089844
ell 770, elapsed: 0.0002930164337158203
ell 769, elapsed: 0.0002961158752441406
ell 768, elapsed: 0.0003039836883544922
ell 767, elapsed: 0.0002911090850830078
ell 766, elapsed: 0.0002968311309814453
ell 765, elapsed: 0.00029397010803222656
ell 764, elapsed: 0.0002980232238769531
ell 763, elapsed: 0.0002911090850830078
ell 762, elapsed: 0.0002930164337158203
ell 761, elapsed: 0.0002949237823486328
ell 760, elapsed: 0.0002949237823486328
ell 759, elapsed: 0.0003800392150878906
ell 758, elapsed: 0.0002930164337158203
ell 757, elapsed: 0.00029397010803222656
ell 756, elapsed: 0.0002989768981933594
ell 755, elapsed: 0.0002930164337158203
ell 754, elapsed: 0.0002999305725097656
ell 753, elapsed: 0.0003008842468261719
ell 752, elapsed: 0.0002980232238769531
ell 751, elapsed: 0.00029397010803222656
ell 750, elapsed: 0.0002970695495605469
ell 749, elapsed: 0.0002970695495605469
ell 748, elapsed: 0.00029397010803222656
ell 747, elapsed: 0.0003211498260498047
ell 746, elapsed: 0.00030112266540527344
ell 745, elapsed: 0.0002961158752441406
ell 744, elapsed: 0.0003039836883544922
ell 743, elapsed: 0.00029397010803222656
ell 742, elapsed: 0.0003039836883544922
ell 741, elapsed: 0.00029587745666503906
ell 740, elapsed: 0.0003020763397216797
ell 739, elapsed: 0.0003039836883544922
ell 738, elapsed: 0.00029587745666503906
ell 737, elapsed: 0.00030517578125
ell 736, elapsed: 0.00030112266540527344
ell 735, elapsed: 0.0002980232238769531
ell 734, elapsed: 0.00033593177795410156
ell 733, elapsed: 0.0002970695495605469
ell 732, elapsed: 0.0003020763397216797
ell 731, elapsed: 0.0002999305725097656
ell 730, elapsed: 0.00029397010803222656
ell 729, elapsed: 0.0002999305725097656
ell 728, elapsed: 0.0002918243408203125
ell 727, elapsed: 0.00030684471130371094
ell 726, elapsed: 0.0002980232238769531
ell 725, elapsed: 0.0002980232238769531
ell 724, elapsed: 0.00030803680419921875
ell 723, elapsed: 0.0002970695495605469
ell 722, elapsed: 0.00037598609924316406
ell 721, elapsed: 0.0002970695495605469
ell 720, elapsed: 0.0002961158752441406
ell 719, elapsed: 0.0003020763397216797
ell 718, elapsed: 0.0002968311309814453
ell 717, elapsed: 0.0003058910369873047
ell 716, elapsed: 0.0003001689910888672
ell 715, elapsed: 0.00030112266540527344
ell 714, elapsed: 0.00029206275939941406
ell 713, elapsed: 0.0002951622009277344
ell 712, elapsed: 0.0002951622009277344
ell 711, elapsed: 0.0002930164337158203
ell 710, elapsed: 0.0002970695495605469
ell 709, elapsed: 0.00031495094299316406
ell 708, elapsed: 0.0002930164337158203
ell 707, elapsed: 0.0003001689910888672
ell 706, elapsed: 0.0002970695495605469
ell 705, elapsed: 0.0003020763397216797
ell 704, elapsed: 0.00029397010803222656
ell 703, elapsed: 0.0003008842468261719
ell 702, elapsed: 0.00030303001403808594
ell 701, elapsed: 0.0002911090850830078
ell 700, elapsed: 0.0003020763397216797
ell 699, elapsed: 0.00029206275939941406
ell 698, elapsed: 0.00029087066650390625
ell 697, elapsed: 0.0003361701965332031
ell 696, elapsed: 0.00029087066650390625
ell 695, elapsed: 0.0002980232238769531
ell 694, elapsed: 0.0002930164337158203
ell 693, elapsed: 0.0002911090850830078
ell 692, elapsed: 0.0002949237823486328
ell 691, elapsed: 0.0002911090850830078
ell 690, elapsed: 0.0003058910369873047
ell 689, elapsed: 0.00029587745666503906
ell 688, elapsed: 0.00030303001403808594
ell 687, elapsed: 0.00029397010803222656
ell 686, elapsed: 0.00029206275939941406
ell 685, elapsed: 0.0002999305725097656
ell 684, elapsed: 0.0003180503845214844
ell 683, elapsed: 0.0002989768981933594
ell 682, elapsed: 0.0002880096435546875
ell 681, elapsed: 0.0002930164337158203
ell 680, elapsed: 0.00030422210693359375
ell 679, elapsed: 0.0002930164337158203
ell 678, elapsed: 0.00030303001403808594
ell 677, elapsed: 0.0002930164337158203
ell 676, elapsed: 0.00029397010803222656
ell 675, elapsed: 0.0003070831298828125
ell 674, elapsed: 0.00029397010803222656
ell 673, elapsed: 0.0003018379211425781
ell 672, elapsed: 0.00030684471130371094
ell 671, elapsed: 0.00029587745666503906
ell 670, elapsed: 0.00029397010803222656
ell 669, elapsed: 0.0002942085266113281
ell 668, elapsed: 0.0002989768981933594
ell 667, elapsed: 0.0002961158752441406
ell 666, elapsed: 0.00029206275939941406
ell 665, elapsed: 0.00030303001403808594
ell 664, elapsed: 0.00029206275939941406
ell 663, elapsed: 0.0002980232238769531
ell 662, elapsed: 0.0002892017364501953
ell 661, elapsed: 0.0003070831298828125
ell 660, elapsed: 0.0002970695495605469
ell 659, elapsed: 0.0003361701965332031
ell 658, elapsed: 0.00030303001403808594
ell 657, elapsed: 0.0002949237823486328
ell 656, elapsed: 0.00030493736267089844
ell 655, elapsed: 0.00029587745666503906
ell 654, elapsed: 0.0002918243408203125
ell 653, elapsed: 0.0002999305725097656
ell 652, elapsed: 0.0002989768981933594
ell 651, elapsed: 0.000308990478515625
ell 650, elapsed: 0.0002970695495605469
ell 649, elapsed: 0.00029397010803222656
ell 648, elapsed: 0.00031304359436035156
ell 647, elapsed: 0.0003228187561035156
ell 646, elapsed: 0.0003170967102050781
ell 645, elapsed: 0.0003120899200439453
ell 644, elapsed: 0.00029397010803222656
ell 643, elapsed: 0.00030303001403808594
ell 642, elapsed: 0.0003008842468261719
ell 641, elapsed: 0.0002989768981933594
ell 640, elapsed: 0.00030493736267089844
ell 639, elapsed: 0.00030493736267089844
ell 638, elapsed: 0.00030612945556640625
ell 637, elapsed: 0.00029397010803222656
ell 636, elapsed: 0.0003108978271484375
ell 635, elapsed: 0.0002999305725097656
ell 634, elapsed: 0.0003409385681152344
ell 633, elapsed: 0.00030493736267089844
ell 632, elapsed: 0.0002949237823486328
ell 631, elapsed: 0.0003008842468261719
ell 630, elapsed: 0.0002949237823486328
ell 629, elapsed: 0.0002911090850830078
ell 628, elapsed: 0.00030303001403808594
ell 627, elapsed: 0.0003018379211425781
ell 626, elapsed: 0.00030994415283203125
ell 625, elapsed: 0.00029587745666503906
ell 624, elapsed: 0.0003077983856201172
ell 623, elapsed: 0.0003008842468261719
ell 622, elapsed: 0.00031113624572753906
ell 621, elapsed: 0.0002989768981933594
ell 620, elapsed: 0.0002980232238769531
ell 619, elapsed: 0.0003039836883544922
ell 618, elapsed: 0.0002949237823486328
ell 617, elapsed: 0.0002930164337158203
ell 616, elapsed: 0.0002989768981933594
ell 615, elapsed: 0.00029397010803222656
ell 614, elapsed: 0.0003008842468261719
ell 613, elapsed: 0.0002930164337158203
ell 612, elapsed: 0.0002911090850830078
ell 611, elapsed: 0.00030493736267089844
ell 610, elapsed: 0.0002951622009277344
ell 609, elapsed: 0.0003669261932373047
ell 608, elapsed: 0.0002951622009277344
ell 607, elapsed: 0.0002999305725097656
ell 606, elapsed: 0.00030112266540527344
ell 605, elapsed: 0.0003020763397216797
ell 604, elapsed: 0.0002989768981933594
ell 603, elapsed: 0.0002911090850830078
ell 602, elapsed: 0.0002911090850830078
ell 601, elapsed: 0.0002989768981933594
ell 600, elapsed: 0.0002999305725097656
ell 599, elapsed: 0.00030112266540527344
ell 598, elapsed: 0.00030112266540527344
ell 597, elapsed: 0.00034499168395996094
ell 596, elapsed: 0.00029206275939941406
ell 595, elapsed: 0.0002980232238769531
ell 594, elapsed: 0.00031280517578125
ell 593, elapsed: 0.0002918243408203125
ell 592, elapsed: 0.0003018379211425781
ell 591, elapsed: 0.00029206275939941406
ell 590, elapsed: 0.00029397010803222656
ell 589, elapsed: 0.0002968311309814453
ell 588, elapsed: 0.0002880096435546875
ell 587, elapsed: 0.00030994415283203125
ell 586, elapsed: 0.00030517578125
ell 585, elapsed: 0.00029397010803222656
ell 584, elapsed: 0.0004260540008544922
ell 583, elapsed: 0.0002970695495605469
ell 582, elapsed: 0.0002980232238769531
ell 581, elapsed: 0.0002930164337158203
ell 580, elapsed: 0.0002930164337158203
ell 579, elapsed: 0.0003018379211425781
ell 578, elapsed: 0.0002980232238769531
ell 577, elapsed: 0.00030303001403808594
ell 576, elapsed: 0.0002951622009277344
ell 575, elapsed: 0.0002930164337158203
ell 574, elapsed: 0.0003008842468261719
ell 573, elapsed: 0.0002899169921875
ell 572, elapsed: 0.0004200935363769531
ell 571, elapsed: 0.0002970695495605469
ell 570, elapsed: 0.00030493736267089844
ell 569, elapsed: 0.00029397010803222656
ell 568, elapsed: 0.0002970695495605469
ell 567, elapsed: 0.00031495094299316406
ell 566, elapsed: 0.0003039836883544922
ell 565, elapsed: 0.0003020763397216797
ell 564, elapsed: 0.0002930164337158203
ell 563, elapsed: 0.00029397010803222656
ell 562, elapsed: 0.0002999305725097656
ell 561, elapsed: 0.00029015541076660156
ell 560, elapsed: 0.0003719329833984375
ell 559, elapsed: 0.00030303001403808594
ell 558, elapsed: 0.0002930164337158203
ell 557, elapsed: 0.0003018379211425781
ell 556, elapsed: 0.0002930164337158203
ell 555, elapsed: 0.0002968311309814453
ell 554, elapsed: 0.0002951622009277344
ell 553, elapsed: 0.002434968948364258
ell 552, elapsed: 0.0003390312194824219
ell 551, elapsed: 0.0003077983856201172
ell 550, elapsed: 0.0008790493011474609
ell 549, elapsed: 0.00030303001403808594
ell 548, elapsed: 0.00030493736267089844
ell 547, elapsed: 0.0003001689910888672
ell 546, elapsed: 0.00040912628173828125
ell 545, elapsed: 0.00030517578125
ell 544, elapsed: 0.0003440380096435547
ell 543, elapsed: 0.0003771781921386719
ell 542, elapsed: 0.00029921531677246094
ell 541, elapsed: 0.00030803680419921875
ell 540, elapsed: 0.0003819465637207031
ell 539, elapsed: 0.0002999305725097656
ell 538, elapsed: 0.00031304359436035156
ell 537, elapsed: 0.00037407875061035156
ell 536, elapsed: 0.00030493736267089844
ell 535, elapsed: 0.0003070831298828125
ell 534, elapsed: 0.000370025634765625
ell 533, elapsed: 0.00031185150146484375
ell 532, elapsed: 0.0003008842468261719
ell 531, elapsed: 0.0003027915954589844
ell 530, elapsed: 0.0004229545593261719
ell 529, elapsed: 0.0002968311309814453
ell 528, elapsed: 0.000370025634765625
ell 527, elapsed: 0.00031113624572753906
ell 526, elapsed: 0.0003008842468261719
ell 525, elapsed: 0.0003058910369873047
ell 524, elapsed: 0.0003750324249267578
ell 523, elapsed: 0.0003180503845214844
ell 522, elapsed: 0.00030803680419921875
ell 521, elapsed: 0.0004131793975830078
ell 520, elapsed: 0.00031280517578125
ell 519, elapsed: 0.00030303001403808594
ell 518, elapsed: 0.00038504600524902344
ell 517, elapsed: 0.0003070831298828125
ell 516, elapsed: 0.00031304359436035156
ell 515, elapsed: 0.00038504600524902344
ell 514, elapsed: 0.0003008842468261719
ell 513, elapsed: 0.0003018379211425781
ell 512, elapsed: 0.00037789344787597656
ell 511, elapsed: 0.000308990478515625
ell 510, elapsed: 0.00032806396484375
ell 509, elapsed: 0.0002930164337158203
ell 508, elapsed: 0.0003879070281982422
ell 507, elapsed: 0.0002980232238769531
ell 506, elapsed: 0.0003058910369873047
ell 505, elapsed: 0.00038814544677734375
ell 504, elapsed: 0.0002989768981933594
ell 503, elapsed: 0.00036978721618652344
ell 502, elapsed: 0.0003070831298828125
ell 501, elapsed: 0.0003020763397216797
ell 500, elapsed: 0.00037097930908203125
ell 499, elapsed: 0.0003008842468261719
ell 498, elapsed: 0.0004341602325439453
ell 497, elapsed: 0.0002980232238769531
ell 496, elapsed: 0.002238035202026367
ell 495, elapsed: 0.0002980232238769531
ell 494, elapsed: 0.0003070831298828125
ell 493, elapsed: 0.00037407875061035156
ell 492, elapsed: 0.0002961158752441406
ell 491, elapsed: 0.0002799034118652344
ell 490, elapsed: 0.00033593177795410156
ell 489, elapsed: 0.0002779960632324219
ell 488, elapsed: 0.0002830028533935547
ell 487, elapsed: 0.0003390312194824219
ell 486, elapsed: 0.00028705596923828125
ell 485, elapsed: 0.00027298927307128906
ell 484, elapsed: 0.0002830028533935547
ell 483, elapsed: 0.0002770423889160156
ell 482, elapsed: 0.0002720355987548828
ell 481, elapsed: 0.00028204917907714844
ell 480, elapsed: 0.0002720355987548828
ell 479, elapsed: 0.0003437995910644531
ell 478, elapsed: 0.00029397010803222656
ell 477, elapsed: 0.0003020763397216797
ell 476, elapsed: 0.00030493736267089844
ell 475, elapsed: 0.0002989768981933594
ell 474, elapsed: 0.0003108978271484375
ell 473, elapsed: 0.00030493736267089844
ell 472, elapsed: 0.0002980232238769531
ell 471, elapsed: 0.000308990478515625
ell 470, elapsed: 0.00030517578125
ell 469, elapsed: 0.00030493736267089844
ell 468, elapsed: 0.0002999305725097656
ell 467, elapsed: 0.0003261566162109375
ell 466, elapsed: 0.00039196014404296875
ell 465, elapsed: 0.0003001689910888672
ell 464, elapsed: 0.00030493736267089844
ell 463, elapsed: 0.0002989768981933594
ell 462, elapsed: 0.0002999305725097656
ell 461, elapsed: 0.00031280517578125
ell 460, elapsed: 0.00030493736267089844
ell 459, elapsed: 0.0003898143768310547
ell 458, elapsed: 0.0002999305725097656
ell 457, elapsed: 0.0003609657287597656
ell 456, elapsed: 0.0002961158752441406
ell 455, elapsed: 0.00030112266540527344
ell 454, elapsed: 0.0003070831298828125
ell 453, elapsed: 0.00030303001403808594
ell 452, elapsed: 0.0003120899200439453
ell 451, elapsed: 0.0003020763397216797
ell 450, elapsed: 0.000308990478515625
ell 449, elapsed: 0.0003209114074707031
ell 448, elapsed: 0.0003108978271484375
ell 447, elapsed: 0.0003139972686767578
ell 446, elapsed: 0.00031185150146484375
ell 445, elapsed: 0.000308990478515625
ell 444, elapsed: 0.0003120899200439453
ell 443, elapsed: 0.00039386749267578125
ell 442, elapsed: 0.0003161430358886719
ell 441, elapsed: 0.0002999305725097656
ell 440, elapsed: 0.00035691261291503906
ell 439, elapsed: 0.00031495094299316406
ell 438, elapsed: 0.0003387928009033203
ell 437, elapsed: 0.0003609657287597656
ell 436, elapsed: 0.0003039836883544922
ell 435, elapsed: 0.0002970695495605469
ell 434, elapsed: 0.0003809928894042969
ell 433, elapsed: 0.00030612945556640625
ell 432, elapsed: 0.0003230571746826172
ell 431, elapsed: 0.00035309791564941406
ell 430, elapsed: 0.0003120899200439453
ell 429, elapsed: 0.00030493736267089844
ell 428, elapsed: 0.0003039836883544922
ell 427, elapsed: 0.0003559589385986328
ell 426, elapsed: 0.00030612945556640625
ell 425, elapsed: 0.00030994415283203125
ell 424, elapsed: 0.0003600120544433594
ell 423, elapsed: 0.000308990478515625
ell 422, elapsed: 0.0003161430358886719
ell 421, elapsed: 0.0003120899200439453
ell 420, elapsed: 0.0004019737243652344
ell 419, elapsed: 0.0003039836883544922
ell 418, elapsed: 0.00030112266540527344
ell 417, elapsed: 0.0003638267517089844
ell 416, elapsed: 0.00030612945556640625
ell 415, elapsed: 0.0003120899200439453
ell 414, elapsed: 0.0003027915954589844
ell 413, elapsed: 0.00030803680419921875
ell 412, elapsed: 0.0003151893615722656
ell 411, elapsed: 0.00031113624572753906
ell 410, elapsed: 0.0005261898040771484
ell 409, elapsed: 0.0003180503845214844
ell 408, elapsed: 0.00030517578125
ell 407, elapsed: 0.0005550384521484375
ell 406, elapsed: 0.00030803680419921875
ell 405, elapsed: 0.00031113624572753906
ell 404, elapsed: 0.0005319118499755859
ell 403, elapsed: 0.00030994415283203125
ell 402, elapsed: 0.000308990478515625
ell 401, elapsed: 0.0005488395690917969
ell 400, elapsed: 0.00030994415283203125
ell 399, elapsed: 0.00033593177795410156
ell 398, elapsed: 0.0008280277252197266
ell 397, elapsed: 0.0002989768981933594
ell 396, elapsed: 0.00030493736267089844
ell 395, elapsed: 0.00030303001403808594
ell 394, elapsed: 0.0005109310150146484
ell 393, elapsed: 0.000308990478515625
ell 392, elapsed: 0.0002980232238769531
ell 391, elapsed: 0.0003299713134765625
ell 390, elapsed: 0.00032711029052734375
ell 389, elapsed: 0.00029587745666503906
ell 388, elapsed: 0.00030112266540527344
ell 387, elapsed: 0.0002970695495605469
ell 386, elapsed: 0.00029397010803222656
ell 385, elapsed: 0.00030517578125
ell 384, elapsed: 0.00030994415283203125
ell 383, elapsed: 0.000308990478515625
ell 382, elapsed: 0.0011391639709472656
ell 381, elapsed: 0.00035119056701660156
ell 380, elapsed: 0.00031113624572753906
ell 379, elapsed: 0.0005650520324707031
ell 378, elapsed: 0.00030612945556640625
ell 377, elapsed: 0.0005280971527099609
ell 376, elapsed: 0.0003018379211425781
ell 375, elapsed: 0.00029397010803222656
ell 374, elapsed: 0.00038695335388183594
ell 373, elapsed: 0.0003039836883544922
ell 372, elapsed: 0.0003750324249267578
ell 371, elapsed: 0.0003299713134765625
ell 370, elapsed: 0.00036597251892089844
ell 369, elapsed: 0.00030803680419921875
ell 368, elapsed: 0.00036215782165527344
ell 367, elapsed: 0.0002980232238769531
ell 366, elapsed: 0.00030803680419921875
ell 365, elapsed: 0.0003108978271484375
ell 364, elapsed: 0.0003058910369873047
ell 363, elapsed: 0.0003581047058105469
ell 362, elapsed: 0.0014259815216064453
ell 361, elapsed: 0.00030684471130371094
ell 360, elapsed: 0.0003120899200439453
ell 359, elapsed: 0.00032591819763183594
ell 358, elapsed: 0.0003910064697265625
ell 357, elapsed: 0.0003008842468261719
ell 356, elapsed: 0.0002980232238769531
ell 355, elapsed: 0.0002980232238769531
ell 354, elapsed: 0.0002899169921875
ell 353, elapsed: 0.0002968311309814453
ell 352, elapsed: 0.00029087066650390625
ell 351, elapsed: 0.0002942085266113281
ell 350, elapsed: 0.00033402442932128906
ell 349, elapsed: 0.0002899169921875
ell 348, elapsed: 0.00030303001403808594
ell 347, elapsed: 0.0002999305725097656
ell 346, elapsed: 0.0002980232238769531
ell 345, elapsed: 0.00030303001403808594
ell 344, elapsed: 0.0002980232238769531
ell 343, elapsed: 0.00030803680419921875
ell 342, elapsed: 0.00029397010803222656
ell 341, elapsed: 0.0002951622009277344
ell 340, elapsed: 0.00030112266540527344
ell 339, elapsed: 0.0002970695495605469
ell 338, elapsed: 0.0004138946533203125
ell 337, elapsed: 0.0003008842468261719
ell 336, elapsed: 0.0002968311309814453
ell 335, elapsed: 0.00031495094299316406
ell 334, elapsed: 0.0002989768981933594
ell 333, elapsed: 0.000308990478515625
ell 332, elapsed: 0.00030112266540527344
ell 331, elapsed: 0.0003018379211425781
ell 330, elapsed: 0.00029397010803222656
ell 329, elapsed: 0.0002989768981933594
ell 328, elapsed: 0.0003027915954589844
ell 327, elapsed: 0.0002999305725097656
ell 326, elapsed: 0.0004088878631591797
ell 325, elapsed: 0.00030517578125
ell 324, elapsed: 0.0002911090850830078
ell 323, elapsed: 0.0002999305725097656
ell 322, elapsed: 0.00030803680419921875
ell 321, elapsed: 0.00030493736267089844
ell 320, elapsed: 0.0002989768981933594
ell 319, elapsed: 0.00029397010803222656
ell 318, elapsed: 0.0003070831298828125
ell 317, elapsed: 0.0003008842468261719
ell 316, elapsed: 0.0003039836883544922
ell 315, elapsed: 0.00029087066650390625
ell 314, elapsed: 0.0002980232238769531
ell 313, elapsed: 0.00039005279541015625
ell 312, elapsed: 0.0002760887145996094
ell 311, elapsed: 0.0002758502960205078
ell 310, elapsed: 0.0002770423889160156
ell 309, elapsed: 0.0002720355987548828
ell 308, elapsed: 0.00027680397033691406
ell 307, elapsed: 0.0002739429473876953
ell 306, elapsed: 0.0002751350402832031
ell 305, elapsed: 0.0002701282501220703
ell 304, elapsed: 0.00027108192443847656
ell 303, elapsed: 0.0002760887145996094
ell 302, elapsed: 0.00027298927307128906
ell 301, elapsed: 0.0002789497375488281
ell 300, elapsed: 0.0003669261932373047
ell 299, elapsed: 0.00029206275939941406
ell 298, elapsed: 0.0003039836883544922
ell 297, elapsed: 0.00030303001403808594
ell 296, elapsed: 0.00030112266540527344
ell 295, elapsed: 0.0002989768981933594
ell 294, elapsed: 0.0003180503845214844
ell 293, elapsed: 0.0003020763397216797
ell 292, elapsed: 0.00030303001403808594
ell 291, elapsed: 0.00030517578125
ell 290, elapsed: 0.00028395652770996094
ell 289, elapsed: 0.0002970695495605469
ell 288, elapsed: 0.0004229545593261719
ell 287, elapsed: 0.0002970695495605469
ell 286, elapsed: 0.0002989768981933594
ell 285, elapsed: 0.0002930164337158203
ell 284, elapsed: 0.00029206275939941406
ell 283, elapsed: 0.0002951622009277344
ell 282, elapsed: 0.0002930164337158203
ell 281, elapsed: 0.0003070831298828125
ell 280, elapsed: 0.00029397010803222656
ell 279, elapsed: 0.0003020763397216797
ell 278, elapsed: 0.0002930164337158203
ell 277, elapsed: 0.0002970695495605469
ell 276, elapsed: 0.0002968311309814453
ell 275, elapsed: 0.0025119781494140625
ell 274, elapsed: 0.0002999305725097656
ell 273, elapsed: 0.00029397010803222656
ell 272, elapsed: 0.00029397010803222656
ell 271, elapsed: 0.0002961158752441406
ell 270, elapsed: 0.000392913818359375
ell 269, elapsed: 0.0003039836883544922
ell 268, elapsed: 0.00028896331787109375
ell 267, elapsed: 0.00030803680419921875
ell 266, elapsed: 0.00028514862060546875
ell 265, elapsed: 0.0002911090850830078
ell 264, elapsed: 0.000308990478515625
ell 263, elapsed: 0.0002999305725097656
ell 262, elapsed: 0.0003058910369873047
ell 261, elapsed: 0.00029087066650390625
ell 260, elapsed: 0.0002918243408203125
ell 259, elapsed: 0.00029587745666503906
ell 258, elapsed: 0.0002911090850830078
ell 257, elapsed: 0.00849604606628418
ell 256, elapsed: 0.00031495094299316406
ell 255, elapsed: 0.0003020763397216797
ell 254, elapsed: 0.0003039836883544922
ell 253, elapsed: 0.0003020763397216797
ell 252, elapsed: 0.0002999305725097656
ell 251, elapsed: 0.0003001689910888672
ell 250, elapsed: 0.00029397010803222656
ell 249, elapsed: 0.0002949237823486328
ell 248, elapsed: 0.0003039836883544922
ell 247, elapsed: 0.00029778480529785156
ell 246, elapsed: 0.0003001689910888672
ell 245, elapsed: 0.0011119842529296875
ell 244, elapsed: 0.0003001689910888672
ell 243, elapsed: 0.0002980232238769531
ell 242, elapsed: 0.00029397010803222656
ell 241, elapsed: 0.00030303001403808594
ell 240, elapsed: 0.0002930164337158203
ell 239, elapsed: 0.0004119873046875
ell 238, elapsed: 0.0002911090850830078
ell 237, elapsed: 0.0002949237823486328
ell 236, elapsed: 0.0002999305725097656
ell 235, elapsed: 0.0003020763397216797
ell 234, elapsed: 0.0003020763397216797
ell 233, elapsed: 0.00029087066650390625
ell 232, elapsed: 0.0002911090850830078
ell 231, elapsed: 0.0002970695495605469
ell 230, elapsed: 0.0002880096435546875
ell 229, elapsed: 0.00029397010803222656
ell 228, elapsed: 0.00029087066650390625
ell 227, elapsed: 0.0002911090850830078
ell 226, elapsed: 0.0003180503845214844
ell 225, elapsed: 0.0002961158752441406
ell 224, elapsed: 0.0002980232238769531
ell 223, elapsed: 0.0003349781036376953
ell 222, elapsed: 0.0002980232238769531
ell 221, elapsed: 0.0002980232238769531
ell 220, elapsed: 0.00029087066650390625
ell 219, elapsed: 0.00029921531677246094
ell 218, elapsed: 0.00028896331787109375
ell 217, elapsed: 0.00029206275939941406
ell 216, elapsed: 0.00029587745666503906
ell 215, elapsed: 0.0002930164337158203
ell 214, elapsed: 0.0002970695495605469
ell 213, elapsed: 0.0002949237823486328
ell 212, elapsed: 0.0002899169921875
ell 211, elapsed: 0.0002968311309814453
ell 210, elapsed: 0.0003509521484375
ell 209, elapsed: 0.0002980232238769531
ell 208, elapsed: 0.00029206275939941406
ell 207, elapsed: 0.0002989768981933594
ell 206, elapsed: 0.0002930164337158203
ell 205, elapsed: 0.00029206275939941406
ell 204, elapsed: 0.0002949237823486328
ell 203, elapsed: 0.00029087066650390625
ell 202, elapsed: 0.0002989768981933594
ell 201, elapsed: 0.0003001689910888672
ell 200, elapsed: 0.0003001689910888672
ell 199, elapsed: 0.0003027915954589844
ell 198, elapsed: 0.0002961158752441406
ell 197, elapsed: 0.0003509521484375
ell 196, elapsed: 0.00030112266540527344
ell 195, elapsed: 0.00029587745666503906
ell 194, elapsed: 0.0003108978271484375
ell 193, elapsed: 0.0002970695495605469
ell 192, elapsed: 0.00031304359436035156
ell 191, elapsed: 0.0003070831298828125
ell 190, elapsed: 0.0003018379211425781
ell 189, elapsed: 0.000308990478515625
ell 188, elapsed: 0.00030303001403808594
ell 187, elapsed: 0.00030994415283203125
ell 186, elapsed: 0.00030303001403808594
ell 185, elapsed: 0.0003628730773925781
ell 184, elapsed: 0.00030803680419921875
ell 183, elapsed: 0.00030303001403808594
ell 182, elapsed: 0.000308990478515625
ell 181, elapsed: 0.0003039836883544922
ell 180, elapsed: 0.0003070831298828125
ell 179, elapsed: 0.0003039836883544922
ell 178, elapsed: 0.00030493736267089844
ell 177, elapsed: 0.00030803680419921875
ell 176, elapsed: 0.00030803680419921875
ell 175, elapsed: 0.00030612945556640625
ell 174, elapsed: 0.00034308433532714844
ell 173, elapsed: 0.0003268718719482422
ell 172, elapsed: 0.000308990478515625
ell 171, elapsed: 0.0003077983856201172
ell 170, elapsed: 0.00030517578125
ell 169, elapsed: 0.0003001689910888672
ell 168, elapsed: 0.00030517578125
ell 167, elapsed: 0.00030803680419921875
ell 166, elapsed: 0.00030112266540527344
ell 165, elapsed: 0.0003039836883544922
ell 164, elapsed: 0.00030803680419921875
ell 163, elapsed: 0.0002930164337158203
ell 162, elapsed: 0.0003058910369873047
ell 161, elapsed: 0.0003249645233154297
ell 160, elapsed: 0.00030303001403808594
ell 159, elapsed: 0.0002989768981933594
ell 158, elapsed: 0.00029397010803222656
ell 157, elapsed: 0.0003008842468261719
ell 156, elapsed: 0.0002961158752441406
ell 155, elapsed: 0.0003039836883544922
ell 154, elapsed: 0.0002980232238769531
ell 153, elapsed: 0.0003020763397216797
ell 152, elapsed: 0.0002951622009277344
ell 151, elapsed: 0.00030303001403808594
ell 150, elapsed: 0.0003039836883544922
ell 149, elapsed: 0.0002989768981933594
ell 148, elapsed: 0.00033783912658691406
ell 147, elapsed: 0.0002980232238769531
ell 146, elapsed: 0.0002899169921875
ell 145, elapsed: 0.00030112266540527344
ell 144, elapsed: 0.00028896331787109375
ell 143, elapsed: 0.00029587745666503906
ell 142, elapsed: 0.00028896331787109375
ell 141, elapsed: 0.0002970695495605469
ell 140, elapsed: 0.0003020763397216797
ell 139, elapsed: 0.00029587745666503906
ell 138, elapsed: 0.0002989768981933594
ell 137, elapsed: 0.0002968311309814453
ell 136, elapsed: 0.0002899169921875
ell 135, elapsed: 0.00037384033203125
ell 134, elapsed: 0.0003008842468261719
ell 133, elapsed: 0.00030517578125
ell 132, elapsed: 0.00031185150146484375
ell 131, elapsed: 0.0002930164337158203
ell 130, elapsed: 0.000308990478515625
ell 129, elapsed: 0.0002970695495605469
ell 128, elapsed: 0.00029397010803222656
ell 127, elapsed: 0.00028586387634277344
ell 126, elapsed: 0.0002770423889160156
ell 125, elapsed: 0.0002551078796386719
ell 124, elapsed: 0.00024890899658203125
ell 123, elapsed: 0.00025010108947753906
ell 122, elapsed: 0.0002810955047607422
ell 121, elapsed: 0.0002880096435546875
ell 120, elapsed: 0.0002911090850830078
ell 119, elapsed: 0.0002682209014892578
ell 118, elapsed: 0.0002551078796386719
ell 117, elapsed: 0.00024580955505371094
ell 116, elapsed: 0.0002498626708984375
ell 115, elapsed: 0.0002810955047607422
ell 114, elapsed: 0.0002460479736328125
ell 113, elapsed: 0.00024819374084472656
ell 112, elapsed: 0.000244140625
ell 111, elapsed: 0.00025200843811035156
ell 110, elapsed: 0.000247955322265625
ell 109, elapsed: 0.000244140625
ell 108, elapsed: 0.0003180503845214844
ell 107, elapsed: 0.0002639293670654297
ell 106, elapsed: 0.0002551078796386719
ell 105, elapsed: 0.0002961158752441406
ell 104, elapsed: 0.0002880096435546875
ell 103, elapsed: 0.00030303001403808594
ell 102, elapsed: 0.0003018379211425781
ell 101, elapsed: 0.0003039836883544922
ell 100, elapsed: 0.00030112266540527344
ell 99, elapsed: 0.0002970695495605469
ell 98, elapsed: 0.0003008842468261719
ell 97, elapsed: 0.00028204917907714844
ell 96, elapsed: 0.00028705596923828125
ell 95, elapsed: 0.00033593177795410156
ell 94, elapsed: 0.0002880096435546875
ell 93, elapsed: 0.0002999305725097656
ell 92, elapsed: 0.0002911090850830078
ell 91, elapsed: 0.0003101825714111328
ell 90, elapsed: 0.0003020763397216797
ell 89, elapsed: 0.0003101825714111328
ell 88, elapsed: 0.0003001689910888672
ell 87, elapsed: 0.0002961158752441406
ell 86, elapsed: 0.0003008842468261719
ell 85, elapsed: 0.0002970695495605469
ell 84, elapsed: 0.0003039836883544922
ell 83, elapsed: 0.00029397010803222656
ell 82, elapsed: 0.00032806396484375
ell 81, elapsed: 0.0003139972686767578
ell 80, elapsed: 0.0002930164337158203
ell 79, elapsed: 0.0003020763397216797
ell 78, elapsed: 0.0002951622009277344
ell 77, elapsed: 0.00029206275939941406
ell 76, elapsed: 0.0003371238708496094
ell 75, elapsed: 0.00029397010803222656
ell 74, elapsed: 0.0003008842468261719
ell 73, elapsed: 0.0002918243408203125
ell 72, elapsed: 0.0002930164337158203
ell 71, elapsed: 0.0003039836883544922
ell 70, elapsed: 0.0005488395690917969
ell 69, elapsed: 0.00030303001403808594
ell 68, elapsed: 0.0002918243408203125
ell 67, elapsed: 0.00029397010803222656
ell 66, elapsed: 0.0002918243408203125
ell 65, elapsed: 0.0002880096435546875
ell 64, elapsed: 0.00031113624572753906
ell 63, elapsed: 0.00028896331787109375
ell 62, elapsed: 0.0002989768981933594
ell 61, elapsed: 0.0002911090850830078
ell 60, elapsed: 0.0002899169921875
ell 59, elapsed: 0.00029778480529785156
ell 58, elapsed: 0.0012018680572509766
ell 57, elapsed: 0.00030303001403808594
ell 56, elapsed: 0.0002899169921875
ell 55, elapsed: 0.000286102294921875
ell 54, elapsed: 0.00032806396484375
ell 53, elapsed: 0.0002918243408203125
ell 52, elapsed: 0.0002980232238769531
ell 51, elapsed: 0.0002918243408203125
ell 50, elapsed: 0.00029015541076660156
ell 49, elapsed: 0.00029587745666503906
ell 48, elapsed: 0.0010368824005126953
ell 47, elapsed: 0.0002942085266113281
ell 46, elapsed: 0.0002949237823486328
ell 45, elapsed: 0.0002930164337158203
ell 44, elapsed: 0.0003070831298828125
ell 43, elapsed: 0.0002980232238769531
ell 42, elapsed: 0.0003018379211425781
ell 41, elapsed: 0.0002949237823486328
ell 40, elapsed: 0.0002930164337158203
ell 39, elapsed: 0.0002989768981933594
ell 38, elapsed: 0.001161813735961914
ell 37, elapsed: 0.0003180503845214844
ell 36, elapsed: 0.0002930164337158203
ell 35, elapsed: 0.0002951622009277344
ell 34, elapsed: 0.0002951622009277344
ell 33, elapsed: 0.0002949237823486328
ell 32, elapsed: 0.0002999305725097656
ell 31, elapsed: 0.0003001689910888672
ell 30, elapsed: 0.0003020763397216797
ell 29, elapsed: 0.00029015541076660156
ell 28, elapsed: 0.0010759830474853516
ell 27, elapsed: 0.0003070831298828125
ell 26, elapsed: 0.0002930164337158203
ell 25, elapsed: 0.00030112266540527344
ell 24, elapsed: 0.0002930164337158203
ell 23, elapsed: 0.00028896331787109375
ell 22, elapsed: 0.0002980232238769531
ell 21, elapsed: 0.0003070831298828125
ell 20, elapsed: 0.00030303001403808594
ell 19, elapsed: 0.0002949237823486328
ell 18, elapsed: 0.0010950565338134766
ell 17, elapsed: 0.0003170967102050781
ell 16, elapsed: 0.0002999305725097656
ell 15, elapsed: 0.0003058910369873047
ell 14, elapsed: 0.00029397010803222656
ell 13, elapsed: 0.0002989768981933594
ell 12, elapsed: 0.0003039836883544922
ell 11, elapsed: 0.0003058910369873047
ell 10, elapsed: 0.00030517578125
ell 9, elapsed: 0.0003020763397216797
ell 8, elapsed: 0.00109100341796875
ell 7, elapsed: 0.00031495094299316406
ell 6, elapsed: 0.00029087066650390625
ell 5, elapsed: 0.00029397010803222656
ell 4, elapsed: 0.00029397010803222656
ell 3, elapsed: 0.00028896331787109375
ell 2, elapsed: 0.0002970695495605469
ell 1, elapsed: 0.0002930164337158203
ell 0, elapsed: 0.0003020763397216797
  0.440010 seconds (46.03 k allocations: 3.091 MiB, 6.66% compilation time)
elapsed: 0.0003600120544433594
step:          0.050216 sec (0 allocations: 0 byte, 0.0% gc time)
swapping:      0.000425 sec (0 allocations: 0 byte, 0.0% gc time)
calc_Mellell!: 0.005791 sec (0 allocations: 0 byte, 0.0% gc time)
  t0 :  0.001274 sec (0 allocations: 0 byte, 0.0% gc time)
  tm2 : 0.074399 sec (0 allocations: 0 byte, 0.0% gc time)
  tm2s: 0.001035 sec (0 allocations: 0 byte, 0.0% gc time)
  tm4 : 0.179786 sec (0 allocations: 0 byte, 0.0% gc time)
  tp2 : 0.0 sec (0 allocations: 0 byte, 0.0% gc time)
  tp2s: 0.0 sec (0 allocations: 0 byte, 0.0% gc time)
  tp4 : 0.0 sec (0 allocations: 0 byte, 0.0% gc time)
calc_wtdll!:   0.288256 sec (9.9 k allocations: 1.047 MB, 0.0% gc time)
calc_wljj!:    0.020824 sec (689 allocations: 10.766 KB, 0.0% gc time)
mult_prefac!:  0.0 sec (0 allocations: 0 byte, 0.0% gc time)
convert:       0.0 sec (0 allocations: 0 byte, 0.0% gc time)
write:         0.03207 sec (0 allocations: 0 byte, 0.0% gc time)
test_rand_2f1: 0.0 sec (0 allocations: 0 byte, 0.0% gc time)
Closing outfile out/Ml21-cache.bin...   0.000012 seconds
  0.000426 seconds (36 allocations: 27.953 KiB)
make_phi():   0.001554 seconds (8.18 k allocations: 237.844 KiB)
  0.131399 seconds (141.90 k allocations: 3.483 MiB)
tskip:       0.000683 sec (0 allocations: 0 byte, 0.0% gc time)
tread:       0.0205 sec (17 allocations: 10.641 KB, 0.0% gc time)
tmultphi:    0.010311 sec (0 allocations: 0 byte, 0.0% gc time)
tbrfft:      0.035235 sec (0 allocations: 0 byte, 0.0% gc time)
tmultprefac: 0.019126 sec (0 allocations: 0 byte, 0.0% gc time)
toutfunc:    0.042079 sec (127.507 k allocations: 2.312 MB, 0.0% gc time)
Testing R=1.0 ... passed
Calculating fmax: 
  dlrec    = 4
  dlrecRg1 = -4
  q=1.1, R=0.9:	  0.242829 seconds (105.72 k allocations: 15.273 MiB)

  0.242969 seconds (105.77 k allocations: 15.307 MiB)
ℓ = 1202
Δℓ = 4
ΔℓRg1 = -4
N = 1600
q = 1.1
kmin = 1.0e-5
kmax = 100000.00000000004
χ0 = 0.023029999999999995
RR = RR.tsv
ℓmax = ℓmax.bin
f21 = f21.bin
kmin = 1.0e-5
kmax = 100000.0
dlrec    = 4
dlrecRg1 = -4
Output size: 5741568 bytes = 0.005347251892089844 GiB
Output size: 51264 bytes = 4.774332046508789e-5 GiB
Reading 'out/F21EllCache'...   0.000888 seconds (197 allocations: 84.203 KiB)
ellmax: 1202
lmaxcache: 1202
fell[:,1,1] = ComplexF64[1.3482014726274674e-57 - 3.302141236118086e-73im, 1.357860004724329e-57 - 3.3257978169518355e-73im]
ell 1202, elapsed: 1.5020370483398438e-5
ell 1201, elapsed: 0.0003218650817871094
ell 1200, elapsed: 0.0002911090850830078
ell 1199, elapsed: 0.000286102294921875
ell 1198, elapsed: 0.00034809112548828125
ell 1002, elapsed: 0.008500099182128906
ell 1001, elapsed: 0.0002818107604980469
ell 1000, elapsed: 0.0002689361572265625
ell 999, elapsed: 0.0002689361572265625
ell 998, elapsed: 0.00026917457580566406
ell 902, elapsed: 0.004325151443481445
ell 901, elapsed: 0.0002770423889160156
ell 900, elapsed: 0.0002639293670654297
ell 899, elapsed: 0.00026297569274902344
ell 898, elapsed: 0.00026798248291015625
ell 802, elapsed: 0.004313230514526367
ell 801, elapsed: 0.0002739429473876953
ell 800, elapsed: 0.00038313865661621094
ell 799, elapsed: 0.00026488304138183594
ell 798, elapsed: 0.00026297569274902344
ell 702, elapsed: 0.004229068756103516
ell 701, elapsed: 0.00026798248291015625
ell 700, elapsed: 0.0002510547637939453
ell 699, elapsed: 0.00024700164794921875
ell 698, elapsed: 0.0002551078796386719
ell 602, elapsed: 0.004082918167114258
ell 601, elapsed: 0.0002770423889160156
ell 600, elapsed: 0.00026106834411621094
ell 599, elapsed: 0.00026988983154296875
ell 598, elapsed: 0.0002639293670654297
ell 502, elapsed: 0.004277944564819336
ell 501, elapsed: 0.00031495094299316406
ell 500, elapsed: 0.00026988983154296875
ell 499, elapsed: 0.00027179718017578125
ell 498, elapsed: 0.00026988983154296875
ell 402, elapsed: 0.0043010711669921875
ell 401, elapsed: 0.0002808570861816406
ell 400, elapsed: 0.00027298927307128906
ell 399, elapsed: 0.00027108192443847656
ell 398, elapsed: 0.00027298927307128906
ell 302, elapsed: 0.004372119903564453
ell 301, elapsed: 0.0002770423889160156
ell 300, elapsed: 0.0002701282501220703
ell 299, elapsed: 0.0002689361572265625
ell 298, elapsed: 0.00029587745666503906
ell 202, elapsed: 0.004282951354980469
ell 201, elapsed: 0.0002810955047607422
ell 200, elapsed: 0.00027108192443847656
ell 199, elapsed: 0.0002732276916503906
ell 198, elapsed: 0.0002720355987548828
ell 152, elapsed: 0.0021970272064208984
ell 151, elapsed: 0.0003180503845214844
ell 150, elapsed: 0.00027298927307128906
ell 149, elapsed: 0.0002689361572265625
ell 148, elapsed: 0.0002689361572265625
ell 127, elapsed: 0.0011439323425292969
ell 126, elapsed: 0.00026607513427734375
ell 125, elapsed: 0.00026798248291015625
ell 124, elapsed: 0.00026607513427734375
ell 123, elapsed: 0.0002791881561279297
ell 114, elapsed: 0.0006570816040039062
ell 113, elapsed: 0.0002808570861816406
ell 112, elapsed: 0.00026798248291015625
ell 111, elapsed: 0.0002689361572265625
ell 110, elapsed: 0.0002720355987548828
ell 102, elapsed: 0.0006129741668701172
ell 101, elapsed: 0.0002701282501220703
ell 100, elapsed: 0.00026488304138183594
ell 99, elapsed: 0.00026488304138183594
ell 98, elapsed: 0.00026607513427734375
ell 97, elapsed: 0.0003190040588378906
ell 96, elapsed: 0.0003161430358886719
ell 95, elapsed: 0.0003120899200439453
ell 94, elapsed: 0.0003540515899658203
ell 93, elapsed: 0.0003180503845214844
ell 92, elapsed: 0.0003108978271484375
ell 91, elapsed: 0.00031113624572753906
ell 90, elapsed: 0.00030517578125
ell 89, elapsed: 0.0003039836883544922
ell 88, elapsed: 0.0003108978271484375
ell 87, elapsed: 0.00030303001403808594
ell 86, elapsed: 0.00030994415283203125
ell 85, elapsed: 0.00030994415283203125
ell 84, elapsed: 0.00030112266540527344
ell 83, elapsed: 0.00031304359436035156
ell 82, elapsed: 0.0003838539123535156
ell 81, elapsed: 0.00030803680419921875
ell 80, elapsed: 0.00030803680419921875
ell 79, elapsed: 0.0003039836883544922
ell 78, elapsed: 0.0003120899200439453
ell 77, elapsed: 0.0002999305725097656
ell 76, elapsed: 0.0003161430358886719
ell 75, elapsed: 0.00030517578125
ell 74, elapsed: 0.00030803680419921875
ell 73, elapsed: 0.00030994415283203125
ell 72, elapsed: 0.0003020763397216797
ell 71, elapsed: 0.0003161430358886719
ell 70, elapsed: 0.00033593177795410156
ell 69, elapsed: 0.0003139972686767578
ell 68, elapsed: 0.0003101825714111328
ell 67, elapsed: 0.00030803680419921875
ell 66, elapsed: 0.0003120899200439453
ell 65, elapsed: 0.0003070831298828125
ell 64, elapsed: 0.000308990478515625
ell 63, elapsed: 0.0003020763397216797
ell 62, elapsed: 0.00030303001403808594
ell 61, elapsed: 0.00032401084899902344
ell 60, elapsed: 0.0003058910369873047
ell 59, elapsed: 0.0003199577331542969
ell 58, elapsed: 0.0003490447998046875
ell 57, elapsed: 0.0003039836883544922
ell 56, elapsed: 0.0003211498260498047
ell 55, elapsed: 0.0003058910369873047
ell 54, elapsed: 0.0003190040588378906
ell 53, elapsed: 0.0003120899200439453
ell 52, elapsed: 0.0003101825714111328
ell 51, elapsed: 0.0003159046173095703
ell 50, elapsed: 0.00030493736267089844
ell 49, elapsed: 0.0003139972686767578
ell 48, elapsed: 0.00030612945556640625
ell 47, elapsed: 0.00030994415283203125
ell 46, elapsed: 0.0003418922424316406
ell 45, elapsed: 0.00030803680419921875
ell 44, elapsed: 0.00031113624572753906
ell 43, elapsed: 0.00032210350036621094
ell 42, elapsed: 0.00030994415283203125
ell 41, elapsed: 0.00032591819763183594
ell 40, elapsed: 0.00030612945556640625
ell 39, elapsed: 0.00032019615173339844
ell 38, elapsed: 0.000308990478515625
ell 37, elapsed: 0.0003159046173095703
ell 36, elapsed: 0.0003108978271484375
ell 35, elapsed: 0.000308990478515625
ell 34, elapsed: 0.0003650188446044922
ell 33, elapsed: 0.00031685829162597656
ell 32, elapsed: 0.0003077983856201172
ell 31, elapsed: 0.0003170967102050781
ell 30, elapsed: 0.0003070831298828125
ell 29, elapsed: 0.0003218650817871094
ell 28, elapsed: 0.0003139972686767578
ell 27, elapsed: 0.00030803680419921875
ell 26, elapsed: 0.00031685829162597656
ell 25, elapsed: 0.0003058910369873047
ell 24, elapsed: 0.0003199577331542969
ell 23, elapsed: 0.00031113624572753906
ell 22, elapsed: 0.0003540515899658203
ell 21, elapsed: 0.00030684471130371094
ell 20, elapsed: 0.00031304359436035156
ell 19, elapsed: 0.0003180503845214844
ell 18, elapsed: 0.00031113624572753906
ell 17, elapsed: 0.0003151893615722656
ell 16, elapsed: 0.0003120899200439453
ell 15, elapsed: 0.0003070831298828125
ell 14, elapsed: 0.00032210350036621094
ell 13, elapsed: 0.0003108978271484375
ell 12, elapsed: 0.0003161430358886719
ell 11, elapsed: 0.000308990478515625
ell 10, elapsed: 0.0003349781036376953
ell 9, elapsed: 0.0003161430358886719
ell 8, elapsed: 0.0003070831298828125
ell 7, elapsed: 0.00031304359436035156
ell 6, elapsed: 0.0003039836883544922
ell 5, elapsed: 0.000308990478515625
ell 4, elapsed: 0.0003159046173095703
ell 3, elapsed: 0.00030803680419921875
ell 2, elapsed: 0.00031304359436035156
ell 1, elapsed: 0.00030612945556640625
ell 0, elapsed: 0.0003020763397216797
  0.097172 seconds (11.51 k allocations: 719.594 KiB)
elapsed: 0.0003731250762939453
step:          0.048212 sec (0 allocations: 0 byte, 0.0% gc time)
swapping:      0.000328 sec (0 allocations: 0 byte, 0.0% gc time)
calc_Mellell!: 0.000991 sec (0 allocations: 0 byte, 0.0% gc time)
  t0 :  0.00026 sec (0 allocations: 0 byte, 0.0% gc time)
  tm2 : 0.009917 sec (0 allocations: 0 byte, 0.0% gc time)
  tm2s: 0.000214 sec (0 allocations: 0 byte, 0.0% gc time)
  tm4 : 0.025164 sec (0 allocations: 0 byte, 0.0% gc time)
  tp2 : 0.0 sec (0 allocations: 0 byte, 0.0% gc time)
  tp2s: 0.0 sec (0 allocations: 0 byte, 0.0% gc time)
  tp4 : 0.0 sec (0 allocations: 0 byte, 0.0% gc time)
calc_wtdll!:   0.035927 sec (1.344 k allocations: 147.0 KB, 0.0% gc time)
calc_wljj!:    0.002299 sec (6 allocations: 96 byte, 0.0% gc time)
mult_prefac!:  0.0 sec (0 allocations: 0 byte, 0.0% gc time)
convert:       0.0 sec (0 allocations: 0 byte, 0.0% gc time)
write:         0.002781 sec (0 allocations: 0 byte, 0.0% gc time)
test_rand_2f1: 0.0 sec (0 allocations: 0 byte, 0.0% gc time)
Closing outfile out/Ml21-cache.bin...   0.000005 seconds
  0.000253 seconds (36 allocations: 27.953 KiB)
make_phi():   0.001769 seconds (8.18 k allocations: 237.844 KiB)
  0.012091 seconds (11.65 k allocations: 308.688 KiB)
tskip:       1.6e-5 sec (0 allocations: 0 byte, 0.0% gc time)
tread:       0.002036 sec (17 allocations: 2.125 KB, 0.0% gc time)
tmultphi:    0.001008 sec (0 allocations: 0 byte, 0.0% gc time)
tbrfft:      0.003112 sec (0 allocations: 0 byte, 0.0% gc time)
tmultprefac: 0.001966 sec (0 allocations: 0 byte, 0.0% gc time)
toutfunc:    0.003685 sec (10.304 k allocations: 196.0 KB, 0.0% gc time)
Testing R=0.9 ... passed
Calculating fmax: 
  dlrec    = 4
  dlrecRg1 = -4
  q=1.1, R=0.8:	  0.198902 seconds (103.21 k allocations: 14.840 MiB)

  0.199036 seconds (103.26 k allocations: 14.874 MiB)
ℓ = 1202
Δℓ = 4
ΔℓRg1 = -4
N = 1600
q = 1.1
kmin = 1.0e-5
kmax = 100000.00000000004
χ0 = 0.023029999999999995
RR = RR.tsv
ℓmax = ℓmax.bin
f21 = f21.bin
kmin = 1.0e-5
kmax = 100000.0
dlrec    = 4
dlrecRg1 = -4
Output size: 5741568 bytes = 0.005347251892089844 GiB
Output size: 51264 bytes = 4.774332046508789e-5 GiB
Reading 'out/F21EllCache'...   0.021868 seconds (197 allocations: 84.203 KiB, 94.38% gc time)
ellmax: 1202
lmaxcache: 1202
fell[:,1,1] = ComplexF64[7.519068145690986e-120 - 1.8416405474382574e-135im, 7.541664537386155e-120 - 1.847175067190611e-135im]
ell 1202, elapsed: 1.5020370483398438e-5
ell 1201, elapsed: 0.0003628730773925781
ell 1200, elapsed: 0.0002989768981933594
ell 1199, elapsed: 0.0002899169921875
ell 1198, elapsed: 0.00029397010803222656
ell 1002, elapsed: 0.008543014526367188
ell 1001, elapsed: 0.0002779960632324219
ell 1000, elapsed: 0.0002760887145996094
ell 999, elapsed: 0.0002720355987548828
ell 998, elapsed: 0.000270843505859375
ell 902, elapsed: 0.004321098327636719
ell 901, elapsed: 0.0002760887145996094
ell 900, elapsed: 0.000270843505859375
ell 899, elapsed: 0.00031685829162597656
ell 898, elapsed: 0.00027108192443847656
ell 802, elapsed: 0.0043790340423583984
ell 801, elapsed: 0.0002799034118652344
ell 800, elapsed: 0.0002720355987548828
ell 799, elapsed: 0.00027179718017578125
ell 798, elapsed: 0.0002720355987548828
ell 702, elapsed: 0.004472970962524414
ell 701, elapsed: 0.0002799034118652344
ell 700, elapsed: 0.0002751350402832031
ell 699, elapsed: 0.00027298927307128906
ell 698, elapsed: 0.0002720355987548828
ell 602, elapsed: 0.004319906234741211
ell 601, elapsed: 0.0002779960632324219
ell 600, elapsed: 0.00026798248291015625
ell 599, elapsed: 0.00026798248291015625
ell 598, elapsed: 0.0002701282501220703
ell 502, elapsed: 0.0043179988861083984
ell 501, elapsed: 0.0002770423889160156
ell 500, elapsed: 0.0002741813659667969
ell 499, elapsed: 0.00026988983154296875
ell 498, elapsed: 0.00026607513427734375
ell 402, elapsed: 0.004271984100341797
ell 401, elapsed: 0.00026798248291015625
ell 400, elapsed: 0.00026798248291015625
ell 399, elapsed: 0.00026988983154296875
ell 398, elapsed: 0.00028705596923828125
ell 302, elapsed: 0.0043239593505859375
ell 301, elapsed: 0.0002601146697998047
ell 300, elapsed: 0.0002579689025878906
ell 299, elapsed: 0.00025010108947753906
ell 298, elapsed: 0.0002689361572265625
ell 202, elapsed: 0.004168033599853516
ell 201, elapsed: 0.0002739429473876953
ell 200, elapsed: 0.0002701282501220703
ell 199, elapsed: 0.00027298927307128906
ell 198, elapsed: 0.00026798248291015625
ell 152, elapsed: 0.0022568702697753906
ell 151, elapsed: 0.00027179718017578125
ell 150, elapsed: 0.0002701282501220703
ell 149, elapsed: 0.00026416778564453125
ell 148, elapsed: 0.00026679039001464844
ell 127, elapsed: 0.0011539459228515625
ell 126, elapsed: 0.00026416778564453125
ell 125, elapsed: 0.00031185150146484375
ell 124, elapsed: 0.00026297569274902344
ell 123, elapsed: 0.0002620220184326172
ell 114, elapsed: 0.0006351470947265625
ell 113, elapsed: 0.0002601146697998047
ell 112, elapsed: 0.0002620220184326172
ell 111, elapsed: 0.00026798248291015625
ell 110, elapsed: 0.0002620220184326172
ell 102, elapsed: 0.0005888938903808594
ell 101, elapsed: 0.0002639293670654297
ell 100, elapsed: 0.00025582313537597656
ell 99, elapsed: 0.0003008842468261719
ell 98, elapsed: 0.0002579689025878906
ell 97, elapsed: 0.0003020763397216797
ell 96, elapsed: 0.00030112266540527344
ell 95, elapsed: 0.0002989768981933594
ell 94, elapsed: 0.0003018379211425781
ell 93, elapsed: 0.0002989768981933594
ell 92, elapsed: 0.0003018379211425781
ell 91, elapsed: 0.0002970695495605469
ell 90, elapsed: 0.0002999305725097656
ell 89, elapsed: 0.0002999305725097656
ell 88, elapsed: 0.0002999305725097656
ell 87, elapsed: 0.0002949237823486328
ell 86, elapsed: 0.0003478527069091797
ell 85, elapsed: 0.0002949237823486328
ell 84, elapsed: 0.00029397010803222656
ell 83, elapsed: 0.0002989768981933594
ell 82, elapsed: 0.00029277801513671875
ell 81, elapsed: 0.00029778480529785156
ell 80, elapsed: 0.00029397010803222656
ell 79, elapsed: 0.00029587745666503906
ell 78, elapsed: 0.00029206275939941406
ell 77, elapsed: 0.0002899169921875
ell 76, elapsed: 0.0002989768981933594
ell 75, elapsed: 0.0002930164337158203
ell 74, elapsed: 0.00028896331787109375
ell 73, elapsed: 0.00036215782165527344
ell 72, elapsed: 0.00028586387634277344
ell 71, elapsed: 0.0002942085266113281
ell 70, elapsed: 0.0002911090850830078
ell 69, elapsed: 0.0002989768981933594
ell 68, elapsed: 0.00030303001403808594
ell 67, elapsed: 0.00029587745666503906
ell 66, elapsed: 0.00028705596923828125
ell 65, elapsed: 0.00028395652770996094
ell 64, elapsed: 0.00029206275939941406
ell 63, elapsed: 0.00028705596923828125
ell 62, elapsed: 0.0002918243408203125
ell 61, elapsed: 0.00032711029052734375
ell 60, elapsed: 0.0003008842468261719
ell 59, elapsed: 0.00029206275939941406
ell 58, elapsed: 0.0002949237823486328
ell 57, elapsed: 0.0002892017364501953
ell 56, elapsed: 0.00029087066650390625
[...]
ell 782, elapsed: 0.0009920597076416016
ell 781, elapsed: 0.0005390644073486328
ell 780, elapsed: 0.0005490779876708984
ell 779, elapsed: 0.0005891323089599609
ell 778, elapsed: 0.0005519390106201172
ell 772, elapsed: 0.0009768009185791016
ell 771, elapsed: 0.0005400180816650391
ell 770, elapsed: 0.0005500316619873047
ell 769, elapsed: 0.0005540847778320312
ell 768, elapsed: 0.0006041526794433594
ell 762, elapsed: 0.0009701251983642578
ell 761, elapsed: 0.0005400180816650391
ell 760, elapsed: 0.0005369186401367188
ell 759, elapsed: 0.0005319118499755859
ell 758, elapsed: 0.0005459785461425781
ell 752, elapsed: 0.0009889602661132812
ell 751, elapsed: 0.0005490779876708984
ell 750, elapsed: 0.0005471706390380859
ell 749, elapsed: 0.0005388259887695312
ell 748, elapsed: 0.0005409717559814453
ell 742, elapsed: 0.000965118408203125
ell 741, elapsed: 0.0005750656127929688
ell 740, elapsed: 0.0005459785461425781
ell 739, elapsed: 0.0005309581756591797
ell 738, elapsed: 0.0005490779876708984
ell 732, elapsed: 0.0010008811950683594
ell 731, elapsed: 0.0005469322204589844
ell 730, elapsed: 0.00061798095703125
ell 729, elapsed: 0.0005328655242919922
ell 728, elapsed: 0.0005490779876708984
ell 722, elapsed: 0.0009839534759521484
ell 721, elapsed: 0.0005347728729248047
ell 720, elapsed: 0.0005469322204589844
ell 719, elapsed: 0.0005640983581542969
ell 718, elapsed: 0.0005478858947753906
ell 712, elapsed: 0.0009598731994628906
ell 711, elapsed: 0.0005359649658203125
ell 710, elapsed: 0.0005359649658203125
ell 709, elapsed: 0.0005209445953369141
ell 708, elapsed: 0.0005269050598144531
ell 702, elapsed: 0.0009729862213134766
ell 701, elapsed: 0.0005271434783935547
ell 700, elapsed: 0.0005228519439697266
ell 699, elapsed: 0.0005140304565429688
ell 698, elapsed: 0.0005259513854980469
ell 692, elapsed: 0.0009799003601074219
ell 691, elapsed: 0.0005121231079101562
ell 690, elapsed: 0.0005199909210205078
ell 689, elapsed: 0.0005078315734863281
ell 688, elapsed: 0.0005269050598144531
ell 682, elapsed: 0.000926971435546875
ell 681, elapsed: 0.0005109310150146484
ell 680, elapsed: 0.0005550384521484375
ell 679, elapsed: 0.0005190372467041016
ell 678, elapsed: 0.0005059242248535156
ell 672, elapsed: 0.0008900165557861328
ell 671, elapsed: 0.0005159378051757812
ell 670, elapsed: 0.0005199909210205078
ell 669, elapsed: 0.0005178451538085938
ell 668, elapsed: 0.0005629062652587891
ell 662, elapsed: 0.0009088516235351562
ell 661, elapsed: 0.0005190372467041016
ell 660, elapsed: 0.0005280971527099609
ell 659, elapsed: 0.0005300045013427734
ell 658, elapsed: 0.0005359649658203125
ell 652, elapsed: 0.0009710788726806641
ell 651, elapsed: 0.0005259513854980469
ell 650, elapsed: 0.0005178451538085938
ell 649, elapsed: 0.0005040168762207031
ell 648, elapsed: 0.0005190372467041016
ell 642, elapsed: 0.0009350776672363281
ell 641, elapsed: 0.0005459785461425781
ell 640, elapsed: 0.0005290508270263672
ell 639, elapsed: 0.0005249977111816406
ell 638, elapsed: 0.0005319118499755859
ell 632, elapsed: 0.0009291172027587891
ell 631, elapsed: 0.000514984130859375
ell 630, elapsed: 0.0005300045013427734
ell 629, elapsed: 0.0005590915679931641
ell 628, elapsed: 0.0005280971527099609
ell 622, elapsed: 0.0009641647338867188
ell 621, elapsed: 0.0005178451538085938
ell 620, elapsed: 0.0005278587341308594
ell 619, elapsed: 0.0005340576171875
ell 618, elapsed: 0.0006260871887207031
ell 612, elapsed: 0.0009310245513916016
ell 611, elapsed: 0.000514984130859375
ell 610, elapsed: 0.0005350112915039062
ell 609, elapsed: 0.0005249977111816406
ell 608, elapsed: 0.0005269050598144531
ell 602, elapsed: 0.0010180473327636719
ell 601, elapsed: 0.0005369186401367188
ell 600, elapsed: 0.0005240440368652344
ell 599, elapsed: 0.0005211830139160156
ell 598, elapsed: 0.0005359649658203125
ell 592, elapsed: 0.0009691715240478516
ell 591, elapsed: 0.0005781650543212891
ell 590, elapsed: 0.0005540847778320312
ell 589, elapsed: 0.0005440711975097656
ell 588, elapsed: 0.0005450248718261719
ell 582, elapsed: 0.0009899139404296875
ell 581, elapsed: 0.0005288124084472656
ell 580, elapsed: 0.0005869865417480469
ell 579, elapsed: 0.0005412101745605469
ell 578, elapsed: 0.0005340576171875
ell 572, elapsed: 0.0009479522705078125
ell 571, elapsed: 0.0005340576171875
ell 570, elapsed: 0.0005481243133544922
ell 569, elapsed: 0.0005390644073486328
ell 568, elapsed: 0.0005769729614257812
ell 562, elapsed: 0.0009419918060302734
ell 561, elapsed: 0.0005381107330322266
ell 560, elapsed: 0.0005438327789306641
ell 559, elapsed: 0.0005290508270263672
ell 558, elapsed: 0.0005350112915039062
ell 552, elapsed: 0.0010647773742675781
ell 551, elapsed: 0.0005218982696533203
ell 550, elapsed: 0.0005359649658203125
ell 549, elapsed: 0.0005338191986083984
ell 548, elapsed: 0.0005400180816650391
ell 542, elapsed: 0.0009870529174804688
ell 541, elapsed: 0.0005571842193603516
ell 540, elapsed: 0.0005481243133544922
ell 539, elapsed: 0.0005519390106201172
ell 538, elapsed: 0.0005519390106201172
ell 532, elapsed: 0.0009789466857910156
ell 531, elapsed: 0.0005471706390380859
ell 530, elapsed: 0.0005941390991210938
ell 529, elapsed: 0.000537872314453125
ell 528, elapsed: 0.0005459785461425781
ell 522, elapsed: 0.0009520053863525391
ell 521, elapsed: 0.0005350112915039062
ell 520, elapsed: 0.0005459785461425781
ell 519, elapsed: 0.0005850791931152344
ell 518, elapsed: 0.0005390644073486328
ell 512, elapsed: 0.0009539127349853516
ell 511, elapsed: 0.0005340576171875
ell 510, elapsed: 0.0005409717559814453
ell 509, elapsed: 0.0005409717559814453
ell 508, elapsed: 0.000576019287109375
ell 502, elapsed: 0.0009760856628417969
ell 501, elapsed: 0.0005362033843994141
ell 500, elapsed: 0.00055694580078125
ell 499, elapsed: 0.0005440711975097656
ell 498, elapsed: 0.0005459785461425781
ell 492, elapsed: 0.0010008811950683594
ell 491, elapsed: 0.0005340576171875
ell 490, elapsed: 0.000537872314453125
ell 489, elapsed: 0.0005447864532470703
ell 488, elapsed: 0.0005419254302978516
ell 482, elapsed: 0.001013040542602539
ell 481, elapsed: 0.0005941390991210938
ell 480, elapsed: 0.0005369186401367188
ell 479, elapsed: 0.0005338191986083984
ell 478, elapsed: 0.0005469322204589844
ell 472, elapsed: 0.0009889602661132812
ell 471, elapsed: 0.0005359649658203125
ell 470, elapsed: 0.0005908012390136719
ell 469, elapsed: 0.0005559921264648438
ell 468, elapsed: 0.0005559921264648438
ell 462, elapsed: 0.0010099411010742188
ell 461, elapsed: 0.000537872314453125
ell 460, elapsed: 0.0005447864532470703
ell 459, elapsed: 0.0005948543548583984
ell 458, elapsed: 0.0005428791046142578
ell 452, elapsed: 0.0009748935699462891
ell 451, elapsed: 0.0005311965942382812
ell 450, elapsed: 0.0005347728729248047
ell 449, elapsed: 0.0005419254302978516
ell 448, elapsed: 0.0006029605865478516
ell 442, elapsed: 0.0009610652923583984
ell 441, elapsed: 0.0005249977111816406
ell 440, elapsed: 0.0005450248718261719
ell 439, elapsed: 0.0005300045013427734
ell 438, elapsed: 0.0005321502685546875
ell 432, elapsed: 0.0009441375732421875
ell 431, elapsed: 0.0005328655242919922
ell 430, elapsed: 0.0005459785461425781
ell 429, elapsed: 0.0005190372467041016
ell 428, elapsed: 0.0005218982696533203
ell 422, elapsed: 0.0009291172027587891
ell 421, elapsed: 0.0005109310150146484
ell 420, elapsed: 0.0005600452423095703
ell 419, elapsed: 0.0005061626434326172
ell 418, elapsed: 0.0005309581756591797
ell 412, elapsed: 0.0008759498596191406
ell 411, elapsed: 0.0005059242248535156
ell 410, elapsed: 0.0005209445953369141
ell 409, elapsed: 0.0005700588226318359
ell 408, elapsed: 0.0004999637603759766
ell 402, elapsed: 0.0008859634399414062
ell 401, elapsed: 0.0005090236663818359
ell 400, elapsed: 0.0005118846893310547
ell 399, elapsed: 0.0005009174346923828
ell 398, elapsed: 0.0005159378051757812
ell 392, elapsed: 0.0009119510650634766
ell 391, elapsed: 0.0005140304565429688
ell 390, elapsed: 0.0005211830139160156
ell 389, elapsed: 0.0005249977111816406
ell 388, elapsed: 0.0005259513854980469
ell 382, elapsed: 0.0008819103240966797
ell 381, elapsed: 0.0005679130554199219
ell 380, elapsed: 0.0005140304565429688
ell 379, elapsed: 0.0005168914794921875
ell 378, elapsed: 0.0005269050598144531
ell 372, elapsed: 0.0008909702301025391
ell 371, elapsed: 0.0005140304565429688
ell 370, elapsed: 0.0005209445953369141
ell 369, elapsed: 0.0005300045013427734
ell 368, elapsed: 0.0005249977111816406
ell 362, elapsed: 0.0009148120880126953
ell 361, elapsed: 0.0005190372467041016
ell 360, elapsed: 0.0005290508270263672
ell 359, elapsed: 0.0005140304565429688
ell 358, elapsed: 0.0005600452423095703
ell 352, elapsed: 0.0009131431579589844
ell 351, elapsed: 0.0005061626434326172
ell 350, elapsed: 0.0005230903625488281
ell 349, elapsed: 0.0005061626434326172
ell 348, elapsed: 0.0005171298980712891
ell 342, elapsed: 0.0009479522705078125
ell 341, elapsed: 0.0005180835723876953
ell 340, elapsed: 0.0005171298980712891
ell 339, elapsed: 0.0005040168762207031
ell 338, elapsed: 0.0005269050598144531
ell 332, elapsed: 0.000885009765625
ell 331, elapsed: 0.0005159378051757812
ell 330, elapsed: 0.0005719661712646484
ell 329, elapsed: 0.0005199909210205078
ell 328, elapsed: 0.0005290508270263672
ell 322, elapsed: 0.0008800029754638672
ell 321, elapsed: 0.0005140304565429688
ell 320, elapsed: 0.0005140304565429688
ell 319, elapsed: 0.0005071163177490234
ell 318, elapsed: 0.0005578994750976562
ell 312, elapsed: 0.0009438991546630859
ell 311, elapsed: 0.0005288124084472656
ell 310, elapsed: 0.0005400180816650391
ell 309, elapsed: 0.0005209445953369141
ell 308, elapsed: 0.0005359649658203125
ell 302, elapsed: 0.0009851455688476562
ell 301, elapsed: 0.0005261898040771484
ell 300, elapsed: 0.0005340576171875
ell 299, elapsed: 0.0005228519439697266
ell 298, elapsed: 0.0005409717559814453
ell 292, elapsed: 0.0009520053863525391
ell 291, elapsed: 0.0005619525909423828
ell 290, elapsed: 0.0005350112915039062
ell 289, elapsed: 0.0005288124084472656
ell 288, elapsed: 0.0005409717559814453
ell 282, elapsed: 0.0009229183197021484
ell 281, elapsed: 0.0005140304565429688
ell 280, elapsed: 0.0005571842193603516
ell 279, elapsed: 0.0005280971527099609
ell 278, elapsed: 0.0005481243133544922
ell 272, elapsed: 0.0009520053863525391
ell 271, elapsed: 0.0005261898040771484
ell 270, elapsed: 0.0005450248718261719
ell 269, elapsed: 0.0005321502685546875
ell 268, elapsed: 0.0005869865417480469
ell 262, elapsed: 0.001007080078125
ell 261, elapsed: 0.0005459785461425781
ell 260, elapsed: 0.0005388259887695312
ell 259, elapsed: 0.0005359649658203125
ell 258, elapsed: 0.0005459785461425781
ell 252, elapsed: 0.0010290145874023438
ell 251, elapsed: 0.0005381107330322266
ell 250, elapsed: 0.0005490779876708984
ell 249, elapsed: 0.0005328655242919922
ell 248, elapsed: 0.0005488395690917969
ell 242, elapsed: 0.0010461807250976562
ell 241, elapsed: 0.0005159378051757812
ell 240, elapsed: 0.000537872314453125
ell 239, elapsed: 0.0005090236663818359
ell 238, elapsed: 0.0005280971527099609
ell 232, elapsed: 0.0009279251098632812
ell 231, elapsed: 0.0005199909210205078
ell 230, elapsed: 0.0005598068237304688
ell 229, elapsed: 0.0005381107330322266
ell 228, elapsed: 0.0005300045013427734
ell 222, elapsed: 0.0009551048278808594
ell 221, elapsed: 0.0005190372467041016
ell 220, elapsed: 0.0005300045013427734
ell 219, elapsed: 0.0005650520324707031
ell 218, elapsed: 0.0005478858947753906
ell 212, elapsed: 0.0009739398956298828
ell 211, elapsed: 0.0005350112915039062
ell 210, elapsed: 0.0011539459228515625
ell 209, elapsed: 0.0007269382476806641
ell 208, elapsed: 0.0005550384521484375
ell 202, elapsed: 0.0009529590606689453
ell 201, elapsed: 0.000514984130859375
ell 200, elapsed: 0.0005331039428710938
ell 199, elapsed: 0.0005261898040771484
ell 198, elapsed: 0.004612922668457031
ell 192, elapsed: 0.0009510517120361328
ell 191, elapsed: 0.0004680156707763672
ell 190, elapsed: 0.00047779083251953125
ell 189, elapsed: 0.0005221366882324219
ell 188, elapsed: 0.0005519390106201172
ell 182, elapsed: 0.0010142326354980469
ell 181, elapsed: 0.0005459785461425781
ell 180, elapsed: 0.00055694580078125
ell 179, elapsed: 0.0005431175231933594
ell 178, elapsed: 0.0005688667297363281
ell 172, elapsed: 0.000949859619140625
ell 171, elapsed: 0.0005409717559814453
ell 170, elapsed: 0.0005488395690917969
ell 169, elapsed: 0.0005230903625488281
ell 168, elapsed: 0.0005369186401367188
ell 162, elapsed: 0.0009500980377197266
ell 161, elapsed: 0.0005171298980712891
ell 160, elapsed: 0.0005190372467041016
ell 159, elapsed: 0.0005581378936767578
ell 158, elapsed: 0.0005400180816650391
ell 152, elapsed: 0.0009410381317138672
ell 151, elapsed: 0.0005290508270263672
ell 150, elapsed: 0.0005390644073486328
ell 149, elapsed: 0.00046706199645996094
ell 148, elapsed: 0.0004558563232421875
ell 142, elapsed: 0.0008411407470703125
ell 141, elapsed: 0.0005249977111816406
ell 140, elapsed: 0.0004761219024658203
ell 139, elapsed: 0.0004451274871826172
ell 138, elapsed: 0.0004851818084716797
ell 132, elapsed: 0.0008881092071533203
ell 131, elapsed: 0.0006361007690429688
ell 130, elapsed: 0.0004589557647705078
ell 129, elapsed: 0.00043702125549316406
ell 128, elapsed: 0.0004589557647705078
ell 122, elapsed: 0.0007541179656982422
ell 121, elapsed: 0.0004401206970214844
ell 120, elapsed: 0.0004489421844482422
ell 119, elapsed: 0.0004410743713378906
ell 118, elapsed: 0.0004711151123046875
ell 112, elapsed: 0.0007708072662353516
ell 111, elapsed: 0.00043892860412597656
ell 110, elapsed: 0.0004470348358154297
ell 109, elapsed: 0.0004401206970214844
ell 108, elapsed: 0.0004649162292480469
ell 102, elapsed: 0.0007760524749755859
ell 101, elapsed: 0.0020279884338378906
ell 100, elapsed: 0.0019898414611816406
ell 99, elapsed: 0.0020058155059814453
ell 98, elapsed: 0.0019488334655761719
ell 92, elapsed: 0.0043048858642578125
ell 91, elapsed: 0.002213001251220703
ell 90, elapsed: 0.0022878646850585938
ell 89, elapsed: 0.0022521018981933594
ell 88, elapsed: 0.002279043197631836
ell 82, elapsed: 0.004317045211791992
ell 81, elapsed: 0.0022509098052978516
ell 80, elapsed: 0.002302885055541992
ell 79, elapsed: 0.0023059844970703125
ell 78, elapsed: 0.0022919178009033203
ell 72, elapsed: 0.004418134689331055
ell 71, elapsed: 0.002353191375732422
ell 70, elapsed: 0.0023169517517089844
ell 69, elapsed: 0.002302885055541992
ell 68, elapsed: 0.0023779869079589844
ell 62, elapsed: 0.004485130310058594
ell 61, elapsed: 0.0023279190063476562
ell 60, elapsed: 0.0023469924926757812
ell 59, elapsed: 0.0023479461669921875
ell 58, elapsed: 0.002321004867553711
ell 52, elapsed: 0.004433155059814453
ell 51, elapsed: 0.0022199153900146484
ell 50, elapsed: 0.001987934112548828
ell 49, elapsed: 0.0020551681518554688
ell 48, elapsed: 0.0020279884338378906
ell 42, elapsed: 0.004275083541870117
ell 41, elapsed: 0.0023767948150634766
ell 40, elapsed: 0.002293109893798828
ell 39, elapsed: 0.0022881031036376953
ell 38, elapsed: 0.0022652149200439453
ell 32, elapsed: 0.004510164260864258
ell 31, elapsed: 0.0023870468139648438
ell 30, elapsed: 0.002299070358276367
ell 29, elapsed: 0.0023529529571533203
ell 28, elapsed: 0.0023169517517089844
ell 22, elapsed: 0.00425410270690918
ell 21, elapsed: 0.0022459030151367188
ell 20, elapsed: 0.002276897430419922
ell 19, elapsed: 0.0022461414337158203
ell 18, elapsed: 0.009712934494018555
ell 12, elapsed: 0.004472017288208008
ell 11, elapsed: 0.0023000240325927734
ell 10, elapsed: 0.002341032028198242
ell 9, elapsed: 0.0022988319396972656
ell 8, elapsed: 0.0023059844970703125
  0.511264 seconds (68.56 k allocations: 12.176 MiB)
elapsed: 0.006796121597290039
step:          0.042096 sec (0 allocations: 0 byte, 0.0% gc time)
swapping:      0.000402 sec (0 allocations: 0 byte, 0.0% gc time)
calc_Mellell!: 0.019135 sec (0 allocations: 0 byte, 0.0% gc time)
  t0 :  0.006845 sec (0 allocations: 0 byte, 0.0% gc time)
  tm2 : 0.049173 sec (0 allocations: 0 byte, 0.0% gc time)
  tm2s: 0.005803 sec (0 allocations: 0 byte, 0.0% gc time)
  tm4 : 0.125852 sec (0 allocations: 0 byte, 0.0% gc time)
  tp2 : 0.0 sec (0 allocations: 0 byte, 0.0% gc time)
  tp2s: 0.0 sec (0 allocations: 0 byte, 0.0% gc time)
  tp4 : 0.0 sec (0 allocations: 0 byte, 0.0% gc time)
calc_wtdll!:   0.375058 sec (48.6 k allocations: 11.096 MB, 0.0% gc time)
calc_wljj!:    0.019025 sec (69 allocations: 1.078 KB, 0.0% gc time)
mult_prefac!:  0.0 sec (0 allocations: 0 byte, 0.0% gc time)
convert:       0.0 sec (0 allocations: 0 byte, 0.0% gc time)
write:         0.024038 sec (0 allocations: 0 byte, 0.0% gc time)
test_rand_2f1: 0.0 sec (0 allocations: 0 byte, 0.0% gc time)
Closing outfile out/MlCache/MlCache.bin...   0.000008 seconds
xi, l=0, nu=0:   0.283986 seconds (602.95 k allocations: 32.976 MiB, 99.35% compilation time)
xi, l=0, nu=-2:  0.001549 seconds (114 allocations: 148.969 KiB)
Created 'out/xi.tsv'.
  q=1.1, R=0.6:	  0.410880 seconds (264.58 k allocations: 38.109 MiB, 5.03% gc time)
  q=1.1, R=0.7:	  0.459928 seconds (276.43 k allocations: 40.113 MiB, 3.29% gc time)
  q=1.1, R=0.8:	  0.506329 seconds (271.87 k allocations: 39.334 MiB, 1.97% gc time)
  q=1.1, R=0.9:	  0.541070 seconds (266.68 k allocations: 38.464 MiB, 1.28% gc time)
  q=1.1, R=0.998:	 14.227987 seconds (114.96 k allocations: 7.588 MiB)
  q=1.1, R=1.0:	  0.003310 seconds (8.20 k allocations: 704.344 KiB)

ℓ = 1000
Δℓ = 4
ΔℓRg1 = -4
N = 4096
q = 1.1
kmin = 1.0e-5
kmax = 1000.0
χ0 = 0.001
RR = RR.tsv
ℓmax = ℓmax.bin
f21 = f21.bin
kmin = 1.0e-5
kmax = 1000.0
dlrec    = 4
dlrecRg1 = -4
Output size: 1573632 bytes = 0.0014655590057373047 GiB
Output size: 786816 bytes = 0.0007327795028686523 GiB
Reading 'out/F21EllCache'...   0.001204 seconds (198 allocations: 533.078 KiB)
ellmax: 1002
lmaxcache: 1000
fell[:,1,1] = ComplexF64[1.726292812820208e-224 - 4.2281979352226965e-240im, 1.7282693092099638e-224 - 4.233038955177178e-240im]
ell 1002, elapsed: 4.00543212890625e-5
ell 1001, elapsed: 0.000637054443359375
ell 1000, elapsed: 0.0006229877471923828
ell 999, elapsed: 0.004040956497192383
ell 998, elapsed: 0.004112958908081055
ell 44, elapsed: 0.5974061489105225
ell 43, elapsed: 0.003804922103881836
ell 42, elapsed: 0.0038170814514160156
ell 41, elapsed: 0.0038118362426757812
ell 40, elapsed: 0.0038089752197265625
  0.626799 seconds (4.59 k allocations: 322.266 KiB)
elapsed: 0.004477977752685547
step:          0.594466 sec (0 allocations: 0 byte, 0.0% gc time)
swapping:      0.000391 sec (0 allocations: 0 byte, 0.0% gc time)
calc_Mellell!: 0.000811 sec (0 allocations: 0 byte, 0.0% gc time)
  t0 :  0.000379 sec (0 allocations: 0 byte, 0.0% gc time)
  tm2 : 0.007374 sec (0 allocations: 0 byte, 0.0% gc time)
  tm2s: 0.000365 sec (0 allocations: 0 byte, 0.0% gc time)
  tm4 : 0.018113 sec (0 allocations: 0 byte, 0.0% gc time)
  tp2 : 0.0 sec (0 allocations: 0 byte, 0.0% gc time)
  tp2s: 0.0 sec (0 allocations: 0 byte, 0.0% gc time)
  tp4 : 0.0 sec (0 allocations: 0 byte, 0.0% gc time)
calc_wtdll!:   0.026463 sec (480 allocations: 52.5 KB, 0.0% gc time)
calc_wljj!:    0.00077 sec (1 allocations: 16 byte, 0.0% gc time)
mult_prefac!:  0.0 sec (0 allocations: 0 byte, 0.0% gc time)
convert:       0.0 sec (0 allocations: 0 byte, 0.0% gc time)
write:         0.000674 sec (0 allocations: 0 byte, 0.0% gc time)
test_rand_2f1: 0.0 sec (0 allocations: 0 byte, 0.0% gc time)
Closing outfile out/MlCache/MlCache.bin...   0.000008 seconds
  0.374476 seconds (38 allocations: 66.859 KiB)
make_phi():   0.006399 seconds (65 allocations: 275.984 KiB)
  0.037851 seconds (11.42 k allocations: 711.960 KiB, 92.18% compilation time)
tskip:       0.0 sec (0 allocations: 0 byte, 0.0% gc time)
tread:       0.000551 sec (17 allocations: 1.266 KB, 0.0% gc time)
tmultphi:    0.000224 sec (0 allocations: 0 byte, 0.0% gc time)
tbrfft:      0.00085 sec (0 allocations: 0 byte, 0.0% gc time)
tmultprefac: 0.00037 sec (0 allocations: 0 byte, 0.0% gc time)
toutfunc:    0.000134 sec (0 allocations: 0 byte, 0.0% gc time)
Created 'out/wl42_jj00.tsv'.
Created 'out/wl42_jj02.tsv'.
    Testing TwoFAST tests passed 
