Julia Version 1.4.0-DEV.565
Commit 83d7466c15 (2019-12-09 08:03 UTC)
Platform Info:
  OS: Linux (x86_64-pc-linux-gnu)
  CPU: Intel(R) Xeon(R) Silver 4114 CPU @ 2.20GHz
  WORD_SIZE: 64
  LIBM: libopenlibm
  LLVM: libLLVM-8.0.1 (ORCJIT, skylake)

   Cloning default registries into `~/.julia`
   Cloning registry from "https://github.com/JuliaRegistries/General.git"
[?25l    Fetching: [>                                        ]  0.0 %    Fetching: [============>                            ]  28.0 %    Fetching: [===========================>             ]  67.3 %[2K[?25h     Added registry `General` to `~/.julia/registries/General`
 Resolving package versions...
 Installed Reexport ───────── v0.2.0
 Installed Compat ─────────── v2.2.0
 Installed Parsers ────────── v0.3.10
 Installed BinDeps ────────── v1.0.0
 Installed SpecialFunctions ─ v0.8.0
 Installed BinaryProvider ─── v0.5.8
 Installed Nemo ───────────── v0.15.1
 Installed URIParser ──────── v0.4.0
 Installed IncGammaBeta ───── v0.1.0
 Installed VersionParsing ─── v1.1.3
 Installed Conda ──────────── v1.3.0
 Installed AbstractFFTs ───── v0.5.0
 Installed TwoFAST ────────── v0.1.0
 Installed JSON ───────────── v0.21.0
 Installed AbstractAlgebra ── v0.7.1
 Installed FFTW ───────────── v1.1.0
  Updating `~/.julia/environments/v1.4/Project.toml`
  [0dd23c3e] + TwoFAST v0.1.0
  Updating `~/.julia/environments/v1.4/Manifest.toml`
  [c3fe647b] + AbstractAlgebra v0.7.1
  [621f4979] + AbstractFFTs v0.5.0
  [9e28174c] + BinDeps v1.0.0
  [b99e7846] + BinaryProvider v0.5.8
  [34da2185] + Compat v2.2.0
  [8f4d0f93] + Conda v1.3.0
  [7a1cc6ca] + FFTW v1.1.0
  [5087d2c0] + IncGammaBeta v0.1.0
  [682c06a0] + JSON v0.21.0
  [2edaba10] + Nemo v0.15.1
  [69de0a69] + Parsers v0.3.10
  [189a3867] + Reexport v0.2.0
  [276daf66] + SpecialFunctions v0.8.0
  [0dd23c3e] + TwoFAST v0.1.0
  [30578b45] + URIParser v0.4.0
  [81def892] + VersionParsing v1.1.3
  [2a0f44e3] + Base64 
  [ade2ca70] + Dates 
  [8bb1440f] + DelimitedFiles 
  [8ba89e20] + Distributed 
  [b77e0a4c] + InteractiveUtils 
  [76f85450] + LibGit2 
  [8f399da3] + Libdl 
  [37e2e46d] + LinearAlgebra 
  [56ddb016] + Logging 
  [d6f4376e] + Markdown 
  [a63ad114] + Mmap 
  [44cfe95a] + Pkg 
  [de0858da] + Printf 
  [3fa0cd96] + REPL 
  [9a3f8284] + Random 
  [ea8e919c] + SHA 
  [9e88b42a] + Serialization 
  [1a1011a3] + SharedArrays 
  [6462fe0b] + Sockets 
  [2f01184e] + SparseArrays 
  [10745b16] + Statistics 
  [8dfed614] + Test 
  [cf7118a7] + UUIDs 
  [4ec0a83e] + Unicode 
  Building Nemo ────────────→ `~/.julia/packages/Nemo/qzx0m/deps/build.log`
  Building SpecialFunctions → `~/.julia/packages/SpecialFunctions/ne2iw/deps/build.log`
  Building Conda ───────────→ `~/.julia/packages/Conda/kLXeC/deps/build.log`
  Building FFTW ────────────→ `~/.julia/packages/FFTW/loJ3F/deps/build.log`
   Testing TwoFAST
 Resolving package versions...

gzip: stdin: not in gzip format
tar: Child returned status 1
tar: Error is not recoverable: exiting now
┌ Warning: failed to extract archive downloaded from https://github.com/kbarbary/Dierckx.jl.git
└ @ Pkg.Operations /buildworker/worker/package_linux64/build/usr/share/julia/stdlib/v1.4/Pkg/src/Operations.jl:481
   Cloning [39dd38d3-220a-591b-8e3c-4c3a8c710a94] Dierckx from https://github.com/kbarbary/Dierckx.jl.git
[?25l    Fetching: [>                                        ]  0.0 %[2K[?25h Installed Dierckx ─ v0.4.1
  Building Dierckx → `~/.julia/packages/Dierckx/9SY4A/deps/build.log`
Status `/tmp/jl_E20yys/Manifest.toml`
  [c3fe647b] AbstractAlgebra v0.7.1
  [621f4979] AbstractFFTs v0.5.0
  [9e28174c] BinDeps v1.0.0
  [b99e7846] BinaryProvider v0.5.8
  [34da2185] Compat v2.2.0
  [8f4d0f93] Conda v1.3.0
  [39dd38d3] Dierckx v0.4.1
  [7a1cc6ca] FFTW v1.1.0
  [5087d2c0] IncGammaBeta v0.1.0
  [682c06a0] JSON v0.21.0
  [2edaba10] Nemo v0.15.1
  [69de0a69] Parsers v0.3.10
  [189a3867] Reexport v0.2.0
  [276daf66] SpecialFunctions v0.8.0
  [0dd23c3e] TwoFAST v0.1.0
  [30578b45] URIParser v0.4.0
  [81def892] VersionParsing v1.1.3
  [2a0f44e3] Base64  [`@stdlib/Base64`]
  [ade2ca70] Dates  [`@stdlib/Dates`]
  [8bb1440f] DelimitedFiles  [`@stdlib/DelimitedFiles`]
  [8ba89e20] Distributed  [`@stdlib/Distributed`]
  [b77e0a4c] InteractiveUtils  [`@stdlib/InteractiveUtils`]
  [76f85450] LibGit2  [`@stdlib/LibGit2`]
  [8f399da3] Libdl  [`@stdlib/Libdl`]
  [37e2e46d] LinearAlgebra  [`@stdlib/LinearAlgebra`]
  [56ddb016] Logging  [`@stdlib/Logging`]
  [d6f4376e] Markdown  [`@stdlib/Markdown`]
  [a63ad114] Mmap  [`@stdlib/Mmap`]
  [44cfe95a] Pkg  [`@stdlib/Pkg`]
  [de0858da] Printf  [`@stdlib/Printf`]
  [3fa0cd96] REPL  [`@stdlib/REPL`]
  [9a3f8284] Random  [`@stdlib/Random`]
  [ea8e919c] SHA  [`@stdlib/SHA`]
  [9e88b42a] Serialization  [`@stdlib/Serialization`]
  [1a1011a3] SharedArrays  [`@stdlib/SharedArrays`]
  [6462fe0b] Sockets  [`@stdlib/Sockets`]
  [2f01184e] SparseArrays  [`@stdlib/SparseArrays`]
  [10745b16] Statistics  [`@stdlib/Statistics`]
  [8dfed614] Test  [`@stdlib/Test`]
  [cf7118a7] UUIDs  [`@stdlib/UUIDs`]
  [4ec0a83e] Unicode  [`@stdlib/Unicode`]

Welcome to Nemo version 0.15.1

Nemo comes with absolutely no warranty whatsoever


Welcome to Nemo version 0.15.1

Nemo comes with absolutely no warranty whatsoever

Testing ξ(r), ℓ=0, ν=-1 ... passed
Testing ξ(r), ℓ=0, ν=0 ... passed
Testing ξ(r), ℓ=0, ν=1 ... passed
Testing ξ(r), ℓ=0, ν=2 ... passed
Testing ξ(r), ℓ=0, ν=3 ... passed
Testing ξ(r), ℓ=1, ν=0 ... passed
Testing ξ(r), ℓ=1, ν=1 ... passed
Testing ξ(r), ℓ=1, ν=2 ... passed
Testing ξ(r), ℓ=1, ν=3 ... passed
Testing ξ(r), ℓ=2, ν=-1 ... passed
Testing ξ(r), ℓ=2, ν=0 ... passed
Testing ξ(r), ℓ=2, ν=1 ... passed
Testing ξ(r), ℓ=2, ν=2 ... passed
Testing ξ(r), ℓ=2, ν=3 ... passed
Testing ξ(r), ℓ=3, ν=-1 ... passed
Testing ξ(r), ℓ=3, ν=0 ... passed
Testing ξ(r), ℓ=3, ν=1 ... passed
Testing ξ(r), ℓ=3, ν=2 ... passed
Testing ξ(r), ℓ=3, ν=3 ... passed
Testing ξ(r), ℓ=4, ν=-1 ... passed
Testing ξ(r), ℓ=4, ν=0 ... passed
Testing ξ(r), ℓ=4, ν=1 ... passed
Testing ξ(r), ℓ=4, ν=2 ... passed
Testing ξ(r), ℓ=4, ν=3 ... passed
Testing ξ(r) ... passed
Testing ξ′(r) ... passed
Testing ξ″(r) ... passed
Calculating fmax: 
  dlrec    = 4
  dlrecRg1 = -4
  q=1.1, R=1.1:	  4.477893 seconds (1.20 M allocations: 67.974 MiB)

  4.524964 seconds (1.22 M allocations: 69.084 MiB)
ℓ = 1202
Δℓ = 4
ΔℓRg1 = -4
N = 1600
q = 1.1
kmin = 1.0e-5
kmax = 100000.00000000004
χ0 = 0.023029999999999995
RR = RR.tsv
ℓmax = ℓmax.bin
f21 = f21.bin
kmin = 1.0e-5
kmax = 100000.0
dlrec    = 4
dlrecRg1 = -4
Output size: 5741568 bytes = 0.005347251892089844 GiB
Output size: 51264 bytes = 4.774332046508789e-5 GiB
Reading 'out/F21EllCache'...   0.557457 seconds (314.60 k allocations: 16.146 MiB)
ellmax: 1202
lmaxcache: 1202
fell[:,1,1] = Complex{Float64}[3.9583795592771634e-52 - 9.695233714158177e-68im, 3.990121772925759e-52 - 9.772979714843386e-68im]
ell 1202, elapsed: 0.00015687942504882812
ell 1201, elapsed: 2.346198797225952
ell 1200, elapsed: 0.0006659030914306641
ell 1199, elapsed: 0.0005729198455810547
ell 1198, elapsed: 0.0008039474487304688
ell 1002, elapsed: 0.011172056198120117
ell 1001, elapsed: 0.0005979537963867188
ell 1000, elapsed: 0.0005800724029541016
ell 999, elapsed: 0.0005440711975097656
ell 998, elapsed: 0.0005619525909423828
ell 902, elapsed: 0.005407094955444336
ell 901, elapsed: 0.0005881786346435547
ell 900, elapsed: 0.0006139278411865234
ell 899, elapsed: 0.0006449222564697266
ell 898, elapsed: 0.00061798095703125
ell 802, elapsed: 0.005254983901977539
ell 801, elapsed: 0.0006577968597412109
ell 800, elapsed: 0.0006308555603027344
ell 799, elapsed: 0.0006921291351318359
ell 798, elapsed: 0.0006170272827148438
ell 702, elapsed: 0.00522303581237793
ell 701, elapsed: 0.0006780624389648438
ell 700, elapsed: 0.0006442070007324219
ell 699, elapsed: 0.0006589889526367188
ell 698, elapsed: 0.0006439685821533203
ell 602, elapsed: 0.005218029022216797
ell 601, elapsed: 0.0006949901580810547
ell 600, elapsed: 0.0006542205810546875
ell 599, elapsed: 0.0006439685821533203
ell 598, elapsed: 0.0006949901580810547
ell 502, elapsed: 0.005201101303100586
ell 501, elapsed: 0.0006670951843261719
ell 500, elapsed: 0.0006511211395263672
ell 499, elapsed: 0.0006518363952636719
ell 498, elapsed: 0.0006580352783203125
ell 402, elapsed: 0.00519108772277832
ell 401, elapsed: 0.0007410049438476562
ell 400, elapsed: 0.0006649494171142578
ell 399, elapsed: 0.0006589889526367188
ell 398, elapsed: 0.0006570816040039062
ell 302, elapsed: 0.005178928375244141
ell 301, elapsed: 0.0006589889526367188
ell 300, elapsed: 0.0006628036499023438
ell 299, elapsed: 0.0006449222564697266
ell 298, elapsed: 0.0006341934204101562
ell 202, elapsed: 0.005403041839599609
ell 201, elapsed: 0.0007090568542480469
ell 200, elapsed: 0.0006849765777587891
ell 199, elapsed: 0.0006358623504638672
ell 198, elapsed: 0.0006451606750488281
ell 152, elapsed: 0.0029649734497070312
ell 151, elapsed: 0.0006511211395263672
ell 150, elapsed: 0.0006310939788818359
ell 149, elapsed: 0.0006310939788818359
ell 148, elapsed: 0.0006330013275146484
ell 127, elapsed: 0.0017600059509277344
ell 126, elapsed: 0.0006840229034423828
ell 125, elapsed: 0.0006310939788818359
ell 124, elapsed: 0.0006840229034423828
ell 123, elapsed: 0.0006330013275146484
ell 114, elapsed: 0.0011489391326904297
ell 113, elapsed: 0.0006299018859863281
ell 112, elapsed: 0.00061798095703125
ell 111, elapsed: 0.0006358623504638672
ell 110, elapsed: 0.0007750988006591797
ell 102, elapsed: 0.0011980533599853516
ell 101, elapsed: 0.0006420612335205078
ell 100, elapsed: 0.0006420612335205078
ell 99, elapsed: 0.0006198883056640625
ell 98, elapsed: 0.0006310939788818359
ell 97, elapsed: 0.0006999969482421875
ell 96, elapsed: 0.0008270740509033203
ell 95, elapsed: 0.0006630420684814453
ell 94, elapsed: 0.0008041858673095703
ell 93, elapsed: 0.0007050037384033203
ell 92, elapsed: 0.0007610321044921875
ell 91, elapsed: 0.0006639957427978516
ell 90, elapsed: 0.000759124755859375
ell 89, elapsed: 0.0006668567657470703
ell 88, elapsed: 0.0007371902465820312
ell 87, elapsed: 0.0006678104400634766
ell 86, elapsed: 0.0007500648498535156
ell 85, elapsed: 0.0006611347198486328
ell 84, elapsed: 0.0007619857788085938
ell 83, elapsed: 0.0006709098815917969
ell 82, elapsed: 0.0007560253143310547
ell 81, elapsed: 0.0006568431854248047
ell 80, elapsed: 0.0007610321044921875
ell 79, elapsed: 0.0006690025329589844
ell 78, elapsed: 0.0007569789886474609
ell 77, elapsed: 0.0006680488586425781
ell 76, elapsed: 0.0007650852203369141
ell 75, elapsed: 0.0006678104400634766
ell 74, elapsed: 0.0007519721984863281
ell 73, elapsed: 0.0007479190826416016
ell 72, elapsed: 0.0007600784301757812
ell 71, elapsed: 0.0006659030914306641
ell 70, elapsed: 0.0007600784301757812
ell 69, elapsed: 0.0006611347198486328
ell 68, elapsed: 0.0007219314575195312
ell 67, elapsed: 0.0006670951843261719
ell 66, elapsed: 0.0007350444793701172
ell 65, elapsed: 0.0007178783416748047
ell 64, elapsed: 0.0007419586181640625
ell 63, elapsed: 0.0006651878356933594
ell 62, elapsed: 0.0007669925689697266
ell 61, elapsed: 0.0006721019744873047
ell 60, elapsed: 0.0007441043853759766
ell 59, elapsed: 0.0006680488586425781
ell 58, elapsed: 0.0007989406585693359
ell 57, elapsed: 0.0006608963012695312
ell 56, elapsed: 0.0007431507110595703
ell 55, elapsed: 0.0006780624389648438
ell 54, elapsed: 0.0007469654083251953
ell 53, elapsed: 0.0006589889526367188
ell 52, elapsed: 0.0007579326629638672
ell 51, elapsed: 0.0006740093231201172
ell 50, elapsed: 0.0007560253143310547
ell 49, elapsed: 0.0006759166717529297
ell 48, elapsed: 0.0007991790771484375
ell 47, elapsed: 0.0006837844848632812
ell 46, elapsed: 0.0007798671722412109
ell 45, elapsed: 0.0006830692291259766
ell 44, elapsed: 0.0007691383361816406
ell 43, elapsed: 0.00067901611328125
ell 42, elapsed: 0.0007760524749755859
ell 41, elapsed: 0.0006799697875976562
ell 40, elapsed: 0.0007579326629638672
ell 39, elapsed: 0.0006711483001708984
ell 38, elapsed: 0.0007719993591308594
ell 37, elapsed: 0.0006711483001708984
ell 36, elapsed: 0.0007569789886474609
ell 35, elapsed: 0.0006690025329589844
ell 34, elapsed: 0.0007579326629638672
ell 33, elapsed: 0.0006768703460693359
ell 32, elapsed: 0.000762939453125
ell 31, elapsed: 0.0007109642028808594
ell 30, elapsed: 0.0007648468017578125
ell 29, elapsed: 0.00067901611328125
ell 28, elapsed: 0.0008559226989746094
ell 27, elapsed: 0.0006971359252929688
ell 26, elapsed: 0.0007619857788085938
ell 25, elapsed: 0.00067901611328125
ell 24, elapsed: 0.0007669925689697266
ell 23, elapsed: 0.0006749629974365234
ell 22, elapsed: 0.0007619857788085938
ell 21, elapsed: 0.0006830692291259766
ell 20, elapsed: 0.0007529258728027344
ell 19, elapsed: 0.0006601810455322266
ell 18, elapsed: 0.0007519721984863281
ell 17, elapsed: 0.0006680488586425781
ell 16, elapsed: 0.0007619857788085938
ell 15, elapsed: 0.0006999969482421875
ell 14, elapsed: 0.0008211135864257812
ell 13, elapsed: 0.0006699562072753906
ell 12, elapsed: 0.0007700920104980469
ell 11, elapsed: 0.00067901611328125
ell 10, elapsed: 0.0007541179656982422
ell 9, elapsed: 0.0006668567657470703
ell 8, elapsed: 0.0007529258728027344
ell 7, elapsed: 0.0006761550903320312
ell 6, elapsed: 0.0007679462432861328
ell 5, elapsed: 0.0006709098815917969
ell 4, elapsed: 0.0007739067077636719
ell 3, elapsed: 0.0007071495056152344
ell 2, elapsed: 0.0007600784301757812
ell 1, elapsed: 0.0006740093231201172
ell 0, elapsed: 0.0007631778717041016
  3.384144 seconds (1.73 M allocations: 84.843 MiB, 1.07% gc time)
elapsed: 0.0023488998413085938
step:          0.796478 sec (402.852 k allocations: 20.31 MB, 0.0% gc time)
swapping:      0.000625 sec (0 allocations: 0 byte, 0.0% gc time)
calc_Mellell!: 0.562136 sec (296.634 k allocations: 14.971 MB, 0.0% gc time)
  t0 :  0.0 sec (0 allocations: 0 byte, 0.0% gc time)
  tm2 : 0.0 sec (0 allocations: 0 byte, 0.0% gc time)
  tm2s: 0.0 sec (0 allocations: 0 byte, 0.0% gc time)
  tm4 : 0.0 sec (0 allocations: 0 byte, 0.0% gc time)
  tp2 : 0.0 sec (0 allocations: 0 byte, 0.0% gc time)
  tp2s: 0.0 sec (0 allocations: 0 byte, 0.0% gc time)
  tp4 : 0.0 sec (0 allocations: 0 byte, 0.0% gc time)
calc_wtdll!:   1.112942 sec (526.041 k allocations: 26.383 MB, 3.24% gc time)
calc_wljj!:    0.003644 sec (6 allocations: 96 byte, 0.0% gc time)
mult_prefac!:  0.0 sec (0 allocations: 0 byte, 0.0% gc time)
convert:       0.0 sec (0 allocations: 0 byte, 0.0% gc time)
write:         0.005497 sec (0 allocations: 0 byte, 0.0% gc time)
test_rand_2f1: 0.0 sec (0 allocations: 0 byte, 0.0% gc time)
Closing outfile out/Ml21-cache.bin...   0.000111 seconds
  1.065468 seconds (8.65 k allocations: 420.781 KiB)
make_phi():   0.012280 seconds (8.20 k allocations: 238.016 KiB)
  0.208783 seconds (121.79 k allocations: 5.904 MiB)
tskip:       2.1e-5 sec (0 allocations: 0 byte, 0.0% gc time)
tread:       0.002274 sec (19 allocations: 2.172 KB, 0.0% gc time)
tmultphi:    0.039639 sec (26.067 k allocations: 1.34 MB, 0.0% gc time)
tbrfft:      0.004087 sec (896 allocations: 42.0 KB, 0.0% gc time)
tmultprefac: 0.002985 sec (0 allocations: 0 byte, 0.0% gc time)
toutfunc:    0.159714 sec (94.159 k allocations: 4.452 MB, 0.0% gc time)
Testing R=1.1 ... passed
Calculating fmax: 
  dlrec    = 4
  dlrecRg1 = -4
  q=1.1, R=1.0:	  0.029974 seconds (4.00 k allocations: 300.375 KiB, 92.91% gc time)

  0.030303 seconds (4.05 k allocations: 335.531 KiB, 91.90% gc time)
ℓ = 1202
Δℓ = 4
ΔℓRg1 = -4
N = 1600
q = 1.1
kmin = 1.0e-5
kmax = 100000.00000000004
χ0 = 0.023029999999999995
RR = RR.tsv
ℓmax = ℓmax.bin
f21 = f21.bin
kmin = 1.0e-5
kmax = 100000.0
dlrec    = 4
dlrecRg1 = -4
Output size: 61465536 bytes = 0.05724424123764038 GiB
Output size: 51264 bytes = 4.774332046508789e-5 GiB
Reading 'out/F21EllCache'...   0.001143 seconds (267 allocations: 84.656 KiB)
ellmax: 1202
lmaxcache: 1202
fell[:,1,1] = Complex{Float64}[809.6031528389767 - 1.9829558194077161e-13im, 0.0 + 0.0im]
ell 1202, elapsed: 2.4080276489257812e-5
ell 1201, elapsed: 0.017223834991455078
ell 1200, elapsed: 0.0004730224609375
ell 1199, elapsed: 0.0005800724029541016
ell 1198, elapsed: 0.0003540515899658203
ell 1197, elapsed: 0.00040602684020996094
ell 1196, elapsed: 0.00039696693420410156
ell 1195, elapsed: 0.0004849433898925781
ell 1194, elapsed: 0.0003998279571533203
ell 1193, elapsed: 0.0004899501800537109
ell 1192, elapsed: 0.00039005279541015625
ell 1191, elapsed: 0.0004937648773193359
ell 1190, elapsed: 0.00039887428283691406
ell 1189, elapsed: 0.0004830360412597656
ell 1188, elapsed: 0.0003941059112548828
ell 1187, elapsed: 0.0004839897155761719
ell 1186, elapsed: 0.00039315223693847656
ell 1185, elapsed: 0.0004851818084716797
ell 1184, elapsed: 0.00047397613525390625
ell 1183, elapsed: 0.0006570816040039062
ell 1182, elapsed: 0.00045800209045410156
ell 1181, elapsed: 0.0006811618804931641
ell 1180, elapsed: 0.0003859996795654297
ell 1179, elapsed: 0.00047588348388671875
ell 1178, elapsed: 0.0003898143768310547
ell 1177, elapsed: 0.0004940032958984375
ell 1176, elapsed: 0.0005490779876708984
ell 1175, elapsed: 0.0005691051483154297
ell 1174, elapsed: 0.00038886070251464844
ell 1173, elapsed: 0.00048089027404785156
ell 1172, elapsed: 0.0003879070281982422
ell 1171, elapsed: 0.0004799365997314453
ell 1170, elapsed: 0.0003910064697265625
ell 1169, elapsed: 0.0004870891571044922
ell 1168, elapsed: 0.00039196014404296875
ell 1167, elapsed: 0.0004940032958984375
ell 1166, elapsed: 0.0003941059112548828
ell 1165, elapsed: 0.0004749298095703125
ell 1164, elapsed: 0.00039005279541015625
ell 1163, elapsed: 0.000476837158203125
ell 1162, elapsed: 0.0003879070281982422
ell 1161, elapsed: 0.0006349086761474609
ell 1160, elapsed: 0.0004668235778808594
ell 1159, elapsed: 0.0004940032958984375
ell 1158, elapsed: 0.0003879070281982422
ell 1157, elapsed: 0.00047397613525390625
ell 1156, elapsed: 0.0003859996795654297
ell 1155, elapsed: 0.00047397613525390625
ell 1154, elapsed: 0.00039005279541015625
ell 1153, elapsed: 0.0004730224609375
ell 1152, elapsed: 0.00039005279541015625
ell 1151, elapsed: 0.0004820823669433594
ell 1150, elapsed: 0.00039005279541015625
ell 1149, elapsed: 0.0004839897155761719
ell 1148, elapsed: 0.00038814544677734375
ell 1147, elapsed: 0.0004839897155761719
ell 1146, elapsed: 0.0003829002380371094
ell 1145, elapsed: 0.0004889965057373047
ell 1144, elapsed: 0.0003879070281982422
ell 1143, elapsed: 0.0004680156707763672
ell 1142, elapsed: 0.0004019737243652344
ell 1141, elapsed: 0.000476837158203125
ell 1140, elapsed: 0.0003848075866699219
ell 1139, elapsed: 0.00047707557678222656
ell 1138, elapsed: 0.00038695335388183594
ell 1137, elapsed: 0.00047206878662109375
ell 1136, elapsed: 0.0003821849822998047
ell 1135, elapsed: 0.00046896934509277344
ell 1134, elapsed: 0.00039005279541015625
ell 1133, elapsed: 0.0004839897155761719
ell 1132, elapsed: 0.0003910064697265625
ell 1131, elapsed: 0.00048613548278808594
ell 1130, elapsed: 0.00039005279541015625
ell 1129, elapsed: 0.0004820823669433594
ell 1128, elapsed: 0.00038909912109375
ell 1127, elapsed: 0.00047397613525390625
ell 1126, elapsed: 0.0003859996795654297
ell 1125, elapsed: 0.0004980564117431641
ell 1124, elapsed: 0.0003859996795654297
ell 1123, elapsed: 0.0004799365997314453
ell 1122, elapsed: 0.00038909912109375
ell 1121, elapsed: 0.0004780292510986328
ell 1120, elapsed: 0.00038504600524902344
ell 1119, elapsed: 0.0004849433898925781
ell 1118, elapsed: 0.0003910064697265625
ell 1117, elapsed: 0.0006721019744873047
ell 1116, elapsed: 0.00045990943908691406
ell 1115, elapsed: 0.00047087669372558594
ell 1114, elapsed: 0.0003790855407714844
ell 1113, elapsed: 0.00045490264892578125
ell 1112, elapsed: 0.0003809928894042969
ell 1111, elapsed: 0.0004639625549316406
ell 1110, elapsed: 0.0003800392150878906
ell 1109, elapsed: 0.0004591941833496094
ell 1108, elapsed: 0.00039505958557128906
ell 1107, elapsed: 0.0004639625549316406
ell 1106, elapsed: 0.00038886070251464844
ell 1105, elapsed: 0.00048804283142089844
ell 1104, elapsed: 0.0003910064697265625
ell 1103, elapsed: 0.0004730224609375
ell 1102, elapsed: 0.0005178451538085938
ell 1101, elapsed: 0.0005879402160644531
ell 1100, elapsed: 0.0004451274871826172
ell 1099, elapsed: 0.0004899501800537109
ell 1098, elapsed: 0.00038814544677734375
ell 1097, elapsed: 0.0004699230194091797
ell 1096, elapsed: 0.0003910064697265625
ell 1095, elapsed: 0.00047087669372558594
ell 1094, elapsed: 0.0003859996795654297
ell 1093, elapsed: 0.0004639625549316406
ell 1092, elapsed: 0.000392913818359375
ell 1091, elapsed: 0.00046706199645996094
ell 1090, elapsed: 0.0003809928894042969
ell 1089, elapsed: 0.00045800209045410156
ell 1088, elapsed: 0.0003809928894042969
ell 1087, elapsed: 0.0004639625549316406
ell 1086, elapsed: 0.0003800392150878906
ell 1085, elapsed: 0.0004718303680419922
ell 1084, elapsed: 0.000392913818359375
ell 1083, elapsed: 0.0004980564117431641
ell 1082, elapsed: 0.00038504600524902344
ell 1081, elapsed: 0.0004630088806152344
ell 1080, elapsed: 0.0003809928894042969
ell 1079, elapsed: 0.0004649162292480469
ell 1078, elapsed: 0.0003800392150878906
ell 1077, elapsed: 0.00045990943908691406
ell 1076, elapsed: 0.0003809928894042969
ell 1075, elapsed: 0.0004611015319824219
ell 1074, elapsed: 0.00039315223693847656
ell 1073, elapsed: 0.00047397613525390625
ell 1072, elapsed: 0.00039005279541015625
ell 1071, elapsed: 0.0004680156707763672
ell 1070, elapsed: 0.00039505958557128906
ell 1069, elapsed: 0.00046896934509277344
ell 1068, elapsed: 0.00038886070251464844
ell 1067, elapsed: 0.00047087669372558594
ell 1066, elapsed: 0.0003859996795654297
ell 1065, elapsed: 0.0004780292510986328
ell 1064, elapsed: 0.0003979206085205078
ell 1063, elapsed: 0.0004839897155761719
ell 1062, elapsed: 0.0005228519439697266
ell 1061, elapsed: 0.0005800724029541016
ell 1060, elapsed: 0.0003879070281982422
ell 1059, elapsed: 0.00047707557678222656
ell 1058, elapsed: 0.00039196014404296875
ell 1057, elapsed: 0.0004930496215820312
ell 1056, elapsed: 0.0003910064697265625
ell 1055, elapsed: 0.0004780292510986328
ell 1054, elapsed: 0.00038695335388183594
ell 1053, elapsed: 0.0004980564117431641
ell 1052, elapsed: 0.0005850791931152344
ell 1051, elapsed: 0.0005490779876708984
ell 1050, elapsed: 0.00038909912109375
ell 1049, elapsed: 0.00047588348388671875
ell 1048, elapsed: 0.00038909912109375
ell 1047, elapsed: 0.00047588348388671875
ell 1046, elapsed: 0.0005788803100585938
ell 1045, elapsed: 0.0006301403045654297
ell 1044, elapsed: 0.00038909912109375
ell 1043, elapsed: 0.0004930496215820312
ell 1042, elapsed: 0.00040411949157714844
ell 1041, elapsed: 0.0004730224609375
ell 1040, elapsed: 0.0005681514739990234
ell 1039, elapsed: 0.0006411075592041016
ell 1038, elapsed: 0.00038909912109375
ell 1037, elapsed: 0.0004889965057373047
ell 1036, elapsed: 0.00038814544677734375
ell 1035, elapsed: 0.0004749298095703125
ell 1034, elapsed: 0.00041484832763671875
ell 1033, elapsed: 0.0004811286926269531
ell 1032, elapsed: 0.00039196014404296875
ell 1031, elapsed: 0.00047397613525390625
ell 1030, elapsed: 0.00039505958557128906
ell 1029, elapsed: 0.0004749298095703125
ell 1028, elapsed: 0.0003800392150878906
ell 1027, elapsed: 0.00047707557678222656
ell 1026, elapsed: 0.00038909912109375
ell 1025, elapsed: 0.0004899501800537109
ell 1024, elapsed: 0.00039315223693847656
ell 1023, elapsed: 0.00047707557678222656
ell 1022, elapsed: 0.00038814544677734375
ell 1021, elapsed: 0.00047898292541503906
ell 1020, elapsed: 0.00038814544677734375
ell 1019, elapsed: 0.0004658699035644531
ell 1018, elapsed: 0.00038504600524902344
ell 1017, elapsed: 0.0004878044128417969
ell 1016, elapsed: 0.0003879070281982422
ell 1015, elapsed: 0.00047397613525390625
ell 1014, elapsed: 0.0003838539123535156
ell 1013, elapsed: 0.0004780292510986328
ell 1012, elapsed: 0.0003859996795654297
ell 1011, elapsed: 0.00047707557678222656
ell 1010, elapsed: 0.00038504600524902344
ell 1009, elapsed: 0.0004649162292480469
ell 1008, elapsed: 0.0003991127014160156
ell 1007, elapsed: 0.00047707557678222656
ell 1006, elapsed: 0.0003840923309326172
ell 1005, elapsed: 0.0005981922149658203
ell 1004, elapsed: 0.0004870891571044922
ell 1003, elapsed: 0.0004730224609375
ell 1002, elapsed: 0.0003960132598876953
ell 1001, elapsed: 0.0004780292510986328
ell 1000, elapsed: 0.0004010200500488281
ell 999, elapsed: 0.0004718303680419922
ell 998, elapsed: 0.00039005279541015625
ell 997, elapsed: 0.00047898292541503906
ell 996, elapsed: 0.0005559921264648438
ell 995, elapsed: 0.0005309581756591797
ell 994, elapsed: 0.00039696693420410156
ell 993, elapsed: 0.0004811286926269531
ell 992, elapsed: 0.0006048679351806641
ell 991, elapsed: 0.0005271434783935547
ell 990, elapsed: 0.00038909912109375
ell 989, elapsed: 0.0004730224609375
ell 988, elapsed: 0.0003910064697265625
ell 987, elapsed: 0.00047588348388671875
ell 986, elapsed: 0.0003871917724609375
ell 985, elapsed: 0.0005078315734863281
ell 984, elapsed: 0.000621795654296875
ell 983, elapsed: 0.00048089027404785156
ell 982, elapsed: 0.00038886070251464844
ell 981, elapsed: 0.0004868507385253906
ell 980, elapsed: 0.00038886070251464844
ell 979, elapsed: 0.0007069110870361328
ell 978, elapsed: 0.0004601478576660156
ell 977, elapsed: 0.0004909038543701172
ell 976, elapsed: 0.00038886070251464844
ell 975, elapsed: 0.0004780292510986328
ell 974, elapsed: 0.0003921985626220703
ell 973, elapsed: 0.00047206878662109375
ell 972, elapsed: 0.00038886070251464844
ell 971, elapsed: 0.0004849433898925781
ell 970, elapsed: 0.0003910064697265625
ell 969, elapsed: 0.00047898292541503906
ell 968, elapsed: 0.00039315223693847656
ell 967, elapsed: 0.0004849433898925781
ell 966, elapsed: 0.00039196014404296875
ell 965, elapsed: 0.0004718303680419922
ell 964, elapsed: 0.00038886070251464844
ell 963, elapsed: 0.00047707557678222656
ell 962, elapsed: 0.00038909912109375
ell 961, elapsed: 0.0004711151123046875
ell 960, elapsed: 0.00040411949157714844
ell 959, elapsed: 0.0004820823669433594
ell 958, elapsed: 0.00038909912109375
ell 957, elapsed: 0.0004658699035644531
ell 956, elapsed: 0.00038504600524902344
ell 955, elapsed: 0.0004811286926269531
ell 954, elapsed: 0.0003879070281982422
ell 953, elapsed: 0.00047707557678222656
ell 952, elapsed: 0.00038909912109375
ell 951, elapsed: 0.0004930496215820312
ell 950, elapsed: 0.0003960132598876953
ell 949, elapsed: 0.00047707557678222656
ell 948, elapsed: 0.0003910064697265625
ell 947, elapsed: 0.0006639957427978516
ell 946, elapsed: 0.000431060791015625
ell 945, elapsed: 0.0004839897155761719
ell 944, elapsed: 0.00039505958557128906
ell 943, elapsed: 0.0005090236663818359
ell 942, elapsed: 0.0005269050598144531
ell 941, elapsed: 0.0007460117340087891
ell 940, elapsed: 0.0006108283996582031
ell 939, elapsed: 0.0005168914794921875
ell 938, elapsed: 0.00038909912109375
ell 937, elapsed: 0.0004849433898925781
ell 936, elapsed: 0.0003898143768310547
ell 935, elapsed: 0.0005199909210205078
ell 934, elapsed: 0.0005898475646972656
ell 933, elapsed: 0.0004858970642089844
ell 932, elapsed: 0.0003910064697265625
ell 931, elapsed: 0.0004799365997314453
ell 930, elapsed: 0.0003879070281982422
ell 929, elapsed: 0.0005080699920654297
ell 928, elapsed: 0.00039696693420410156
ell 927, elapsed: 0.0004878044128417969
ell 926, elapsed: 0.00039386749267578125
ell 925, elapsed: 0.00047016143798828125
ell 924, elapsed: 0.0003840923309326172
ell 923, elapsed: 0.00046515464782714844
ell 922, elapsed: 0.0003790855407714844
ell 921, elapsed: 0.00047707557678222656
ell 920, elapsed: 0.0004019737243652344
ell 919, elapsed: 0.00047206878662109375
ell 918, elapsed: 0.00038695335388183594
ell 917, elapsed: 0.0004780292510986328
ell 916, elapsed: 0.00038814544677734375
ell 915, elapsed: 0.0005681514739990234
ell 914, elapsed: 0.0005328655242919922
ell 913, elapsed: 0.0004749298095703125
ell 912, elapsed: 0.0004038810729980469
ell 911, elapsed: 0.00047516822814941406
ell 910, elapsed: 0.00039315223693847656
ell 909, elapsed: 0.00048804283142089844
ell 908, elapsed: 0.00039196014404296875
ell 907, elapsed: 0.00047516822814941406
ell 906, elapsed: 0.000392913818359375
ell 905, elapsed: 0.00047397613525390625
ell 904, elapsed: 0.0005600452423095703
ell 903, elapsed: 0.0005619525909423828
ell 902, elapsed: 0.00038909912109375
ell 901, elapsed: 0.00047397613525390625
ell 900, elapsed: 0.00038814544677734375
ell 899, elapsed: 0.00047898292541503906
ell 898, elapsed: 0.00038814544677734375
ell 897, elapsed: 0.00047397613525390625
ell 896, elapsed: 0.00039005279541015625
ell 895, elapsed: 0.00049591064453125
ell 894, elapsed: 0.00038814544677734375
ell 893, elapsed: 0.00047707557678222656
ell 892, elapsed: 0.0003948211669921875
ell 891, elapsed: 0.0004799365997314453
ell 890, elapsed: 0.00039196014404296875
ell 889, elapsed: 0.00047898292541503906
ell 888, elapsed: 0.0003840923309326172
ell 887, elapsed: 0.0004930496215820312
ell 886, elapsed: 0.0003879070281982422
ell 885, elapsed: 0.00047397613525390625
ell 884, elapsed: 0.00038886070251464844
ell 883, elapsed: 0.0005869865417480469
ell 882, elapsed: 0.0005171298980712891
ell 881, elapsed: 0.0004761219024658203
ell 880, elapsed: 0.00039005279541015625
ell 879, elapsed: 0.0004870891571044922
ell 878, elapsed: 0.0004000663757324219
ell 877, elapsed: 0.0006580352783203125
ell 876, elapsed: 0.00045490264892578125
ell 875, elapsed: 0.00048804283142089844
ell 874, elapsed: 0.0003879070281982422
ell 873, elapsed: 0.00047397613525390625
ell 872, elapsed: 0.00039005279541015625
ell 871, elapsed: 0.0004899501800537109
ell 870, elapsed: 0.0003979206085205078
ell 869, elapsed: 0.00048279762268066406
ell 868, elapsed: 0.0003910064697265625
ell 867, elapsed: 0.0004811286926269531
ell 866, elapsed: 0.00038909912109375
ell 865, elapsed: 0.0004909038543701172
ell 864, elapsed: 0.0003879070281982422
ell 863, elapsed: 0.0004749298095703125
ell 862, elapsed: 0.00038909912109375
ell 861, elapsed: 0.0005748271942138672
ell 860, elapsed: 0.0005190372467041016
ell 859, elapsed: 0.00047397613525390625
ell 858, elapsed: 0.0003941059112548828
ell 857, elapsed: 0.0004820823669433594
ell 856, elapsed: 0.0003859996795654297
ell 855, elapsed: 0.0004780292510986328
ell 854, elapsed: 0.0003960132598876953
ell 853, elapsed: 0.0004699230194091797
ell 852, elapsed: 0.0003910064697265625
ell 851, elapsed: 0.00047206878662109375
ell 850, elapsed: 0.0005609989166259766
ell 849, elapsed: 0.0005459785461425781
ell 848, elapsed: 0.00038814544677734375
ell 847, elapsed: 0.0004868507385253906
ell 846, elapsed: 0.00038909912109375
ell 845, elapsed: 0.00047707557678222656
ell 844, elapsed: 0.00038814544677734375
ell 843, elapsed: 0.00046896934509277344
ell 842, elapsed: 0.00039005279541015625
ell 841, elapsed: 0.0004730224609375
ell 840, elapsed: 0.00038909912109375
ell 839, elapsed: 0.0006468296051025391
ell 838, elapsed: 0.0005571842193603516
ell 837, elapsed: 0.00048089027404785156
ell 836, elapsed: 0.0003879070281982422
ell 835, elapsed: 0.00047898292541503906
ell 834, elapsed: 0.00038886070251464844
ell 833, elapsed: 0.0004711151123046875
ell 832, elapsed: 0.0005319118499755859
ell 831, elapsed: 0.0006551742553710938
ell 830, elapsed: 0.000392913818359375
ell 829, elapsed: 0.00048613548278808594
ell 828, elapsed: 0.0003879070281982422
ell 827, elapsed: 0.0004830360412597656
ell 826, elapsed: 0.00038814544677734375
ell 825, elapsed: 0.0006649494171142578
ell 824, elapsed: 0.00048804283142089844
ell 823, elapsed: 0.0004980564117431641
ell 822, elapsed: 0.00038886070251464844
ell 821, elapsed: 0.00047516822814941406
ell 820, elapsed: 0.00039005279541015625
ell 819, elapsed: 0.00048089027404785156
ell 818, elapsed: 0.0005991458892822266
ell 817, elapsed: 0.0005359649658203125
ell 816, elapsed: 0.00039005279541015625
ell 815, elapsed: 0.00048804283142089844
ell 814, elapsed: 0.00039005279541015625
ell 813, elapsed: 0.00048279762268066406
ell 812, elapsed: 0.0003910064697265625
ell 811, elapsed: 0.0004749298095703125
ell 810, elapsed: 0.000453948974609375
ell 809, elapsed: 0.0006411075592041016
ell 808, elapsed: 0.0003898143768310547
ell 807, elapsed: 0.0005030632019042969
ell 806, elapsed: 0.00039005279541015625
ell 805, elapsed: 0.00047588348388671875
ell 804, elapsed: 0.0003848075866699219
ell 803, elapsed: 0.0004801750183105469
ell 802, elapsed: 0.00039005279541015625
ell 801, elapsed: 0.00047087669372558594
ell 800, elapsed: 0.0003840923309326172
ell 799, elapsed: 0.0004820823669433594
ell 798, elapsed: 0.0004019737243652344
ell 797, elapsed: 0.0004761219024658203
ell 796, elapsed: 0.00038504600524902344
ell 795, elapsed: 0.0004820823669433594
ell 794, elapsed: 0.00038886070251464844
ell 793, elapsed: 0.0004818439483642578
ell 792, elapsed: 0.00039005279541015625
ell 791, elapsed: 0.0004718303680419922
ell 790, elapsed: 0.0004050731658935547
ell 789, elapsed: 0.00047898292541503906
ell 788, elapsed: 0.0005600452423095703
ell 787, elapsed: 0.0005400180816650391
ell 786, elapsed: 0.0003840923309326172
ell 785, elapsed: 0.0004811286926269531
ell 784, elapsed: 0.0003921985626220703
ell 783, elapsed: 0.00048089027404785156
ell 782, elapsed: 0.00039696693420410156
ell 781, elapsed: 0.0004749298095703125
ell 780, elapsed: 0.0003838539123535156
ell 779, elapsed: 0.0004749298095703125
ell 778, elapsed: 0.0003859996795654297
ell 777, elapsed: 0.00047898292541503906
ell 776, elapsed: 0.000392913818359375
ell 775, elapsed: 0.0004749298095703125
ell 774, elapsed: 0.00038814544677734375
ell 773, elapsed: 0.000492095947265625
ell 772, elapsed: 0.0003859996795654297
ell 771, elapsed: 0.0004811286926269531
ell 770, elapsed: 0.00039005279541015625
ell 769, elapsed: 0.0004718303680419922
ell 768, elapsed: 0.00038909912109375
ell 767, elapsed: 0.0004799365997314453
ell 766, elapsed: 0.0004940032958984375
ell 765, elapsed: 0.0006608963012695312
ell 764, elapsed: 0.0003879070281982422
ell 763, elapsed: 0.0004820823669433594
ell 762, elapsed: 0.0003879070281982422
ell 761, elapsed: 0.0004849433898925781
ell 760, elapsed: 0.00038504600524902344
ell 759, elapsed: 0.0004730224609375
ell 758, elapsed: 0.00038504600524902344
ell 757, elapsed: 0.0004889965057373047
ell 756, elapsed: 0.0005619525909423828
ell 755, elapsed: 0.0005500316619873047
ell 754, elapsed: 0.00038909912109375
ell 753, elapsed: 0.0004749298095703125
ell 752, elapsed: 0.00039386749267578125
ell 751, elapsed: 0.0004811286926269531
ell 750, elapsed: 0.0003979206085205078
ell 749, elapsed: 0.0004849433898925781
ell 748, elapsed: 0.0003910064697265625
ell 747, elapsed: 0.000476837158203125
ell 746, elapsed: 0.00039005279541015625
ell 745, elapsed: 0.00047206878662109375
ell 744, elapsed: 0.00038886070251464844
ell 743, elapsed: 0.00047779083251953125
ell 742, elapsed: 0.00038504600524902344
ell 741, elapsed: 0.0004749298095703125
ell 740, elapsed: 0.0004000663757324219
ell 739, elapsed: 0.00047779083251953125
ell 738, elapsed: 0.00038886070251464844
ell 737, elapsed: 0.00047588348388671875
ell 736, elapsed: 0.00039696693420410156
ell 735, elapsed: 0.0004801750183105469
ell 734, elapsed: 0.0003979206085205078
ell 733, elapsed: 0.0004792213439941406
ell 732, elapsed: 0.0004718303680419922
ell 731, elapsed: 0.0006508827209472656
ell 730, elapsed: 0.0003859996795654297
ell 729, elapsed: 0.0004930496215820312
ell 728, elapsed: 0.0003871917724609375
ell 727, elapsed: 0.0004799365997314453
ell 726, elapsed: 0.00038695335388183594
ell 725, elapsed: 0.0004792213439941406
ell 724, elapsed: 0.00041222572326660156
ell 723, elapsed: 0.0006670951843261719
ell 722, elapsed: 0.0004508495330810547
ell 721, elapsed: 0.0004749298095703125
ell 720, elapsed: 0.00039005279541015625
ell 719, elapsed: 0.00047898292541503906
ell 718, elapsed: 0.00038814544677734375
ell 717, elapsed: 0.0004718303680419922
ell 716, elapsed: 0.0004038810729980469
ell 715, elapsed: 0.0004780292510986328
ell 714, elapsed: 0.00039196014404296875
ell 713, elapsed: 0.0004801750183105469
ell 712, elapsed: 0.0003960132598876953
ell 711, elapsed: 0.0004811286926269531
ell 710, elapsed: 0.0003840923309326172
ell 709, elapsed: 0.0004658699035644531
ell 708, elapsed: 0.0003788471221923828
ell 707, elapsed: 0.0004830360412597656
ell 706, elapsed: 0.0003821849822998047
ell 705, elapsed: 0.0004589557647705078
ell 704, elapsed: 0.00038909912109375
ell 703, elapsed: 0.00047588348388671875
ell 702, elapsed: 0.0003859996795654297
ell 701, elapsed: 0.00047898292541503906
ell 700, elapsed: 0.00039315223693847656
ell 699, elapsed: 0.0005190372467041016
ell 698, elapsed: 0.0003879070281982422
ell 697, elapsed: 0.00047707557678222656
ell 696, elapsed: 0.00038909912109375
ell 695, elapsed: 0.00047206878662109375
ell 694, elapsed: 0.00038909912109375
ell 693, elapsed: 0.00047707557678222656
ell 692, elapsed: 0.00039696693420410156
ell 691, elapsed: 0.0004718303680419922
ell 690, elapsed: 0.0004432201385498047
ell 689, elapsed: 0.0004839897155761719
ell 688, elapsed: 0.0003960132598876953
ell 687, elapsed: 0.0004761219024658203
ell 686, elapsed: 0.00039005279541015625
ell 685, elapsed: 0.00047016143798828125
ell 684, elapsed: 0.0003960132598876953
ell 683, elapsed: 0.0004730224609375
ell 682, elapsed: 0.0004069805145263672
ell 681, elapsed: 0.00048089027404785156
ell 680, elapsed: 0.0003879070281982422
ell 679, elapsed: 0.00047779083251953125
ell 678, elapsed: 0.0003879070281982422
ell 677, elapsed: 0.0004820823669433594
ell 676, elapsed: 0.0005090236663818359
ell 675, elapsed: 0.0006139278411865234
ell 674, elapsed: 0.0004038810729980469
ell 673, elapsed: 0.00047016143798828125
ell 672, elapsed: 0.0003859996795654297
ell 671, elapsed: 0.0004839897155761719
ell 670, elapsed: 0.0003898143768310547
ell 669, elapsed: 0.0004849433898925781
ell 668, elapsed: 0.00048804283142089844
ell 667, elapsed: 0.0006270408630371094
ell 666, elapsed: 0.00040411949157714844
ell 665, elapsed: 0.0004780292510986328
ell 664, elapsed: 0.00038909912109375
ell 663, elapsed: 0.0004839897155761719
ell 662, elapsed: 0.0005841255187988281
ell 661, elapsed: 0.0005419254302978516
ell 660, elapsed: 0.00038909912109375
ell 659, elapsed: 0.00048089027404785156
ell 658, elapsed: 0.00040602684020996094
ell 657, elapsed: 0.0004749298095703125
ell 656, elapsed: 0.0003859996795654297
ell 655, elapsed: 0.0004749298095703125
ell 654, elapsed: 0.000392913818359375
ell 653, elapsed: 0.0004830360412597656
ell 652, elapsed: 0.0003840923309326172
ell 651, elapsed: 0.0004680156707763672
ell 650, elapsed: 0.0003859996795654297
ell 649, elapsed: 0.0004940032958984375
ell 648, elapsed: 0.00039005279541015625
ell 647, elapsed: 0.00047707557678222656
ell 646, elapsed: 0.00038695335388183594
ell 645, elapsed: 0.0004799365997314453
ell 644, elapsed: 0.00039005279541015625
ell 643, elapsed: 0.0004839897155761719
ell 642, elapsed: 0.0003859996795654297
ell 641, elapsed: 0.0006060600280761719
ell 640, elapsed: 0.0006530284881591797
ell 639, elapsed: 0.0007688999176025391
ell 638, elapsed: 0.0006299018859863281
ell 637, elapsed: 0.0007212162017822266
ell 636, elapsed: 0.0006399154663085938
ell 635, elapsed: 0.0007901191711425781
ell 634, elapsed: 0.0003399848937988281
ell 633, elapsed: 0.00036716461181640625
ell 632, elapsed: 0.0002980232238769531
ell 631, elapsed: 0.0003561973571777344
ell 630, elapsed: 0.0002942085266113281
ell 629, elapsed: 0.00035691261291503906
ell 628, elapsed: 0.0002949237823486328
ell 627, elapsed: 0.0003571510314941406
ell 626, elapsed: 0.0003180503845214844
ell 625, elapsed: 0.0006861686706542969
ell 624, elapsed: 0.0006310939788818359
ell 623, elapsed: 0.0007479190826416016
ell 622, elapsed: 0.0006511211395263672
ell 621, elapsed: 0.0007548332214355469
ell 620, elapsed: 0.0006539821624755859
ell 619, elapsed: 0.0007491111755371094
ell 618, elapsed: 0.0006239414215087891
ell 617, elapsed: 0.0007419586181640625
ell 616, elapsed: 0.0006248950958251953
ell 615, elapsed: 0.0007619857788085938
ell 614, elapsed: 0.0006260871887207031
ell 613, elapsed: 0.0007491111755371094
ell 612, elapsed: 0.0006258487701416016
ell 611, elapsed: 0.0007522106170654297
ell 610, elapsed: 0.0006299018859863281
ell 609, elapsed: 0.0007479190826416016
ell 608, elapsed: 0.00061798095703125
ell 607, elapsed: 0.0007431507110595703
ell 606, elapsed: 0.0006308555603027344
ell 605, elapsed: 0.0007510185241699219
ell 604, elapsed: 0.0006389617919921875
ell 603, elapsed: 0.0007519721984863281
ell 602, elapsed: 0.0006270408630371094
ell 601, elapsed: 0.0007431507110595703
ell 600, elapsed: 0.0006229877471923828
ell 599, elapsed: 0.0005300045013427734
ell 598, elapsed: 0.0003190040588378906
ell 597, elapsed: 0.0003771781921386719
ell 596, elapsed: 0.00042700767517089844
ell 595, elapsed: 0.000579833984375
ell 594, elapsed: 0.00045680999755859375
ell 593, elapsed: 0.00035500526428222656
ell 592, elapsed: 0.00029206275939941406
ell 591, elapsed: 0.0003490447998046875
ell 590, elapsed: 0.0002899169921875
ell 589, elapsed: 0.00040411949157714844
ell 588, elapsed: 0.0002989768981933594
ell 587, elapsed: 0.00034618377685546875
ell 586, elapsed: 0.00028896331787109375
ell 585, elapsed: 0.0003490447998046875
ell 584, elapsed: 0.00028896331787109375
ell 583, elapsed: 0.00034689903259277344
ell 582, elapsed: 0.00029015541076660156
ell 581, elapsed: 0.00034999847412109375
ell 580, elapsed: 0.00028896331787109375
ell 579, elapsed: 0.0003509521484375
ell 578, elapsed: 0.00029015541076660156
ell 577, elapsed: 0.0003960132598876953
ell 576, elapsed: 0.000308990478515625
ell 575, elapsed: 0.00035500526428222656
ell 574, elapsed: 0.00029015541076660156
ell 573, elapsed: 0.00034999847412109375
ell 572, elapsed: 0.0002951622009277344
ell 571, elapsed: 0.00035309791564941406
ell 570, elapsed: 0.0002930164337158203
ell 569, elapsed: 0.0003631114959716797
ell 568, elapsed: 0.00029206275939941406
ell 567, elapsed: 0.00035381317138671875
ell 566, elapsed: 0.0003190040588378906
ell 565, elapsed: 0.0003409385681152344
ell 564, elapsed: 0.0002810955047607422
ell 563, elapsed: 0.00033783912658691406
ell 562, elapsed: 0.0003170967102050781
ell 561, elapsed: 0.0003540515899658203
ell 560, elapsed: 0.0002930164337158203
ell 559, elapsed: 0.0003509521484375
ell 558, elapsed: 0.0002930164337158203
ell 557, elapsed: 0.00035119056701660156
ell 556, elapsed: 0.00029206275939941406
ell 555, elapsed: 0.00034809112548828125
ell 554, elapsed: 0.0004279613494873047
ell 553, elapsed: 0.0005061626434326172
ell 552, elapsed: 0.0002989768981933594
ell 551, elapsed: 0.0003600120544433594
ell 550, elapsed: 0.0002930164337158203
ell 549, elapsed: 0.0003578662872314453
ell 548, elapsed: 0.0002930164337158203
ell 547, elapsed: 0.0003609657287597656
ell 546, elapsed: 0.00029206275939941406
ell 545, elapsed: 0.00034999847412109375
ell 544, elapsed: 0.00030803680419921875
ell 543, elapsed: 0.00035881996154785156
ell 542, elapsed: 0.00029206275939941406
ell 541, elapsed: 0.0003628730773925781
ell 540, elapsed: 0.00029206275939941406
ell 539, elapsed: 0.0003571510314941406
ell 538, elapsed: 0.0002951622009277344
ell 537, elapsed: 0.0003600120544433594
ell 536, elapsed: 0.0002942085266113281
ell 535, elapsed: 0.0003490447998046875
ell 534, elapsed: 0.0002911090850830078
ell 533, elapsed: 0.00036406517028808594
ell 532, elapsed: 0.0003151893615722656
ell 531, elapsed: 0.00067901611328125
ell 530, elapsed: 0.0004239082336425781
ell 529, elapsed: 0.00047087669372558594
ell 528, elapsed: 0.0005691051483154297
ell 527, elapsed: 0.0006589889526367188
ell 526, elapsed: 0.0006251335144042969
ell 525, elapsed: 0.0005319118499755859
ell 524, elapsed: 0.00031495094299316406
ell 523, elapsed: 0.0003609657287597656
ell 522, elapsed: 0.0002930164337158203
ell 521, elapsed: 0.00035500526428222656
ell 520, elapsed: 0.0002930164337158203
ell 519, elapsed: 0.0003540515899658203
ell 518, elapsed: 0.00029397010803222656
ell 517, elapsed: 0.0003528594970703125
ell 516, elapsed: 0.0002930164337158203
ell 515, elapsed: 0.00039505958557128906
ell 514, elapsed: 0.0002989768981933594
ell 513, elapsed: 0.0003662109375
ell 512, elapsed: 0.0003161430358886719
ell 511, elapsed: 0.0003590583801269531
ell 510, elapsed: 0.00030112266540527344
ell 509, elapsed: 0.00034999847412109375
ell 508, elapsed: 0.00028514862060546875
ell 507, elapsed: 0.0003418922424316406
ell 506, elapsed: 0.0002849102020263672
ell 505, elapsed: 0.00034809112548828125
ell 504, elapsed: 0.0002930164337158203
ell 503, elapsed: 0.0003669261932373047
ell 502, elapsed: 0.0002989768981933594
ell 501, elapsed: 0.0003600120544433594
ell 500, elapsed: 0.0002970695495605469
ell 499, elapsed: 0.0003559589385986328
ell 498, elapsed: 0.00031685829162597656
ell 497, elapsed: 0.0003619194030761719
ell 496, elapsed: 0.0002949237823486328
ell 495, elapsed: 0.0003590583801269531
ell 494, elapsed: 0.0002949237823486328
ell 493, elapsed: 0.0003581047058105469
ell 492, elapsed: 0.00031113624572753906
ell 491, elapsed: 0.00035309791564941406
ell 490, elapsed: 0.0002899169921875
ell 489, elapsed: 0.0003600120544433594
ell 488, elapsed: 0.0002880096435546875
ell 487, elapsed: 0.0003490447998046875
ell 486, elapsed: 0.0002830028533935547
ell 485, elapsed: 0.00034499168395996094
ell 484, elapsed: 0.00028204917907714844
ell 483, elapsed: 0.000347137451171875
ell 482, elapsed: 0.0002810955047607422
ell 481, elapsed: 0.00036978721618652344
ell 480, elapsed: 0.00028204917907714844
ell 479, elapsed: 0.0003490447998046875
ell 478, elapsed: 0.00028705596923828125
ell 477, elapsed: 0.0005609989166259766
ell 476, elapsed: 0.0004699230194091797
ell 475, elapsed: 0.0005710124969482422
ell 474, elapsed: 0.0004360675811767578
ell 473, elapsed: 0.0004761219024658203
ell 472, elapsed: 0.00044989585876464844
ell 471, elapsed: 0.000579833984375
ell 470, elapsed: 0.00040793418884277344
ell 469, elapsed: 0.0006611347198486328
ell 468, elapsed: 0.0006079673767089844
ell 467, elapsed: 0.0006999969482421875
ell 466, elapsed: 0.00045490264892578125
ell 465, elapsed: 0.0005538463592529297
ell 464, elapsed: 0.0004589557647705078
ell 463, elapsed: 0.0005550384521484375
ell 462, elapsed: 0.0004570484161376953
ell 461, elapsed: 0.0005521774291992188
ell 460, elapsed: 0.00047707557678222656
ell 459, elapsed: 0.0007429122924804688
ell 458, elapsed: 0.0005171298980712891
ell 457, elapsed: 0.0006148815155029297
ell 456, elapsed: 0.0006248950958251953
ell 455, elapsed: 0.0007560253143310547
ell 454, elapsed: 0.0006260871887207031
ell 453, elapsed: 0.0007619857788085938
ell 452, elapsed: 0.0006201267242431641
ell 451, elapsed: 0.0007550716400146484
ell 450, elapsed: 0.0006210803985595703
ell 449, elapsed: 0.0007309913635253906
ell 448, elapsed: 0.0006198883056640625
ell 447, elapsed: 0.0007410049438476562
ell 446, elapsed: 0.0004611015319824219
ell 445, elapsed: 0.0005559921264648438
ell 444, elapsed: 0.00045800209045410156
ell 443, elapsed: 0.0005500316619873047
ell 442, elapsed: 0.0004570484161376953
ell 441, elapsed: 0.0005528926849365234
ell 440, elapsed: 0.0004680156707763672
ell 439, elapsed: 0.0005600452423095703
ell 438, elapsed: 0.0004570484161376953
ell 437, elapsed: 0.0005471706390380859
ell 436, elapsed: 0.000457763671875
ell 435, elapsed: 0.0005559921264648438
ell 434, elapsed: 0.0004591941833496094
ell 433, elapsed: 0.0005679130554199219
ell 432, elapsed: 0.0004591941833496094
ell 431, elapsed: 0.00051116943359375
ell 430, elapsed: 0.0005528926849365234
ell 429, elapsed: 0.0007472038269042969
ell 428, elapsed: 0.0006201267242431641
ell 427, elapsed: 0.0007550716400146484
ell 426, elapsed: 0.0006170272827148438
ell 425, elapsed: 0.0007388591766357422
ell 424, elapsed: 0.0006160736083984375
ell 423, elapsed: 0.0007469654083251953
ell 422, elapsed: 0.0006208419799804688
ell 421, elapsed: 0.0007729530334472656
ell 420, elapsed: 0.0006220340728759766
ell 419, elapsed: 0.0007488727569580078
ell 418, elapsed: 0.0006170272827148438
ell 417, elapsed: 0.00074005126953125
ell 416, elapsed: 0.0006461143493652344
ell 415, elapsed: 0.0007410049438476562
ell 414, elapsed: 0.0004611015319824219
ell 413, elapsed: 0.0005590915679931641
ell 412, elapsed: 0.00045800209045410156
ell 411, elapsed: 0.0005550384521484375
ell 410, elapsed: 0.0004589557647705078
ell 409, elapsed: 0.0005679130554199219
ell 408, elapsed: 0.00045800209045410156
ell 407, elapsed: 0.0005538463592529297
ell 406, elapsed: 0.00045609474182128906
ell 405, elapsed: 0.0005428791046142578
ell 404, elapsed: 0.0005609989166259766
ell 403, elapsed: 0.0007419586181640625
ell 402, elapsed: 0.0006389617919921875
ell 401, elapsed: 0.0007450580596923828
ell 400, elapsed: 0.0005319118499755859
ell 399, elapsed: 0.0004889965057373047
ell 398, elapsed: 0.0003879070281982422
ell 397, elapsed: 0.0006198883056640625
ell 396, elapsed: 0.0006411075592041016
ell 395, elapsed: 0.0007238388061523438
ell 394, elapsed: 0.0006151199340820312
ell 393, elapsed: 0.0007460117340087891
ell 392, elapsed: 0.0005211830139160156
ell 391, elapsed: 0.0004830360412597656
ell 390, elapsed: 0.00039386749267578125
ell 389, elapsed: 0.0006890296936035156
ell 388, elapsed: 0.00041794776916503906
ell 387, elapsed: 0.0006508827209472656
ell 386, elapsed: 0.0004680156707763672
ell 385, elapsed: 0.0005860328674316406
ell 384, elapsed: 0.0006098747253417969
ell 383, elapsed: 0.0006310939788818359
ell 382, elapsed: 0.0005087852478027344
ell 381, elapsed: 0.0005939006805419922
ell 380, elapsed: 0.0005419254302978516
ell 379, elapsed: 0.0006589889526367188
ell 378, elapsed: 0.0005509853363037109
ell 377, elapsed: 0.0005691051483154297
ell 376, elapsed: 0.0004630088806152344
ell 375, elapsed: 0.0007340908050537109
ell 374, elapsed: 0.0004668235778808594
ell 373, elapsed: 0.00047588348388671875
ell 372, elapsed: 0.0003979206085205078
ell 371, elapsed: 0.0005919933319091797
ell 370, elapsed: 0.0006082057952880859
ell 369, elapsed: 0.0007500648498535156
ell 368, elapsed: 0.0006098747253417969
ell 367, elapsed: 0.00055694580078125
ell 366, elapsed: 0.00038886070251464844
ell 365, elapsed: 0.0004868507385253906
ell 364, elapsed: 0.00038909912109375
ell 363, elapsed: 0.000476837158203125
ell 362, elapsed: 0.0004069805145263672
ell 361, elapsed: 0.0004940032958984375
ell 360, elapsed: 0.0003941059112548828
ell 359, elapsed: 0.0004849433898925781
ell 358, elapsed: 0.0004951953887939453
ell 357, elapsed: 0.0007278919219970703
ell 356, elapsed: 0.00046515464782714844
ell 355, elapsed: 0.0004949569702148438
ell 354, elapsed: 0.00039315223693847656
ell 353, elapsed: 0.0004818439483642578
ell 352, elapsed: 0.00039196014404296875
ell 351, elapsed: 0.0004899501800537109
ell 350, elapsed: 0.0003991127014160156
ell 349, elapsed: 0.0006761550903320312
ell 348, elapsed: 0.0005879402160644531
ell 347, elapsed: 0.0007519721984863281
ell 346, elapsed: 0.0004699230194091797
ell 345, elapsed: 0.0004868507385253906
ell 344, elapsed: 0.00039196014404296875
ell 343, elapsed: 0.00048613548278808594
ell 342, elapsed: 0.0003910064697265625
ell 341, elapsed: 0.0004780292510986328
ell 340, elapsed: 0.0003910064697265625
ell 339, elapsed: 0.0005040168762207031
ell 338, elapsed: 0.00039505958557128906
ell 337, elapsed: 0.0005009174346923828
ell 336, elapsed: 0.00045013427734375
ell 335, elapsed: 0.0006480216979980469
ell 334, elapsed: 0.0003941059112548828
ell 333, elapsed: 0.0004799365997314453
ell 332, elapsed: 0.0004630088806152344
ell 331, elapsed: 0.0006508827209472656
ell 330, elapsed: 0.00038313865661621094
ell 329, elapsed: 0.000637054443359375
ell 328, elapsed: 0.00046706199645996094
ell 327, elapsed: 0.0004849433898925781
ell 326, elapsed: 0.0003829002380371094
ell 325, elapsed: 0.0006289482116699219
ell 324, elapsed: 0.0004889965057373047
ell 323, elapsed: 0.00047516822814941406
ell 322, elapsed: 0.0003809928894042969
ell 321, elapsed: 0.00047898292541503906
ell 320, elapsed: 0.0005078315734863281
ell 319, elapsed: 0.000720977783203125
ell 318, elapsed: 0.0004899501800537109
ell 317, elapsed: 0.00048804283142089844
ell 316, elapsed: 0.00039005279541015625
ell 315, elapsed: 0.00047898292541503906
ell 314, elapsed: 0.0003838539123535156
ell 313, elapsed: 0.0006568431854248047
ell 312, elapsed: 0.0005619525909423828
ell 311, elapsed: 0.0006380081176757812
ell 310, elapsed: 0.0006079673767089844
ell 309, elapsed: 0.0006351470947265625
ell 308, elapsed: 0.000576019287109375
ell 307, elapsed: 0.0007519721984863281
ell 306, elapsed: 0.0004780292510986328
ell 305, elapsed: 0.0006730556488037109
ell 304, elapsed: 0.0006680488586425781
ell 303, elapsed: 0.0007519721984863281
ell 302, elapsed: 0.0005159378051757812
ell 301, elapsed: 0.0007441043853759766
ell 300, elapsed: 0.000637054443359375
ell 299, elapsed: 0.0006411075592041016
ell 298, elapsed: 0.0005550384521484375
ell 297, elapsed: 0.0007560253143310547
ell 296, elapsed: 0.0006389617919921875
ell 295, elapsed: 0.0005779266357421875
ell 294, elapsed: 0.0005519390106201172
ell 293, elapsed: 0.0007469654083251953
ell 292, elapsed: 0.0006549358367919922
ell 291, elapsed: 0.0005741119384765625
ell 290, elapsed: 0.0005619525909423828
ell 289, elapsed: 0.0007419586181640625
ell 288, elapsed: 0.0004971027374267578
ell 287, elapsed: 0.0006489753723144531
ell 286, elapsed: 0.0006470680236816406
ell 285, elapsed: 0.0007419586181640625
ell 284, elapsed: 0.0005640983581542969
ell 283, elapsed: 0.0006718635559082031
ell 282, elapsed: 0.0006361007690429688
ell 281, elapsed: 0.0007519721984863281
ell 280, elapsed: 0.0006351470947265625
ell 279, elapsed: 0.0006270408630371094
ell 278, elapsed: 0.0005660057067871094
ell 277, elapsed: 0.0005731582641601562
ell 276, elapsed: 0.0005228519439697266
ell 275, elapsed: 0.0007789134979248047
ell 274, elapsed: 0.0006260871887207031
ell 273, elapsed: 0.0007340908050537109
ell 272, elapsed: 0.0004780292510986328
ell 271, elapsed: 0.0006740093231201172
ell 270, elapsed: 0.0006260871887207031
ell 269, elapsed: 0.0006279945373535156
ell 268, elapsed: 0.0005240440368652344
ell 267, elapsed: 0.0007240772247314453
ell 266, elapsed: 0.0006189346313476562
ell 265, elapsed: 0.0007340908050537109
ell 264, elapsed: 0.0005459785461425781
ell 263, elapsed: 0.0006861686706542969
ell 262, elapsed: 0.0006070137023925781
ell 261, elapsed: 0.0005688667297363281
ell 260, elapsed: 0.0005648136138916016
ell 259, elapsed: 0.0007319450378417969
ell 258, elapsed: 0.0006270408630371094
ell 257, elapsed: 0.0007510185241699219
ell 256, elapsed: 0.0006251335144042969
ell 255, elapsed: 0.0006239414215087891
ell 254, elapsed: 0.0005500316619873047
ell 253, elapsed: 0.0007350444793701172
ell 252, elapsed: 0.0005018711090087891
ell 251, elapsed: 0.0006840229034423828
ell 250, elapsed: 0.0006248950958251953
ell 249, elapsed: 0.0007350444793701172
ell 248, elapsed: 0.000537872314453125
ell 247, elapsed: 0.0006890296936035156
ell 246, elapsed: 0.0005030632019042969
ell 245, elapsed: 0.0006730556488037109
ell 244, elapsed: 0.0006339550018310547
ell 243, elapsed: 0.0007431507110595703
ell 242, elapsed: 0.0005400180816650391
ell 241, elapsed: 0.0007450580596923828
ell 240, elapsed: 0.0005469322204589844
ell 239, elapsed: 0.0007669925689697266
ell 238, elapsed: 0.0006330013275146484
ell 237, elapsed: 0.0007410049438476562
ell 236, elapsed: 0.0004999637603759766
ell 235, elapsed: 0.0006740093231201172
ell 234, elapsed: 0.0005328655242919922
ell 233, elapsed: 0.0004980564117431641
ell 232, elapsed: 0.0005319118499755859
ell 231, elapsed: 0.0006539821624755859
ell 230, elapsed: 0.0005230903625488281
ell 229, elapsed: 0.0007381439208984375
ell 228, elapsed: 0.0005178451538085938
ell 227, elapsed: 0.0006988048553466797
ell 226, elapsed: 0.0006411075592041016
ell 225, elapsed: 0.0007479190826416016
ell 224, elapsed: 0.0005371570587158203
ell 223, elapsed: 0.0006270408630371094
ell 222, elapsed: 0.000637054443359375
ell 221, elapsed: 0.0007648468017578125
ell 220, elapsed: 0.0006229877471923828
ell 219, elapsed: 0.0005879402160644531
ell 218, elapsed: 0.0005509853363037109
ell 217, elapsed: 0.0006721019744873047
ell 216, elapsed: 0.0005350112915039062
ell 215, elapsed: 0.0007610321044921875
ell 214, elapsed: 0.0005359649658203125
ell 213, elapsed: 0.0006508827209472656
ell 212, elapsed: 0.0005609989166259766
ell 211, elapsed: 0.0006771087646484375
ell 210, elapsed: 0.00061798095703125
ell 209, elapsed: 0.0007610321044921875
ell 208, elapsed: 0.0006351470947265625
ell 207, elapsed: 0.0007390975952148438
ell 206, elapsed: 0.0005781650543212891
ell 205, elapsed: 0.0007488727569580078
ell 204, elapsed: 0.0006279945373535156
ell 203, elapsed: 0.0007231235504150391
ell 202, elapsed: 0.0006189346313476562
ell 201, elapsed: 0.0006499290466308594
ell 200, elapsed: 0.0004010200500488281
ell 199, elapsed: 0.0004868507385253906
ell 198, elapsed: 0.0005168914794921875
ell 197, elapsed: 0.0006291866302490234
ell 196, elapsed: 0.0003809928894042969
ell 195, elapsed: 0.000701904296875
ell 194, elapsed: 0.0005691051483154297
ell 193, elapsed: 0.0007448196411132812
ell 192, elapsed: 0.0005178451538085938
ell 191, elapsed: 0.0006289482116699219
ell 190, elapsed: 0.0006351470947265625
ell 189, elapsed: 0.0007398128509521484
ell 188, elapsed: 0.0005578994750976562
ell 187, elapsed: 0.0007469654083251953
ell 186, elapsed: 0.0006380081176757812
ell 185, elapsed: 0.0007581710815429688
ell 184, elapsed: 0.0004849433898925781
ell 183, elapsed: 0.0006799697875976562
ell 182, elapsed: 0.000637054443359375
ell 181, elapsed: 0.0007259845733642578
ell 180, elapsed: 0.0006339550018310547
ell 179, elapsed: 0.0007522106170654297
ell 178, elapsed: 0.0006260871887207031
ell 177, elapsed: 0.0007369518280029297
ell 176, elapsed: 0.0006330013275146484
ell 175, elapsed: 0.0007328987121582031
ell 174, elapsed: 0.0005381107330322266
ell 173, elapsed: 0.0007250308990478516
ell 172, elapsed: 0.0005490779876708984
ell 171, elapsed: 0.0006320476531982422
ell 170, elapsed: 0.0005581378936767578
ell 169, elapsed: 0.0005800724029541016
ell 168, elapsed: 0.0004711151123046875
ell 167, elapsed: 0.000762939453125
ell 166, elapsed: 0.0005428791046142578
ell 165, elapsed: 0.0006580352783203125
ell 164, elapsed: 0.0005340576171875
ell 163, elapsed: 0.0006098747253417969
ell 162, elapsed: 0.0005650520324707031
ell 161, elapsed: 0.0005979537963867188
ell 160, elapsed: 0.0004031658172607422
ell 159, elapsed: 0.0004780292510986328
ell 158, elapsed: 0.0005230903625488281
ell 157, elapsed: 0.0006129741668701172
ell 156, elapsed: 0.0005688667297363281
ell 155, elapsed: 0.0005671977996826172
ell 154, elapsed: 0.00049591064453125
ell 153, elapsed: 0.0006630420684814453
ell 152, elapsed: 0.0005240440368652344
ell 151, elapsed: 0.0006279945373535156
ell 150, elapsed: 0.00040793418884277344
ell 149, elapsed: 0.0006771087646484375
ell 148, elapsed: 0.0004780292510986328
ell 147, elapsed: 0.0007069110870361328
ell 146, elapsed: 0.000553131103515625
ell 145, elapsed: 0.0006020069122314453
ell 144, elapsed: 0.0005321502685546875
ell 143, elapsed: 0.0006289482116699219
ell 142, elapsed: 0.00048804283142089844
ell 141, elapsed: 0.0006699562072753906
ell 140, elapsed: 0.0004611015319824219
ell 139, elapsed: 0.0006940364837646484
ell 138, elapsed: 0.0005221366882324219
ell 137, elapsed: 0.000637054443359375
ell 136, elapsed: 0.0004050731658935547
ell 135, elapsed: 0.0006270408630371094
ell 134, elapsed: 0.0005118846893310547
ell 133, elapsed: 0.0006601810455322266
ell 132, elapsed: 0.0004711151123046875
ell 131, elapsed: 0.0004878044128417969
ell 130, elapsed: 0.00055694580078125
ell 129, elapsed: 0.0005800724029541016
ell 128, elapsed: 0.0005707740783691406
ell 127, elapsed: 0.00074005126953125
ell 126, elapsed: 0.0005428791046142578
ell 125, elapsed: 0.0006451606750488281
ell 124, elapsed: 0.0004820823669433594
ell 123, elapsed: 0.0006508827209472656
ell 122, elapsed: 0.0006499290466308594
ell 121, elapsed: 0.0005841255187988281
ell 120, elapsed: 0.0005519390106201172
ell 119, elapsed: 0.0007350444793701172
ell 118, elapsed: 0.0006289482116699219
ell 117, elapsed: 0.000637054443359375
ell 116, elapsed: 0.0005710124969482422
ell 115, elapsed: 0.0007901191711425781
ell 114, elapsed: 0.0006499290466308594
ell 113, elapsed: 0.0007572174072265625
ell 112, elapsed: 0.0005059242248535156
ell 111, elapsed: 0.0006711483001708984
ell 110, elapsed: 0.000640869140625
ell 109, elapsed: 0.0006628036499023438
ell 108, elapsed: 0.0004100799560546875
ell 107, elapsed: 0.00047588348388671875
ell 106, elapsed: 0.0003991127014160156
ell 105, elapsed: 0.0004699230194091797
ell 104, elapsed: 0.0004029273986816406
ell 103, elapsed: 0.0004749298095703125
ell 102, elapsed: 0.0004150867462158203
ell 101, elapsed: 0.00047707557678222656
ell 100, elapsed: 0.0004730224609375
ell 99, elapsed: 0.0006749629974365234
ell 98, elapsed: 0.00048613548278808594
ell 97, elapsed: 0.0006639957427978516
ell 96, elapsed: 0.0004019737243652344
ell 95, elapsed: 0.0006809234619140625
ell 94, elapsed: 0.0006239414215087891
ell 93, elapsed: 0.0005459785461425781
ell 92, elapsed: 0.0004010200500488281
ell 91, elapsed: 0.0006318092346191406
ell 90, elapsed: 0.00046896934509277344
ell 89, elapsed: 0.0006630420684814453
ell 88, elapsed: 0.0005841255187988281
ell 87, elapsed: 0.0006089210510253906
ell 86, elapsed: 0.0005619525909423828
ell 85, elapsed: 0.0005519390106201172
ell 84, elapsed: 0.0003981590270996094
ell 83, elapsed: 0.0006110668182373047
ell 82, elapsed: 0.0004899501800537109
ell 81, elapsed: 0.000659942626953125
ell 80, elapsed: 0.0005729198455810547
ell 79, elapsed: 0.0007379055023193359
ell 78, elapsed: 0.0005619525909423828
ell 77, elapsed: 0.0006589889526367188
ell 76, elapsed: 0.0006260871887207031
ell 75, elapsed: 0.0005571842193603516
ell 74, elapsed: 0.0004038810729980469
ell 73, elapsed: 0.0006301403045654297
ell 72, elapsed: 0.0006151199340820312
ell 71, elapsed: 0.0007259845733642578
ell 70, elapsed: 0.0006260871887207031
ell 69, elapsed: 0.0007579326629638672
ell 68, elapsed: 0.0004901885986328125
ell 67, elapsed: 0.0004811286926269531
ell 66, elapsed: 0.0005240440368652344
ell 65, elapsed: 0.0006189346313476562
ell 64, elapsed: 0.0005691051483154297
ell 63, elapsed: 0.0007660388946533203
ell 62, elapsed: 0.0005240440368652344
ell 61, elapsed: 0.0006349086761474609
ell 60, elapsed: 0.00047397613525390625
ell 59, elapsed: 0.0004780292510986328
ell 58, elapsed: 0.00038504600524902344
ell 57, elapsed: 0.0004830360412597656
ell 56, elapsed: 0.00039005279541015625
ell 55, elapsed: 0.0004971027374267578
ell 54, elapsed: 0.0004971027374267578
ell 53, elapsed: 0.0006430149078369141
ell 52, elapsed: 0.0003941059112548828
ell 51, elapsed: 0.0005910396575927734
ell 50, elapsed: 0.0005259513854980469
ell 49, elapsed: 0.0004761219024658203
ell 48, elapsed: 0.00040602684020996094
ell 47, elapsed: 0.0004830360412597656
ell 46, elapsed: 0.0004000663757324219
ell 45, elapsed: 0.0004909038543701172
ell 44, elapsed: 0.00039505958557128906
ell 43, elapsed: 0.0006201267242431641
ell 42, elapsed: 0.0004949569702148438
ell 41, elapsed: 0.0004868507385253906
ell 40, elapsed: 0.0004029273986816406
ell 39, elapsed: 0.0006248950958251953
ell 38, elapsed: 0.0004990100860595703
ell 37, elapsed: 0.0006580352783203125
ell 36, elapsed: 0.0006420612335205078
ell 35, elapsed: 0.0007281303405761719
ell 34, elapsed: 0.0006589889526367188
ell 33, elapsed: 0.0007479190826416016
ell 32, elapsed: 0.0006301403045654297
ell 31, elapsed: 0.0006718635559082031
ell 30, elapsed: 0.0004088878631591797
ell 29, elapsed: 0.00047278404235839844
ell 28, elapsed: 0.0004811286926269531
ell 27, elapsed: 0.0006670951843261719
ell 26, elapsed: 0.0005710124969482422
ell 25, elapsed: 0.0006570816040039062
ell 24, elapsed: 0.0003910064697265625
ell 23, elapsed: 0.00048804283142089844
ell 22, elapsed: 0.00039696693420410156
ell 21, elapsed: 0.0005030632019042969
ell 20, elapsed: 0.0004439353942871094
ell 19, elapsed: 0.0004711151123046875
ell 18, elapsed: 0.0003910064697265625
ell 17, elapsed: 0.0005950927734375
ell 16, elapsed: 0.0005300045013427734
ell 15, elapsed: 0.0007078647613525391
ell 14, elapsed: 0.0005297660827636719
ell 13, elapsed: 0.0004870891571044922
ell 12, elapsed: 0.000392913818359375
ell 11, elapsed: 0.0004811286926269531
ell 10, elapsed: 0.0003998279571533203
ell 9, elapsed: 0.0006020069122314453
ell 8, elapsed: 0.0005300045013427734
ell 7, elapsed: 0.0006248950958251953
ell 6, elapsed: 0.0005178451538085938
ell 5, elapsed: 0.0004799365997314453
ell 4, elapsed: 0.0005381107330322266
ell 3, elapsed: 0.0006220340728759766
ell 2, elapsed: 0.0005848407745361328
ell 1, elapsed: 0.0005609989166259766
ell 0, elapsed: 0.0004680156707763672
  0.658771 seconds (41.19 k allocations: 2.939 MiB)
elapsed: 0.0009210109710693359
step:          0.069052 sec (0 allocations: 0 byte, 0.0% gc time)
swapping:      0.000879 sec (0 allocations: 0 byte, 0.0% gc time)
calc_Mellell!: 0.009945 sec (0 allocations: 0 byte, 0.0% gc time)
  t0 :  0.002437 sec (0 allocations: 0 byte, 0.0% gc time)
  tm2 : 0.104345 sec (0 allocations: 0 byte, 0.0% gc time)
  tm2s: 0.001936 sec (0 allocations: 0 byte, 0.0% gc time)
  tm4 : 0.271372 sec (0 allocations: 0 byte, 0.0% gc time)
  tp2 : 0.0 sec (0 allocations: 0 byte, 0.0% gc time)
  tp2s: 0.0 sec (0 allocations: 0 byte, 0.0% gc time)
  tp4 : 0.0 sec (0 allocations: 0 byte, 0.0% gc time)
calc_wtdll!:   0.400655 sec (9.87 k allocations: 1.043 MB, 0.0% gc time)
calc_wljj!:    0.042997 sec (689 allocations: 10.766 KB, 0.0% gc time)
mult_prefac!:  0.0 sec (0 allocations: 0 byte, 0.0% gc time)
convert:       0.0 sec (0 allocations: 0 byte, 0.0% gc time)
write:         0.059535 sec (0 allocations: 0 byte, 0.0% gc time)
test_rand_2f1: 0.0 sec (0 allocations: 0 byte, 0.0% gc time)
Closing outfile out/Ml21-cache.bin...   0.021088 seconds
  0.000383 seconds (52 allocations: 28.297 KiB)
make_phi():   0.002328 seconds (8.20 k allocations: 238.016 KiB)
  0.171947 seconds (146.69 k allocations: 3.629 MiB)
tskip:       0.001277 sec (0 allocations: 0 byte, 0.0% gc time)
tread:       0.025439 sec (19 allocations: 10.688 KB, 0.0% gc time)
tmultphi:    0.013488 sec (0 allocations: 0 byte, 0.0% gc time)
tbrfft:      0.046229 sec (9.592 k allocations: 449.625 KB, 0.0% gc time)
tmultprefac: 0.027681 sec (0 allocations: 0 byte, 0.0% gc time)
toutfunc:    0.055863 sec (129.905 k allocations: 2.421 MB, 0.0% gc time)
Testing R=1.0 ... passed
Calculating fmax: 
  dlrec    = 4
  dlrecRg1 = -4
  q=1.1, R=0.9:	  0.442667 seconds (116.47 k allocations: 15.614 MiB)

  0.442927 seconds (116.50 k allocations: 15.647 MiB)
ℓ = 1202
Δℓ = 4
ΔℓRg1 = -4
N = 1600
q = 1.1
kmin = 1.0e-5
kmax = 100000.00000000004
χ0 = 0.023029999999999995
RR = RR.tsv
ℓmax = ℓmax.bin
f21 = f21.bin
kmin = 1.0e-5
kmax = 100000.0
dlrec    = 4
dlrecRg1 = -4
Output size: 5741568 bytes = 0.005347251892089844 GiB
Output size: 51264 bytes = 4.774332046508789e-5 GiB
Reading 'out/F21EllCache'...   0.001168 seconds (267 allocations: 84.656 KiB)
ellmax: 1202
lmaxcache: 1202
fell[:,1,1] = Complex{Float64}[1.3482014726274674e-57 - 3.302141236118086e-73im, 1.357860004724329e-57 - 3.3257978169518355e-73im]
ell 1202, elapsed: 5.507469177246094e-5
ell 1201, elapsed: 0.0004558563232421875
ell 1200, elapsed: 0.0003910064697265625
ell 1199, elapsed: 0.00039005279541015625
ell 1198, elapsed: 0.0005521774291992188
ell 1002, elapsed: 0.010445117950439453
ell 1001, elapsed: 0.0004398822784423828
ell 1000, elapsed: 0.0008549690246582031
ell 999, elapsed: 0.0005369186401367188
ell 998, elapsed: 0.0004918575286865234
ell 902, elapsed: 0.005423784255981445
ell 901, elapsed: 0.0005369186401367188
ell 900, elapsed: 0.0005099773406982422
ell 899, elapsed: 0.0003540515899658203
ell 898, elapsed: 0.00045299530029296875
ell 802, elapsed: 0.011634111404418945
ell 801, elapsed: 0.0004980564117431641
ell 800, elapsed: 0.0003719329833984375
ell 799, elapsed: 0.0003490447998046875
ell 798, elapsed: 0.0003650188446044922
ell 702, elapsed: 0.006618022918701172
ell 701, elapsed: 0.00038695335388183594
ell 700, elapsed: 0.0005321502685546875
ell 699, elapsed: 0.00036406517028808594
ell 698, elapsed: 0.0003540515899658203
ell 602, elapsed: 0.006078958511352539
ell 601, elapsed: 0.0004329681396484375
ell 600, elapsed: 0.0005698204040527344
ell 599, elapsed: 0.00045108795166015625
ell 598, elapsed: 0.0004999637603759766
ell 502, elapsed: 0.0053441524505615234
ell 501, elapsed: 0.0005061626434326172
ell 500, elapsed: 0.0004620552062988281
ell 499, elapsed: 0.0003540515899658203
ell 498, elapsed: 0.00040793418884277344
ell 402, elapsed: 0.005208015441894531
ell 401, elapsed: 0.0005719661712646484
ell 400, elapsed: 0.0005300045013427734
ell 399, elapsed: 0.0004940032958984375
ell 398, elapsed: 0.0005550384521484375
ell 302, elapsed: 0.005733013153076172
ell 301, elapsed: 0.0003771781921386719
ell 300, elapsed: 0.0005190372467041016
ell 299, elapsed: 0.0005140304565429688
ell 298, elapsed: 0.0006251335144042969
ell 202, elapsed: 0.0136260986328125
ell 201, elapsed: 0.0004999637603759766
ell 200, elapsed: 0.0004889965057373047
ell 199, elapsed: 0.0005350112915039062
ell 198, elapsed: 0.0005631446838378906
ell 152, elapsed: 0.002747058868408203
ell 151, elapsed: 0.00038695335388183594
ell 150, elapsed: 0.0004849433898925781
ell 149, elapsed: 0.0005640983581542969
ell 148, elapsed: 0.00048613548278808594
ell 127, elapsed: 0.024840116500854492
ell 126, elapsed: 0.000514984130859375
ell 125, elapsed: 0.0005860328674316406
ell 124, elapsed: 0.0005521774291992188
ell 123, elapsed: 0.0005691051483154297
ell 114, elapsed: 0.0012471675872802734
ell 113, elapsed: 0.0005230903625488281
ell 112, elapsed: 0.0005810260772705078
ell 111, elapsed: 0.0005841255187988281
ell 110, elapsed: 0.0007309913635253906
ell 102, elapsed: 0.0012040138244628906
ell 101, elapsed: 0.0006618499755859375
ell 100, elapsed: 0.0004520416259765625
ell 99, elapsed: 0.0006680488586425781
ell 98, elapsed: 0.0006341934204101562
ell 97, elapsed: 0.0007369518280029297
ell 96, elapsed: 0.000843048095703125
ell 95, elapsed: 0.0006959438323974609
ell 94, elapsed: 0.0008549690246582031
ell 93, elapsed: 0.0007112026214599609
ell 92, elapsed: 0.013405084609985352
ell 91, elapsed: 0.0004980564117431641
ell 90, elapsed: 0.0008192062377929688
ell 89, elapsed: 0.0005681514739990234
ell 88, elapsed: 0.0006220340728759766
ell 87, elapsed: 0.0006251335144042969
ell 86, elapsed: 0.0005679130554199219
ell 85, elapsed: 0.0005521774291992188
ell 84, elapsed: 0.0006070137023925781
ell 83, elapsed: 0.00041294097900390625
ell 82, elapsed: 0.0006349086761474609
ell 81, elapsed: 0.0007340908050537109
ell 80, elapsed: 0.0007460117340087891
ell 79, elapsed: 0.0004980564117431641
ell 78, elapsed: 0.0008261203765869141
ell 77, elapsed: 0.0005140304565429688
ell 76, elapsed: 0.0008540153503417969
ell 75, elapsed: 0.0007081031799316406
ell 74, elapsed: 0.0006120204925537109
ell 73, elapsed: 0.0007221698760986328
ell 72, elapsed: 0.0008630752563476562
ell 71, elapsed: 0.0007069110870361328
ell 70, elapsed: 0.0008220672607421875
ell 69, elapsed: 0.00074005126953125
ell 68, elapsed: 0.0008299350738525391
ell 67, elapsed: 0.0007541179656982422
ell 66, elapsed: 0.0008080005645751953
ell 65, elapsed: 0.0005178451538085938
ell 64, elapsed: 0.0008640289306640625
ell 63, elapsed: 0.0007159709930419922
ell 62, elapsed: 0.0005970001220703125
ell 61, elapsed: 0.0005490779876708984
ell 60, elapsed: 0.0006270408630371094
ell 59, elapsed: 0.0003829002380371094
ell 58, elapsed: 0.0006070137023925781
ell 57, elapsed: 0.0006120204925537109
ell 56, elapsed: 0.0007231235504150391
ell 55, elapsed: 0.00044798851013183594
ell 54, elapsed: 0.0005970001220703125
ell 53, elapsed: 0.0006101131439208984
ell 52, elapsed: 0.0007500648498535156
ell 51, elapsed: 0.0005550384521484375
ell 50, elapsed: 0.0007297992706298828
ell 49, elapsed: 0.0005109310150146484
ell 48, elapsed: 0.0005970001220703125
ell 47, elapsed: 0.0005090236663818359
ell 46, elapsed: 0.0006489753723144531
ell 45, elapsed: 0.0004699230194091797
ell 44, elapsed: 0.0004749298095703125
ell 43, elapsed: 0.00039005279541015625
ell 42, elapsed: 0.0006330013275146484
ell 41, elapsed: 0.00047087669372558594
ell 40, elapsed: 0.00047397613525390625
ell 39, elapsed: 0.0005419254302978516
ell 38, elapsed: 0.0005578994750976562
ell 37, elapsed: 0.0005590915679931641
ell 36, elapsed: 0.0007348060607910156
ell 35, elapsed: 0.000598907470703125
ell 34, elapsed: 0.0006411075592041016
ell 33, elapsed: 0.0005071163177490234
ell 32, elapsed: 0.0007281303405761719
ell 31, elapsed: 0.0004630088806152344
ell 30, elapsed: 0.00047898292541503906
ell 29, elapsed: 0.0005071163177490234
ell 28, elapsed: 0.0007348060607910156
ell 27, elapsed: 0.00061798095703125
ell 26, elapsed: 0.0006229877471923828
ell 25, elapsed: 0.00038886070251464844
ell 24, elapsed: 0.0006840229034423828
ell 23, elapsed: 0.0005080699920654297
ell 22, elapsed: 0.0006558895111083984
ell 21, elapsed: 0.00047397613525390625
ell 20, elapsed: 0.0007481575012207031
ell 19, elapsed: 0.0004429817199707031
ell 18, elapsed: 0.0004608631134033203
ell 17, elapsed: 0.0005469322204589844
ell 16, elapsed: 0.0007288455963134766
ell 15, elapsed: 0.0006151199340820312
ell 14, elapsed: 0.0007441043853759766
ell 13, elapsed: 0.00044417381286621094
ell 12, elapsed: 0.00047397613525390625
ell 11, elapsed: 0.0005340576171875
ell 10, elapsed: 0.000743865966796875
ell 9, elapsed: 0.0004780292510986328
ell 8, elapsed: 0.0005772113800048828
ell 7, elapsed: 0.0005059242248535156
ell 6, elapsed: 0.0007030963897705078
ell 5, elapsed: 0.0006198883056640625
ell 4, elapsed: 0.0007140636444091797
ell 3, elapsed: 0.0006151199340820312
ell 2, elapsed: 0.0007429122924804688
ell 1, elapsed: 0.0006389617919921875
ell 0, elapsed: 0.0007340908050537109
  0.228273 seconds (10.83 k allocations: 697.938 KiB)
elapsed: 0.0007598400115966797
step:          0.060592 sec (0 allocations: 0 byte, 0.0% gc time)
swapping:      0.000635 sec (0 allocations: 0 byte, 0.0% gc time)
calc_Mellell!: 0.00183 sec (0 allocations: 0 byte, 0.0% gc time)
  t0 :  0.000494 sec (0 allocations: 0 byte, 0.0% gc time)
  tm2 : 0.01648 sec (0 allocations: 0 byte, 0.0% gc time)
  tm2s: 0.000355 sec (0 allocations: 0 byte, 0.0% gc time)
  tm4 : 0.043368 sec (0 allocations: 0 byte, 0.0% gc time)
  tp2 : 0.0 sec (0 allocations: 0 byte, 0.0% gc time)
  tp2s: 0.0 sec (0 allocations: 0 byte, 0.0% gc time)
  tp4 : 0.0 sec (0 allocations: 0 byte, 0.0% gc time)
calc_wtdll!:   0.061409 sec (1.344 k allocations: 147.0 KB, 0.0% gc time)
calc_wljj!:    0.004767 sec (6 allocations: 96 byte, 0.0% gc time)
mult_prefac!:  0.0 sec (0 allocations: 0 byte, 0.0% gc time)
convert:       0.0 sec (0 allocations: 0 byte, 0.0% gc time)
write:         0.052728 sec (0 allocations: 0 byte, 0.0% gc time)
test_rand_2f1: 0.0 sec (0 allocations: 0 byte, 0.0% gc time)
Closing outfile out/Ml21-cache.bin...   0.002037 seconds
  0.000217 seconds (52 allocations: 28.297 KiB)
make_phi():   0.002332 seconds (8.20 k allocations: 238.016 KiB)
  0.015366 seconds (12.10 k allocations: 322.000 KiB)
tskip:       2.1e-5 sec (0 allocations: 0 byte, 0.0% gc time)
tread:       0.002404 sec (19 allocations: 2.172 KB, 0.0% gc time)
tmultphi:    0.001236 sec (0 allocations: 0 byte, 0.0% gc time)
tbrfft:      0.004051 sec (896 allocations: 42.0 KB, 0.0% gc time)
tmultprefac: 0.002675 sec (0 allocations: 0 byte, 0.0% gc time)
toutfunc:    0.004982 sec (10.528 k allocations: 206.5 KB, 0.0% gc time)
Testing R=0.9 ... passed
Calculating fmax: 
  dlrec    = 4
  dlrecRg1 = -4
  q=1.1, R=0.8:	  0.369832 seconds (113.61 k allocations: 15.166 MiB)

  0.371492 seconds (113.65 k allocations: 15.200 MiB)
ℓ = 1202
Δℓ = 4
ΔℓRg1 = -4
N = 1600
q = 1.1
kmin = 1.0e-5
kmax = 100000.00000000004
χ0 = 0.023029999999999995
RR = RR.tsv
ℓmax = ℓmax.bin
f21 = f21.bin
kmin = 1.0e-5
kmax = 100000.0
dlrec    = 4
dlrecRg1 = -4
Output size: 5741568 bytes = 0.005347251892089844 GiB
Output size: 51264 bytes = 4.774332046508789e-5 GiB
Reading 'out/F21EllCache'...   0.001838 seconds (267 allocations: 84.656 KiB)
ellmax: 1202
lmaxcache: 1202
fell[:,1,1] = Complex{Float64}[7.519068145690986e-120 - 1.8416405474382574e-135im, 7.541664537386155e-120 - 1.847175067190611e-135im]
ell 1202, elapsed: 2.193450927734375e-5
ell 1201, elapsed: 0.0007491111755371094
ell 1200, elapsed: 0.0005040168762207031
ell 1199, elapsed: 0.0005631446838378906
ell 1198, elapsed: 0.00048804283142089844
ell 1002, elapsed: 0.013787031173706055
ell 1001, elapsed: 0.0005278587341308594
ell 1000, elapsed: 0.0006718635559082031
ell 999, elapsed: 0.000492095947265625
ell 998, elapsed: 0.0004138946533203125
ell 902, elapsed: 0.005342006683349609
ell 901, elapsed: 0.0006299018859863281
ell 900, elapsed: 0.0004999637603759766
ell 899, elapsed: 0.0005848407745361328
ell 898, elapsed: 0.0005891323089599609
ell 802, elapsed: 0.008022069931030273
ell 801, elapsed: 0.0009310245513916016
ell 800, elapsed: 0.000865936279296875
ell 799, elapsed: 0.0009660720825195312
ell 798, elapsed: 0.0005910396575927734
ell 702, elapsed: 0.0058209896087646484
ell 701, elapsed: 0.0006518363952636719
ell 700, elapsed: 0.0004291534423828125
ell 699, elapsed: 0.001399993896484375
ell 698, elapsed: 0.0004830360412597656
ell 602, elapsed: 0.006031990051269531
ell 601, elapsed: 0.0006020069122314453
ell 600, elapsed: 0.0005609989166259766
ell 599, elapsed: 0.0006709098815917969
ell 598, elapsed: 0.0005650520324707031
ell 502, elapsed: 0.0067441463470458984
ell 501, elapsed: 0.0007460117340087891
ell 500, elapsed: 0.0007731914520263672
ell 499, elapsed: 0.0006620883941650391
ell 498, elapsed: 0.003187894821166992
ell 402, elapsed: 0.00527191162109375
ell 401, elapsed: 0.0005059242248535156
ell 400, elapsed: 0.0009541511535644531
ell 399, elapsed: 0.0004949569702148438
ell 398, elapsed: 0.0004761219024658203
ell 302, elapsed: 0.005856990814208984
ell 301, elapsed: 0.00045990943908691406
ell 300, elapsed: 0.0005390644073486328
ell 299, elapsed: 0.0005109310150146484
ell 298, elapsed: 0.0005221366882324219
ell 202, elapsed: 0.00540614128112793
ell 201, elapsed: 0.0006232261657714844
ell 200, elapsed: 0.0007159709930419922
ell 199, elapsed: 0.0006461143493652344
ell 198, elapsed: 0.0005698204040527344
ell 152, elapsed: 0.003731966018676758
ell 151, elapsed: 0.0005209445953369141
ell 150, elapsed: 0.0005478858947753906
ell 149, elapsed: 0.0004680156707763672
ell 148, elapsed: 0.0004980564117431641
ell 127, elapsed: 0.0018801689147949219
ell 126, elapsed: 0.014457941055297852
ell 125, elapsed: 0.0004630088806152344
ell 124, elapsed: 0.0005490779876708984
ell 123, elapsed: 0.0005478858947753906
ell 114, elapsed: 0.0009889602661132812
ell 113, elapsed: 0.0003681182861328125
ell 112, elapsed: 0.00034499168395996094
ell 111, elapsed: 0.00444483757019043
ell 110, elapsed: 0.0003771781921386719
ell 102, elapsed: 0.0011029243469238281
ell 101, elapsed: 0.0005211830139160156
ell 100, elapsed: 0.0005509853363037109
ell 99, elapsed: 0.0004620552062988281
ell 98, elapsed: 0.0005018711090087891
ell 97, elapsed: 0.004551887512207031
ell 96, elapsed: 0.0006520748138427734
ell 95, elapsed: 0.0005850791931152344
ell 94, elapsed: 0.0007369518280029297
ell 93, elapsed: 0.00049591064453125
ell 92, elapsed: 0.0006771087646484375
ell 91, elapsed: 0.0005459785461425781
ell 90, elapsed: 0.0006601810455322266
ell 89, elapsed: 0.0005028247833251953
ell 88, elapsed: 0.0006659030914306641
ell 87, elapsed: 0.0006041526794433594
ell 86, elapsed: 0.0005838871002197266
ell 85, elapsed: 0.008566856384277344
ell 84, elapsed: 0.0005159378051757812
ell 83, elapsed: 0.0005140304565429688
ell 82, elapsed: 0.0007250308990478516
ell 81, elapsed: 0.0004239082336425781
ell 80, elapsed: 0.0006151199340820312
ell 79, elapsed: 0.0004889965057373047
ell 78, elapsed: 0.004590034484863281
ell 77, elapsed: 0.0004088878631591797
ell 76, elapsed: 0.0004858970642089844
ell 75, elapsed: 0.00038504600524902344
ell 74, elapsed: 0.0004680156707763672
[...]
ell 789, elapsed: 0.0009779930114746094
ell 788, elapsed: 0.0009150505065917969
ell 782, elapsed: 0.0017499923706054688
ell 781, elapsed: 0.0010280609130859375
ell 780, elapsed: 0.0009150505065917969
ell 779, elapsed: 0.0009090900421142578
ell 778, elapsed: 0.0009169578552246094
ell 772, elapsed: 0.001895904541015625
ell 771, elapsed: 0.0009140968322753906
ell 770, elapsed: 0.0009129047393798828
ell 769, elapsed: 0.0010187625885009766
ell 768, elapsed: 0.0009219646453857422
ell 762, elapsed: 0.0017311573028564453
ell 761, elapsed: 0.0009469985961914062
ell 760, elapsed: 0.0009191036224365234
ell 759, elapsed: 0.0009129047393798828
ell 758, elapsed: 0.0009188652038574219
ell 752, elapsed: 0.001817941665649414
ell 751, elapsed: 0.0009140968322753906
ell 750, elapsed: 0.0009131431579589844
ell 749, elapsed: 0.0009090900421142578
ell 748, elapsed: 0.0009322166442871094
ell 742, elapsed: 0.0017070770263671875
ell 741, elapsed: 0.0009150505065917969
ell 740, elapsed: 0.0009260177612304688
ell 739, elapsed: 0.0009090900421142578
ell 738, elapsed: 0.0009210109710693359
ell 732, elapsed: 0.0017712116241455078
ell 731, elapsed: 0.0009319782257080078
ell 730, elapsed: 0.0009148120880126953
ell 729, elapsed: 0.0009109973907470703
ell 728, elapsed: 0.00092315673828125
ell 722, elapsed: 0.001783132553100586
ell 721, elapsed: 0.0009191036224365234
ell 720, elapsed: 0.0009181499481201172
ell 719, elapsed: 0.000926971435546875
ell 718, elapsed: 0.0009119510650634766
ell 712, elapsed: 0.001699209213256836
ell 711, elapsed: 0.0008759498596191406
ell 710, elapsed: 0.0008571147918701172
ell 709, elapsed: 0.0008530616760253906
ell 708, elapsed: 0.0008528232574462891
ell 702, elapsed: 0.0016748905181884766
ell 701, elapsed: 0.0008580684661865234
ell 700, elapsed: 0.0008368492126464844
ell 699, elapsed: 0.0008389949798583984
ell 698, elapsed: 0.0009109973907470703
ell 692, elapsed: 0.001695871353149414
ell 691, elapsed: 0.0007710456848144531
ell 690, elapsed: 0.000823974609375
ell 689, elapsed: 0.0009291172027587891
ell 688, elapsed: 0.0008189678192138672
ell 682, elapsed: 0.0015308856964111328
ell 681, elapsed: 0.0008251667022705078
ell 680, elapsed: 0.0008728504180908203
ell 679, elapsed: 0.000820159912109375
ell 678, elapsed: 0.0008189678192138672
ell 672, elapsed: 0.0015230178833007812
ell 671, elapsed: 0.0009319782257080078
ell 670, elapsed: 0.0008308887481689453
ell 669, elapsed: 0.0008170604705810547
ell 668, elapsed: 0.0008230209350585938
ell 662, elapsed: 0.0016961097717285156
ell 661, elapsed: 0.0009100437164306641
ell 660, elapsed: 0.0008690357208251953
ell 659, elapsed: 0.0009031295776367188
ell 658, elapsed: 0.0009129047393798828
ell 652, elapsed: 0.0017709732055664062
ell 651, elapsed: 0.0009348392486572266
ell 650, elapsed: 0.0009260177612304688
ell 649, elapsed: 0.0008819103240966797
ell 648, elapsed: 0.0010678768157958984
ell 642, elapsed: 0.001708984375
ell 641, elapsed: 0.0007219314575195312
ell 640, elapsed: 0.0007801055908203125
ell 639, elapsed: 0.0007419586181640625
ell 638, elapsed: 0.0007588863372802734
ell 632, elapsed: 0.00191497802734375
ell 631, elapsed: 0.0007579326629638672
ell 630, elapsed: 0.0007929801940917969
ell 629, elapsed: 0.000782012939453125
ell 628, elapsed: 0.0008120536804199219
ell 622, elapsed: 0.001708984375
ell 621, elapsed: 0.000782012939453125
ell 620, elapsed: 0.0008008480072021484
ell 619, elapsed: 0.0007967948913574219
ell 618, elapsed: 0.0007908344268798828
ell 612, elapsed: 0.0017049312591552734
ell 611, elapsed: 0.0007560253143310547
ell 610, elapsed: 0.0007889270782470703
ell 609, elapsed: 0.0007879734039306641
ell 608, elapsed: 0.000782012939453125
ell 602, elapsed: 0.0018010139465332031
ell 601, elapsed: 0.0007929801940917969
ell 600, elapsed: 0.000759124755859375
ell 599, elapsed: 0.0007729530334472656
ell 598, elapsed: 0.0007810592651367188
ell 592, elapsed: 0.0018360614776611328
ell 591, elapsed: 0.0007240772247314453
ell 590, elapsed: 0.0007798671722412109
ell 589, elapsed: 0.0008699893951416016
ell 588, elapsed: 0.0007832050323486328
ell 582, elapsed: 0.0016329288482666016
ell 581, elapsed: 0.0007290840148925781
ell 580, elapsed: 0.0008718967437744141
ell 579, elapsed: 0.0007700920104980469
ell 578, elapsed: 0.0007641315460205078
ell 572, elapsed: 0.0016591548919677734
ell 571, elapsed: 0.0008120536804199219
ell 570, elapsed: 0.0007710456848144531
ell 569, elapsed: 0.0007569789886474609
ell 568, elapsed: 0.0007691383361816406
ell 562, elapsed: 0.0014760494232177734
ell 561, elapsed: 0.0007851123809814453
ell 560, elapsed: 0.0007767677307128906
ell 559, elapsed: 0.0007688999176025391
ell 558, elapsed: 0.0007660388946533203
ell 552, elapsed: 0.001486063003540039
ell 551, elapsed: 0.0007729530334472656
ell 550, elapsed: 0.0007791519165039062
ell 549, elapsed: 0.0007860660552978516
ell 548, elapsed: 0.0007917881011962891
ell 542, elapsed: 0.001466989517211914
ell 541, elapsed: 0.0007770061492919922
ell 540, elapsed: 0.0007770061492919922
ell 539, elapsed: 0.0007929801940917969
ell 538, elapsed: 0.0007810592651367188
ell 532, elapsed: 0.001438140869140625
ell 531, elapsed: 0.0010368824005126953
ell 530, elapsed: 0.0007910728454589844
ell 529, elapsed: 0.0008039474487304688
ell 528, elapsed: 0.0010318756103515625
ell 522, elapsed: 0.0015571117401123047
ell 521, elapsed: 0.0007560253143310547
ell 520, elapsed: 0.0007719993591308594
ell 519, elapsed: 0.0007557868957519531
ell 518, elapsed: 0.0007710456848144531
ell 512, elapsed: 0.0015780925750732422
ell 511, elapsed: 0.0007998943328857422
ell 510, elapsed: 0.0007929801940917969
ell 509, elapsed: 0.0007929801940917969
ell 508, elapsed: 0.0008120536804199219
ell 502, elapsed: 0.0015308856964111328
ell 501, elapsed: 0.0007951259613037109
ell 500, elapsed: 0.0007958412170410156
ell 499, elapsed: 0.0008039474487304688
ell 498, elapsed: 0.0008020401000976562
ell 492, elapsed: 0.0015430450439453125
ell 491, elapsed: 0.0007951259613037109
ell 490, elapsed: 0.0008189678192138672
ell 489, elapsed: 0.0007941722869873047
ell 488, elapsed: 0.0008001327514648438
ell 482, elapsed: 0.001734018325805664
ell 481, elapsed: 0.0008590221405029297
ell 480, elapsed: 0.0007970333099365234
ell 479, elapsed: 0.0007970333099365234
ell 478, elapsed: 0.0007958412170410156
ell 472, elapsed: 0.0018129348754882812
ell 471, elapsed: 0.0007510185241699219
ell 470, elapsed: 0.0007939338684082031
ell 469, elapsed: 0.0007991790771484375
ell 468, elapsed: 0.0008089542388916016
ell 462, elapsed: 0.0017499923706054688
ell 461, elapsed: 0.0007500648498535156
ell 460, elapsed: 0.0007920265197753906
ell 459, elapsed: 0.0008862018585205078
ell 458, elapsed: 0.0011599063873291016
ell 452, elapsed: 0.0018298625946044922
ell 451, elapsed: 0.0007648468017578125
ell 450, elapsed: 0.00078582763671875
ell 449, elapsed: 0.0007808208465576172
ell 448, elapsed: 0.001004934310913086
ell 442, elapsed: 0.0017430782318115234
ell 441, elapsed: 0.0008080005645751953
ell 440, elapsed: 0.0007958412170410156
ell 439, elapsed: 0.00080108642578125
ell 438, elapsed: 0.0007939338684082031
ell 432, elapsed: 0.0016529560089111328
ell 431, elapsed: 0.00061798095703125
ell 430, elapsed: 0.0006260871887207031
ell 429, elapsed: 0.0006260871887207031
ell 428, elapsed: 0.0006501674652099609
ell 422, elapsed: 0.0011820793151855469
ell 421, elapsed: 0.0006489753723144531
ell 420, elapsed: 0.0006439685821533203
ell 419, elapsed: 0.0006380081176757812
ell 418, elapsed: 0.0006668567657470703
ell 412, elapsed: 0.0011417865753173828
ell 411, elapsed: 0.0006330013275146484
ell 410, elapsed: 0.0006389617919921875
ell 409, elapsed: 0.0006351470947265625
ell 408, elapsed: 0.0006649494171142578
ell 402, elapsed: 0.0011470317840576172
ell 401, elapsed: 0.0006480216979980469
ell 400, elapsed: 0.0006480216979980469
ell 399, elapsed: 0.0006320476531982422
ell 398, elapsed: 0.0006718635559082031
ell 392, elapsed: 0.0011119842529296875
ell 391, elapsed: 0.0006098747253417969
ell 390, elapsed: 0.0006079673767089844
ell 389, elapsed: 0.0006029605865478516
ell 388, elapsed: 0.000988006591796875
ell 382, elapsed: 0.00115203857421875
ell 381, elapsed: 0.000640869140625
ell 380, elapsed: 0.0006411075592041016
ell 379, elapsed: 0.0006339550018310547
ell 378, elapsed: 0.0006728172302246094
ell 372, elapsed: 0.0011301040649414062
ell 371, elapsed: 0.0006380081176757812
ell 370, elapsed: 0.0006349086761474609
ell 369, elapsed: 0.0006299018859863281
ell 368, elapsed: 0.0006740093231201172
ell 362, elapsed: 0.001107931137084961
ell 361, elapsed: 0.0007832050323486328
ell 360, elapsed: 0.0007851123809814453
ell 359, elapsed: 0.0007798671722412109
ell 358, elapsed: 0.0008759498596191406
ell 352, elapsed: 0.0017750263214111328
ell 351, elapsed: 0.0007588863372802734
ell 350, elapsed: 0.0010800361633300781
ell 349, elapsed: 0.000759124755859375
ell 348, elapsed: 0.0010380744934082031
ell 342, elapsed: 0.001789093017578125
ell 341, elapsed: 0.0007638931274414062
ell 340, elapsed: 0.000804901123046875
ell 339, elapsed: 0.0007989406585693359
ell 338, elapsed: 0.0007920265197753906
ell 332, elapsed: 0.001728057861328125
ell 331, elapsed: 0.0007460117340087891
ell 330, elapsed: 0.0006971359252929688
ell 329, elapsed: 0.0006458759307861328
ell 328, elapsed: 0.0006721019744873047
ell 322, elapsed: 0.0011599063873291016
ell 321, elapsed: 0.0006358623504638672
ell 320, elapsed: 0.0006411075592041016
ell 319, elapsed: 0.0006349086761474609
ell 318, elapsed: 0.0006401538848876953
ell 312, elapsed: 0.001230001449584961
ell 311, elapsed: 0.0006392002105712891
ell 310, elapsed: 0.0006351470947265625
ell 309, elapsed: 0.0006659030914306641
ell 308, elapsed: 0.0006351470947265625
ell 302, elapsed: 0.0027871131896972656
ell 301, elapsed: 0.0005888938903808594
ell 300, elapsed: 0.0006029605865478516
ell 299, elapsed: 0.0006918907165527344
ell 298, elapsed: 0.0007090568542480469
ell 292, elapsed: 0.0013959407806396484
ell 291, elapsed: 0.0007789134979248047
ell 290, elapsed: 0.0008859634399414062
ell 289, elapsed: 0.0006341934204101562
ell 288, elapsed: 0.0006341934204101562
ell 282, elapsed: 0.001255035400390625
ell 281, elapsed: 0.0006310939788818359
ell 280, elapsed: 0.0011200904846191406
ell 279, elapsed: 0.0006051063537597656
ell 278, elapsed: 0.0006499290466308594
ell 272, elapsed: 0.0014081001281738281
ell 271, elapsed: 0.0006749629974365234
ell 270, elapsed: 0.0006220340728759766
ell 269, elapsed: 0.0006079673767089844
ell 268, elapsed: 0.0009541511535644531
ell 262, elapsed: 0.0011899471282958984
ell 261, elapsed: 0.0006289482116699219
ell 260, elapsed: 0.0006549358367919922
ell 259, elapsed: 0.0006160736083984375
ell 258, elapsed: 0.0006089210510253906
ell 252, elapsed: 0.0011301040649414062
ell 251, elapsed: 0.0006690025329589844
ell 250, elapsed: 0.0006439685821533203
ell 249, elapsed: 0.0006420612335205078
ell 248, elapsed: 0.0006539821624755859
ell 242, elapsed: 0.0014290809631347656
ell 241, elapsed: 0.0007522106170654297
ell 240, elapsed: 0.0006780624389648438
ell 239, elapsed: 0.0006170272827148438
ell 238, elapsed: 0.0006148815155029297
ell 232, elapsed: 0.0013689994812011719
ell 231, elapsed: 0.0006520748138427734
ell 230, elapsed: 0.0006361007690429688
ell 229, elapsed: 0.0010280609130859375
ell 228, elapsed: 0.0006661415100097656
ell 222, elapsed: 0.0013070106506347656
ell 221, elapsed: 0.0007939338684082031
ell 220, elapsed: 0.0007979869842529297
ell 219, elapsed: 0.0008258819580078125
ell 218, elapsed: 0.0009529590606689453
ell 212, elapsed: 0.0015439987182617188
ell 211, elapsed: 0.0007650852203369141
ell 210, elapsed: 0.0007688999176025391
ell 209, elapsed: 0.0007960796356201172
ell 208, elapsed: 0.0006320476531982422
ell 202, elapsed: 0.0015540122985839844
ell 201, elapsed: 0.0007231235504150391
ell 200, elapsed: 0.00061798095703125
ell 199, elapsed: 0.0007050037384033203
ell 198, elapsed: 0.0006170272827148438
ell 192, elapsed: 0.0016651153564453125
ell 191, elapsed: 0.0005729198455810547
ell 190, elapsed: 0.0009188652038574219
ell 189, elapsed: 0.0006799697875976562
ell 188, elapsed: 0.0006170272827148438
ell 182, elapsed: 0.0011448860168457031
ell 181, elapsed: 0.0006349086761474609
ell 180, elapsed: 0.0007300376892089844
ell 179, elapsed: 0.0006139278411865234
ell 178, elapsed: 0.0006091594696044922
ell 172, elapsed: 0.0012989044189453125
ell 171, elapsed: 0.0007050037384033203
ell 170, elapsed: 0.0007328987121582031
ell 169, elapsed: 0.0007798671722412109
ell 168, elapsed: 0.0006420612335205078
ell 162, elapsed: 0.0012950897216796875
ell 161, elapsed: 0.0009629726409912109
ell 160, elapsed: 0.0006451606750488281
ell 159, elapsed: 0.0006148815155029297
ell 158, elapsed: 0.0006189346313476562
ell 152, elapsed: 0.0012471675872802734
ell 151, elapsed: 0.0006959438323974609
ell 150, elapsed: 0.0007610321044921875
ell 149, elapsed: 0.0005991458892822266
ell 148, elapsed: 0.0005970001220703125
ell 142, elapsed: 0.0014209747314453125
ell 141, elapsed: 0.0007560253143310547
ell 140, elapsed: 0.0006690025329589844
ell 139, elapsed: 0.0006029605865478516
ell 138, elapsed: 0.0008900165557861328
ell 132, elapsed: 0.001268148422241211
ell 131, elapsed: 0.0006389617919921875
ell 130, elapsed: 0.0006530284881591797
ell 129, elapsed: 0.0006339550018310547
ell 128, elapsed: 0.0006289482116699219
ell 122, elapsed: 0.0011911392211914062
ell 121, elapsed: 0.0006499290466308594
ell 120, elapsed: 0.0006530284881591797
ell 119, elapsed: 0.0006489753723144531
ell 118, elapsed: 0.0006570816040039062
ell 112, elapsed: 0.0012028217315673828
ell 111, elapsed: 0.0009701251983642578
ell 110, elapsed: 0.000720977783203125
ell 109, elapsed: 0.0009090900421142578
ell 108, elapsed: 0.0006268024444580078
ell 102, elapsed: 0.0016391277313232422
ell 101, elapsed: 0.0035991668701171875
ell 100, elapsed: 0.004147052764892578
ell 99, elapsed: 0.0052149295806884766
ell 98, elapsed: 0.0050048828125
ell 92, elapsed: 0.009202957153320312
ell 91, elapsed: 0.004600048065185547
ell 90, elapsed: 0.004505157470703125
ell 89, elapsed: 0.004538059234619141
ell 88, elapsed: 0.0075490474700927734
ell 82, elapsed: 0.006675004959106445
ell 81, elapsed: 0.004101991653442383
ell 80, elapsed: 0.004408836364746094
ell 79, elapsed: 0.004621982574462891
ell 78, elapsed: 0.0043909549713134766
ell 72, elapsed: 0.006588935852050781
ell 71, elapsed: 0.004400968551635742
ell 70, elapsed: 0.00463104248046875
ell 69, elapsed: 0.003551006317138672
ell 68, elapsed: 0.00451207160949707
ell 62, elapsed: 0.0068318843841552734
ell 61, elapsed: 0.004518985748291016
ell 60, elapsed: 0.004467010498046875
ell 59, elapsed: 0.00448298454284668
ell 58, elapsed: 0.003988027572631836
ell 52, elapsed: 0.0069391727447509766
ell 51, elapsed: 0.004343986511230469
ell 50, elapsed: 0.004354000091552734
ell 49, elapsed: 0.00437617301940918
ell 48, elapsed: 0.004312992095947266
ell 42, elapsed: 0.007131814956665039
ell 41, elapsed: 0.004301786422729492
ell 40, elapsed: 0.0043871402740478516
ell 39, elapsed: 0.00457310676574707
ell 38, elapsed: 0.004580020904541016
ell 32, elapsed: 0.007328033447265625
ell 31, elapsed: 0.0036041736602783203
ell 30, elapsed: 0.004773139953613281
ell 29, elapsed: 0.004385948181152344
ell 28, elapsed: 0.004724025726318359
ell 22, elapsed: 0.0067141056060791016
ell 21, elapsed: 0.004706144332885742
ell 20, elapsed: 0.00474095344543457
ell 19, elapsed: 0.004570960998535156
ell 18, elapsed: 0.004014015197753906
ell 12, elapsed: 0.007175922393798828
ell 11, elapsed: 0.0046880245208740234
ell 10, elapsed: 0.004547119140625
ell 9, elapsed: 0.004096031188964844
ell 8, elapsed: 0.00467991828918457
  0.782870 seconds (66.75 k allocations: 12.139 MiB)
elapsed: 0.0059719085693359375
step:          0.067218 sec (0 allocations: 0 byte, 0.0% gc time)
swapping:      0.000783 sec (0 allocations: 0 byte, 0.0% gc time)
calc_Mellell!: 0.030792 sec (0 allocations: 0 byte, 0.0% gc time)
  t0 :  0.010031 sec (0 allocations: 0 byte, 0.0% gc time)
  tm2 : 0.081845 sec (0 allocations: 0 byte, 0.0% gc time)
  tm2s: 0.008395 sec (0 allocations: 0 byte, 0.0% gc time)
  tm4 : 0.198407 sec (0 allocations: 0 byte, 0.0% gc time)
  tp2 : 0.0 sec (0 allocations: 0 byte, 0.0% gc time)
  tp2s: 0.0 sec (0 allocations: 0 byte, 0.0% gc time)
  tp4 : 0.0 sec (0 allocations: 0 byte, 0.0% gc time)
calc_wtdll!:   0.565943 sec (49.2 k allocations: 11.133 MB, 0.0% gc time)
calc_wljj!:    0.037952 sec (69 allocations: 1.078 KB, 0.0% gc time)
mult_prefac!:  0.0 sec (0 allocations: 0 byte, 0.0% gc time)
convert:       0.0 sec (0 allocations: 0 byte, 0.0% gc time)
write:         0.037136 sec (0 allocations: 0 byte, 0.0% gc time)
test_rand_2f1: 0.0 sec (0 allocations: 0 byte, 0.0% gc time)
Closing outfile out/MlCache/MlCache.bin...   0.000011 seconds
xi, l=0, nu=0:   0.396222 seconds (551.98 k allocations: 26.845 MiB)
xi, l=0, nu=-2:  0.002437 seconds (144 allocations: 149.562 KiB)
Created 'out/xi.tsv'.
  q=1.1, R=0.6:	  0.759792 seconds (291.08 k allocations: 38.895 MiB, 1.54% gc time)
  q=1.1, R=0.7:	  0.968277 seconds (304.75 k allocations: 40.996 MiB, 0.92% gc time)
  q=1.1, R=0.8:	  0.897555 seconds (299.14 k allocations: 40.132 MiB, 1.09% gc time)
  q=1.1, R=0.9:	  0.990061 seconds (293.57 k allocations: 39.286 MiB, 0.80% gc time)
  q=1.1, R=0.998:	 20.869955 seconds (10.67 M allocations: 823.453 MiB, 0.32% gc time)
  q=1.1, R=1.0:	  0.004263 seconds (10.24 k allocations: 768.375 KiB)

ℓ = 1000
Δℓ = 4
ΔℓRg1 = -4
N = 4096
q = 1.1
kmin = 1.0e-5
kmax = 1000.0
χ0 = 0.001
RR = RR.tsv
ℓmax = ℓmax.bin
f21 = f21.bin
kmin = 1.0e-5
kmax = 1000.0
dlrec    = 4
dlrecRg1 = -4
Output size: 1573632 bytes = 0.0014655590057373047 GiB
Output size: 786816 bytes = 0.0007327795028686523 GiB
Reading 'out/F21EllCache'...   0.001457 seconds (268 allocations: 533.531 KiB)
ellmax: 1002
lmaxcache: 1000
fell[:,1,1] = Complex{Float64}[1.7262928128202118e-224 - 4.2281979352226944e-240im, 1.7282693092099662e-224 - 4.233038955177176e-240im]
ell 1002, elapsed: 2.09808349609375e-5
ell 1001, elapsed: 0.001394033432006836
ell 1000, elapsed: 0.0010688304901123047
ell 999, elapsed: 0.008430004119873047
ell 998, elapsed: 0.00847005844116211
ell 44, elapsed: 0.63578200340271
ell 43, elapsed: 0.008074045181274414
ell 42, elapsed: 0.008024930953979492
ell 41, elapsed: 0.008054018020629883
ell 40, elapsed: 0.00805807113647461
  0.698264 seconds (4.55 k allocations: 320.359 KiB)
elapsed: 0.009048938751220703
step:          0.631093 sec (0 allocations: 0 byte, 0.0% gc time)
swapping:      0.000484 sec (0 allocations: 0 byte, 0.0% gc time)
calc_Mellell!: 0.001349 sec (0 allocations: 0 byte, 0.0% gc time)
  t0 :  0.000924 sec (0 allocations: 0 byte, 0.0% gc time)
  tm2 : 0.014168 sec (0 allocations: 0 byte, 0.0% gc time)
  tm2s: 0.000955 sec (0 allocations: 0 byte, 0.0% gc time)
  tm4 : 0.040788 sec (0 allocations: 0 byte, 0.0% gc time)
  tp2 : 0.0 sec (0 allocations: 0 byte, 0.0% gc time)
  tp2s: 0.0 sec (0 allocations: 0 byte, 0.0% gc time)
  tp4 : 0.0 sec (0 allocations: 0 byte, 0.0% gc time)
calc_wtdll!:   0.057079 sec (480 allocations: 52.5 KB, 0.0% gc time)
calc_wljj!:    0.00191 sec (1 allocations: 16 byte, 0.0% gc time)
mult_prefac!:  0.0 sec (0 allocations: 0 byte, 0.0% gc time)
convert:       0.0 sec (0 allocations: 0 byte, 0.0% gc time)
write:         0.001048 sec (0 allocations: 0 byte, 0.0% gc time)
test_rand_2f1: 0.0 sec (0 allocations: 0 byte, 0.0% gc time)
Closing outfile out/MlCache/MlCache.bin...   0.000721 seconds
  0.502295 seconds (54 allocations: 67.203 KiB)
make_phi():   0.007399 seconds (80 allocations: 276.297 KiB)
  0.003683 seconds (108 allocations: 5.812 KiB)
tskip:       1.0e-6 sec (0 allocations: 0 byte, 0.0% gc time)
tread:       0.000666 sec (19 allocations: 1.312 KB, 0.0% gc time)
tmultphi:    0.000303 sec (0 allocations: 0 byte, 0.0% gc time)
tbrfft:      0.001491 sec (96 allocations: 4.5 KB, 0.0% gc time)
tmultprefac: 0.00096 sec (0 allocations: 0 byte, 0.0% gc time)
toutfunc:    0.000359 sec (0 allocations: 0 byte, 0.0% gc time)
Created 'out/wl42_jj00.tsv'.
Created 'out/wl42_jj02.tsv'.
   Testing TwoFAST tests passed 
