Julia Version 1.6.0-DEV.1124
Commit 55a6dab763 (2020-10-04 09:06 UTC)
Platform Info:
  OS: Linux (x86_64-pc-linux-gnu)
  CPU: AMD EPYC 7502 32-Core Processor
  WORD_SIZE: 64
  LIBM: libopenlibm
  LLVM: libLLVM-10.0.1 (ORCJIT, znver2)
Environment:
  JULIA_DEPOT_PATH = ::/usr/local/share/julia
  JULIA_NUM_THREADS = 2

  Resolving package versions...
  Installed Reexport ───────────────────── v0.2.0
  Installed OpenSpecFun_jll ────────────── v0.5.3+3
  Installed GenericSVD ─────────────────── v0.3.0
  Installed AbstractFFTs ───────────────── v0.5.0
  Installed SpecialFunctions ───────────── v0.10.3
  Installed GenericSchur ───────────────── v0.4.0
  Installed ArbNumerics ────────────────── v1.2.1
  Installed MKL_jll ────────────────────── v2020.2.254+0
  Installed BinaryProvider ─────────────── v0.5.10
  Installed FFTW_jll ───────────────────── v3.3.9+5
  Installed IntelOpenMP_jll ────────────── v2018.0.3+0
  Installed Readables ──────────────────── v0.3.3
  Installed FFTW ───────────────────────── v1.2.4
  Installed TwoFAST ────────────────────── v0.1.3
  Installed CompilerSupportLibraries_jll ─ v0.3.3+0
Updating `~/.julia/environments/v1.6/Project.toml`
  [0dd23c3e] + TwoFAST v0.1.3
Updating `~/.julia/environments/v1.6/Manifest.toml`
  [621f4979] + AbstractFFTs v0.5.0
  [7e558dbc] + ArbNumerics v1.2.1
  [b99e7846] + BinaryProvider v0.5.10
  [e66e0078] + CompilerSupportLibraries_jll v0.3.3+0
  [7a1cc6ca] + FFTW v1.2.4
  [f5851436] + FFTW_jll v3.3.9+5
  [01680d73] + GenericSVD v0.3.0
  [c145ed77] + GenericSchur v0.4.0
  [1d5cc7b8] + IntelOpenMP_jll v2018.0.3+0
  [856f044c] + MKL_jll v2020.2.254+0
  [efe28fd5] + OpenSpecFun_jll v0.5.3+3
  [0d4725de] + Readables v0.3.3
  [189a3867] + Reexport v0.2.0
  [276daf66] + SpecialFunctions v0.10.3
  [0dd23c3e] + TwoFAST v0.1.3
  [56f22d72] + Artifacts
  [2a0f44e3] + Base64
  [ade2ca70] + Dates
  [8bb1440f] + DelimitedFiles
  [8ba89e20] + Distributed
  [b77e0a4c] + InteractiveUtils
  [76f85450] + LibGit2
  [8f399da3] + Libdl
  [37e2e46d] + LinearAlgebra
  [56ddb016] + Logging
  [d6f4376e] + Markdown
  [a63ad114] + Mmap
  [44cfe95a] + Pkg
  [de0858da] + Printf
  [3fa0cd96] + REPL
  [9a3f8284] + Random
  [ea8e919c] + SHA
  [9e88b42a] + Serialization
  [6462fe0b] + Sockets
  [fa267f1f] + TOML
  [8dfed614] + Test
  [cf7118a7] + UUIDs
  [4ec0a83e] + Unicode
   Building ArbNumerics → `~/.julia/scratchspaces/44cfe95a-1eb2-52ea-b672-e2afdf69b78f/329a81d67c64e3a51c176a243b6424fbe39213d0/build.log`
   Building FFTW ───────→ `~/.julia/scratchspaces/44cfe95a-1eb2-52ea-b672-e2afdf69b78f/8b7c16b56936047ca41bf25effa137ae0b381ae8/build.log`
    Testing TwoFAST
Status `/tmp/jl_tvT7fZ/Project.toml`
  [7e558dbc] ArbNumerics v1.2.1
  [39dd38d3] Dierckx v0.5.0
  [7a1cc6ca] FFTW v1.2.4
  [276daf66] SpecialFunctions v0.10.3
  [0dd23c3e] TwoFAST v0.1.3
  [8bb1440f] DelimitedFiles
  [37e2e46d] LinearAlgebra
  [56ddb016] Logging
  [8dfed614] Test
Status `/tmp/jl_tvT7fZ/Manifest.toml`
  [621f4979] AbstractFFTs v0.5.0
  [7e558dbc] ArbNumerics v1.2.1
  [b99e7846] BinaryProvider v0.5.10
  [e66e0078] CompilerSupportLibraries_jll v0.3.3+0
  [39dd38d3] Dierckx v0.5.0
  [cd4c43a9] Dierckx_jll v0.0.1+0
  [7a1cc6ca] FFTW v1.2.4
  [f5851436] FFTW_jll v3.3.9+5
  [01680d73] GenericSVD v0.3.0
  [c145ed77] GenericSchur v0.4.0
  [1d5cc7b8] IntelOpenMP_jll v2018.0.3+0
  [856f044c] MKL_jll v2020.2.254+0
  [efe28fd5] OpenSpecFun_jll v0.5.3+3
  [0d4725de] Readables v0.3.3
  [189a3867] Reexport v0.2.0
  [276daf66] SpecialFunctions v0.10.3
  [0dd23c3e] TwoFAST v0.1.3
  [56f22d72] Artifacts
  [2a0f44e3] Base64
  [ade2ca70] Dates
  [8bb1440f] DelimitedFiles
  [8ba89e20] Distributed
  [b77e0a4c] InteractiveUtils
  [76f85450] LibGit2
  [8f399da3] Libdl
  [37e2e46d] LinearAlgebra
  [56ddb016] Logging
  [d6f4376e] Markdown
  [a63ad114] Mmap
  [44cfe95a] Pkg
  [de0858da] Printf
  [3fa0cd96] REPL
  [9a3f8284] Random
  [ea8e919c] SHA
  [9e88b42a] Serialization
  [6462fe0b] Sockets
  [fa267f1f] TOML
  [8dfed614] Test
  [cf7118a7] UUIDs
  [4ec0a83e] Unicode
    Testing Running tests...
WARNING: could not import Printf.ini_hex into ArbNumerics
WARNING: could not import Printf.ini_HEX into ArbNumerics
t = 0.0 sec (0 allocations: 0 byte, 0.0% gc time)
typeof(t) = NamedTuple{(:value, :time, :bytes, :gctime, :gcstats), Tuple{DataType, Float64, Int64, Float64, Base.GC_Diff}}
TwoFAST.PerformanceStats.TimedType = Union{NamedTuple{(:value, :time, :bytes, :gctime, :gcstats), Tuple{T, Float64, Int64, Float64, Base.GC_Diff}}, Tuple{Any, Float64, Int64, Float64, Base.GC_Diff}} where T
t = 0.0 sec (0 allocations: 0 byte, 0.0% gc time)
t: 0.0 sec (0 allocations: 0 byte, 0.0% gc time)
Testing ξ(r), ℓ=0, ν=-1 ... passed
Testing ξ(r), ℓ=0, ν=0 ... passed
Testing ξ(r), ℓ=0, ν=1 ... passed
Testing ξ(r), ℓ=0, ν=2 ... passed
Testing ξ(r), ℓ=0, ν=3 ... passed
Testing ξ(r), ℓ=1, ν=0 ... passed
Testing ξ(r), ℓ=1, ν=1 ... passed
Testing ξ(r), ℓ=1, ν=2 ... passed
Testing ξ(r), ℓ=1, ν=3 ... passed
Testing ξ(r), ℓ=2, ν=-1 ... passed
Testing ξ(r), ℓ=2, ν=0 ... passed
Testing ξ(r), ℓ=2, ν=1 ... passed
Testing ξ(r), ℓ=2, ν=2 ... passed
Testing ξ(r), ℓ=2, ν=3 ... passed
Testing ξ(r), ℓ=3, ν=-1 ... passed
Testing ξ(r), ℓ=3, ν=0 ... passed
Testing ξ(r), ℓ=3, ν=1 ... passed
Testing ξ(r), ℓ=3, ν=2 ... passed
Testing ξ(r), ℓ=3, ν=3 ... passed
Testing ξ(r), ℓ=4, ν=-1 ... passed
Testing ξ(r), ℓ=4, ν=0 ... passed
Testing ξ(r), ℓ=4, ν=1 ... passed
Testing ξ(r), ℓ=4, ν=2 ... passed
Testing ξ(r), ℓ=4, ν=3 ... passed
Testing ξ(r) ... passed
Testing ξ′(r) ... passed
Testing ξ″(r) ... passed
Calculating fmax: 
  dlrec    = 4
  dlrecRg1 = -4
  q=1.1, R=1.1:	  3.471688 seconds (842.87 k allocations: 53.898 MiB, 0.45% gc time, 91.86% compilation time)

  3.540357 seconds (855.37 k allocations: 54.685 MiB, 0.44% gc time, 91.98% compilation time)
ℓ = 1202
Δℓ = 4
ΔℓRg1 = -4
N = 1600
q = 1.1
kmin = 1.0e-5
kmax = 100000.00000000004
χ0 = 0.023029999999999995
RR = RR.tsv
ℓmax = ℓmax.bin
f21 = f21.bin
kmin = 1.0e-5
kmax = 100000.0
dlrec    = 4
dlrecRg1 = -4
Output size: 5741568 bytes = 0.005347251892089844 GiB
Output size: 51264 bytes = 4.774332046508789e-5 GiB
Reading 'out/F21EllCache'...   0.592539 seconds (426.51 k allocations: 24.996 MiB, 3.81% gc time, 99.58% compilation time)
ellmax: 1202
lmaxcache: 1202
fell[:,1,1] = ComplexF64[3.9583795592771634e-52 - 9.695233714158177e-68im, 3.990121772925759e-52 - 9.772979714843386e-68im]
ell 1202, elapsed: 3.2901763916015625e-5
ell 1201, elapsed: 1.139652967453003
ell 1200, elapsed: 0.00042891502380371094
ell 1199, elapsed: 0.00039887428283691406
ell 1198, elapsed: 0.0004000663757324219
ell 1002, elapsed: 0.008634090423583984
ell 1001, elapsed: 0.0004038810729980469
ell 1000, elapsed: 0.0004220008850097656
ell 999, elapsed: 0.00038886070251464844
ell 998, elapsed: 0.00039005279541015625
ell 902, elapsed: 0.004325151443481445
ell 901, elapsed: 0.0003979206085205078
ell 900, elapsed: 0.0003829002380371094
ell 899, elapsed: 0.0003859996795654297
ell 898, elapsed: 0.0003960132598876953
ell 802, elapsed: 0.004316806793212891
ell 801, elapsed: 0.0003829002380371094
ell 800, elapsed: 0.00040411949157714844
ell 799, elapsed: 0.0003528594970703125
ell 798, elapsed: 0.0003528594970703125
ell 702, elapsed: 0.003925800323486328
ell 701, elapsed: 0.00035309791564941406
ell 700, elapsed: 0.0003459453582763672
ell 699, elapsed: 0.0003540515899658203
ell 698, elapsed: 0.0003540515899658203
ell 602, elapsed: 0.003993988037109375
ell 601, elapsed: 0.000370025634765625
ell 600, elapsed: 0.0003540515899658203
ell 599, elapsed: 0.0003581047058105469
ell 598, elapsed: 0.0003628730773925781
ell 502, elapsed: 0.004036903381347656
ell 501, elapsed: 0.0003669261932373047
ell 500, elapsed: 0.00037598609924316406
ell 499, elapsed: 0.00036716461181640625
ell 498, elapsed: 0.00037384033203125
ell 402, elapsed: 0.004139900207519531
ell 401, elapsed: 0.0003998279571533203
ell 400, elapsed: 0.00039196014404296875
ell 399, elapsed: 0.00039005279541015625
ell 398, elapsed: 0.00039196014404296875
ell 302, elapsed: 0.004200935363769531
ell 301, elapsed: 0.00043392181396484375
ell 300, elapsed: 0.0003819465637207031
ell 299, elapsed: 0.0003790855407714844
ell 298, elapsed: 0.0003600120544433594
ell 202, elapsed: 0.003968000411987305
ell 201, elapsed: 0.0003628730773925781
ell 200, elapsed: 0.0003619194030761719
ell 199, elapsed: 0.0003590583801269531
ell 198, elapsed: 0.00036597251892089844
ell 152, elapsed: 0.0022170543670654297
ell 151, elapsed: 0.00038814544677734375
ell 150, elapsed: 0.00039005279541015625
ell 149, elapsed: 0.0003848075866699219
ell 148, elapsed: 0.00038504600524902344
ell 127, elapsed: 0.001271963119506836
ell 126, elapsed: 0.0004119873046875
ell 125, elapsed: 0.0003879070281982422
ell 124, elapsed: 0.0003859996795654297
ell 123, elapsed: 0.00038814544677734375
ell 114, elapsed: 0.0007739067077636719
ell 113, elapsed: 0.00038814544677734375
ell 112, elapsed: 0.00038814544677734375
ell 111, elapsed: 0.00038886070251464844
ell 110, elapsed: 0.00039696693420410156
ell 102, elapsed: 0.0007870197296142578
ell 101, elapsed: 0.000392913818359375
ell 100, elapsed: 0.00039005279541015625
ell 99, elapsed: 0.00039076805114746094
ell 98, elapsed: 0.0003910064697265625
ell 97, elapsed: 0.00044417381286621094
ell 96, elapsed: 0.00043892860412597656
ell 95, elapsed: 0.00043392181396484375
ell 94, elapsed: 0.0004551410675048828
ell 93, elapsed: 0.00043892860412597656
ell 92, elapsed: 0.0004291534423828125
ell 91, elapsed: 0.0004329681396484375
ell 90, elapsed: 0.00043010711669921875
ell 89, elapsed: 0.00043201446533203125
ell 88, elapsed: 0.00044798851013183594
ell 87, elapsed: 0.00043201446533203125
ell 86, elapsed: 0.00044083595275878906
ell 85, elapsed: 0.00045990943908691406
ell 84, elapsed: 0.0004291534423828125
ell 83, elapsed: 0.00043702125549316406
ell 82, elapsed: 0.0004279613494873047
ell 81, elapsed: 0.00043487548828125
ell 80, elapsed: 0.00043201446533203125
ell 79, elapsed: 0.0004417896270751953
ell 78, elapsed: 0.0004429817199707031
ell 77, elapsed: 0.0004329681396484375
ell 76, elapsed: 0.0004940032958984375
ell 75, elapsed: 0.00043702125549316406
ell 74, elapsed: 0.0004360675811767578
ell 73, elapsed: 0.00044918060302734375
ell 72, elapsed: 0.00043582916259765625
ell 71, elapsed: 0.0004382133483886719
ell 70, elapsed: 0.00043511390686035156
ell 69, elapsed: 0.00043392181396484375
ell 68, elapsed: 0.0004639625549316406
ell 67, elapsed: 0.00043201446533203125
ell 66, elapsed: 0.0004417896270751953
ell 65, elapsed: 0.0004429817199707031
ell 64, elapsed: 0.0004420280456542969
ell 63, elapsed: 0.0004220008850097656
ell 62, elapsed: 0.0004367828369140625
ell 61, elapsed: 0.0004391670227050781
ell 60, elapsed: 0.0004448890686035156
ell 59, elapsed: 0.0005669593811035156
ell 58, elapsed: 0.0004279613494873047
ell 57, elapsed: 0.0004210472106933594
ell 56, elapsed: 0.0004329681396484375
ell 55, elapsed: 0.0004298686981201172
ell 54, elapsed: 0.00043201446533203125
ell 53, elapsed: 0.0004410743713378906
ell 52, elapsed: 0.0004329681396484375
ell 51, elapsed: 0.0005748271942138672
ell 50, elapsed: 0.00043201446533203125
ell 49, elapsed: 0.0004448890686035156
ell 48, elapsed: 0.00043892860412597656
ell 47, elapsed: 0.00045299530029296875
ell 46, elapsed: 0.00045299530029296875
ell 45, elapsed: 0.0004410743713378906
ell 44, elapsed: 0.00044608116149902344
ell 43, elapsed: 0.0004379749298095703
ell 42, elapsed: 0.0005660057067871094
ell 41, elapsed: 0.0004420280456542969
ell 40, elapsed: 0.00042891502380371094
ell 39, elapsed: 0.00045180320739746094
ell 38, elapsed: 0.0004429817199707031
ell 37, elapsed: 0.0004508495330810547
ell 36, elapsed: 0.0004470348358154297
ell 35, elapsed: 0.00043892860412597656
ell 34, elapsed: 0.0005781650543212891
ell 33, elapsed: 0.00043892860412597656
ell 32, elapsed: 0.0004489421844482422
ell 31, elapsed: 0.000453948974609375
ell 30, elapsed: 0.0004401206970214844
ell 29, elapsed: 0.00045609474182128906
ell 28, elapsed: 0.0004470348358154297
ell 27, elapsed: 0.00044918060302734375
ell 26, elapsed: 0.0005009174346923828
ell 25, elapsed: 0.0004489421844482422
ell 24, elapsed: 0.0004639625549316406
ell 23, elapsed: 0.0004470348358154297
ell 22, elapsed: 0.0004558563232421875
ell 21, elapsed: 0.0004589557647705078
ell 20, elapsed: 0.0004520416259765625
ell 19, elapsed: 0.0004658699035644531
ell 18, elapsed: 0.00045108795166015625
ell 17, elapsed: 0.0005099773406982422
ell 16, elapsed: 0.0004620552062988281
ell 15, elapsed: 0.00044608116149902344
ell 14, elapsed: 0.000453948974609375
ell 13, elapsed: 0.00044608116149902344
ell 12, elapsed: 0.00044608116149902344
ell 11, elapsed: 0.00044798851013183594
ell 10, elapsed: 0.0004439353942871094
ell 9, elapsed: 0.0004889965057373047
ell 8, elapsed: 0.0004520416259765625
ell 7, elapsed: 0.0004360675811767578
ell 6, elapsed: 0.00044798851013183594
ell 5, elapsed: 0.0004448890686035156
ell 4, elapsed: 0.0004410743713378906
ell 3, elapsed: 0.0004379749298095703
ell 2, elapsed: 0.0004360675811767578
ell 1, elapsed: 0.00044989585876464844
ell 0, elapsed: 0.0005118846893310547
  1.654023 seconds (1.38 M allocations: 74.481 MiB, 2.69% gc time, 92.96% compilation time)
elapsed: 0.0005328655242919922
step:          0.301574 sec (311.14 k allocations: 16.963 MB, 6.27% gc time)
swapping:      0.000295 sec (0 allocations: 0 byte, 0.0% gc time)
calc_Mellell!: 0.123663 sec (135.739 k allocations: 7.431 MB, 0.0% gc time)
  t0 :  0.0 sec (0 allocations: 0 byte, 0.0% gc time)
  tm2 : 0.0 sec (0 allocations: 0 byte, 0.0% gc time)
  tm2s: 0.0 sec (0 allocations: 0 byte, 0.0% gc time)
  tm4 : 0.0 sec (0 allocations: 0 byte, 0.0% gc time)
  tp2 : 0.0 sec (0 allocations: 0 byte, 0.0% gc time)
  tp2s: 0.0 sec (0 allocations: 0 byte, 0.0% gc time)
  tp4 : 0.0 sec (0 allocations: 0 byte, 0.0% gc time)
calc_wtdll!:   0.817444 sec (509.623 k allocations: 28.197 MB, 0.0% gc time)
calc_wljj!:    0.002038 sec (6 allocations: 96 byte, 0.0% gc time)
mult_prefac!:  0.0 sec (0 allocations: 0 byte, 0.0% gc time)
convert:       0.0 sec (0 allocations: 0 byte, 0.0% gc time)
write:         0.003091 sec (0 allocations: 0 byte, 0.0% gc time)
test_rand_2f1: 0.0 sec (0 allocations: 0 byte, 0.0% gc time)
Closing outfile out/Ml21-cache.bin...   0.000007 seconds
  0.882125 seconds (246.36 k allocations: 14.218 MiB, 39.20% compilation time)
make_phi():   0.007544 seconds (8.18 k allocations: 237.844 KiB)
  0.198065 seconds (87.57 k allocations: 4.748 MiB, 94.37% compilation time)
tskip:       1.4e-5 sec (0 allocations: 0 byte, 0.0% gc time)
tread:       0.00203 sec (17 allocations: 2.125 KB, 0.0% gc time)
tmultphi:    0.031948 sec (21.425 k allocations: 1.287 MB, 0.0% gc time)
tbrfft:      0.002919 sec (0 allocations: 0 byte, 0.0% gc time)
tmultprefac: 0.001722 sec (0 allocations: 0 byte, 0.0% gc time)
toutfunc:    0.124492 sec (64.483 k allocations: 3.329 MB, 0.0% gc time)
Testing R=1.1 ... passed
Calculating fmax: 
  dlrec    = 4
  dlrecRg1 = -4
  q=1.1, R=1.0:	  0.001288 seconds (3.20 k allocations: 275.344 KiB)

  0.001428 seconds (3.25 k allocations: 310.312 KiB)
ℓ = 1202
Δℓ = 4
ΔℓRg1 = -4
N = 1600
q = 1.1
kmin = 1.0e-5
kmax = 100000.00000000004
χ0 = 0.023029999999999995
RR = RR.tsv
ℓmax = ℓmax.bin
f21 = f21.bin
kmin = 1.0e-5
kmax = 100000.0
dlrec    = 4
dlrecRg1 = -4
Output size: 61465536 bytes = 0.05724424123764038 GiB
Output size: 51264 bytes = 4.774332046508789e-5 GiB
Reading 'out/F21EllCache'...   0.000861 seconds (197 allocations: 84.203 KiB)
ellmax: 1202
lmaxcache: 1202
fell[:,1,1] = ComplexF64[809.6031528389767 - 1.9829558194077161e-13im, 0.0 + 0.0im]
ell 1202, elapsed: 1.9073486328125e-5
ell 1201, elapsed: 0.012993097305297852
ell 1200, elapsed: 0.011216163635253906
ell 1199, elapsed: 0.00023102760314941406
ell 1198, elapsed: 0.000225067138671875
ell 1197, elapsed: 0.0002849102020263672
ell 1196, elapsed: 0.00025391578674316406
ell 1195, elapsed: 0.00025200843811035156
ell 1194, elapsed: 0.00025010108947753906
ell 1193, elapsed: 0.000247955322265625
ell 1192, elapsed: 0.0002510547637939453
ell 1191, elapsed: 0.00025200843811035156
ell 1190, elapsed: 0.00025081634521484375
ell 1189, elapsed: 0.00025081634521484375
ell 1188, elapsed: 0.0002758502960205078
ell 1187, elapsed: 0.0003039836883544922
ell 1186, elapsed: 0.00030612945556640625
ell 1185, elapsed: 0.0007009506225585938
ell 1184, elapsed: 0.00030684471130371094
ell 1183, elapsed: 0.0002968311309814453
ell 1182, elapsed: 0.00030112266540527344
ell 1181, elapsed: 0.0002970695495605469
ell 1180, elapsed: 0.00030803680419921875
ell 1179, elapsed: 0.00030303001403808594
ell 1178, elapsed: 0.00030112266540527344
ell 1177, elapsed: 0.00031495094299316406
ell 1176, elapsed: 0.00030303001403808594
ell 1175, elapsed: 0.0003180503845214844
ell 1174, elapsed: 0.0005509853363037109
ell 1173, elapsed: 0.0003190040588378906
ell 1172, elapsed: 0.00030994415283203125
ell 1171, elapsed: 0.00030493736267089844
ell 1170, elapsed: 0.0003070831298828125
ell 1169, elapsed: 0.0003020763397216797
ell 1168, elapsed: 0.00030303001403808594
ell 1167, elapsed: 0.00030684471130371094
ell 1166, elapsed: 0.0002970695495605469
ell 1165, elapsed: 0.0003108978271484375
ell 1164, elapsed: 0.00030493736267089844
ell 1163, elapsed: 0.00031495094299316406
ell 1162, elapsed: 0.00043511390686035156
ell 1161, elapsed: 0.00030493736267089844
ell 1160, elapsed: 0.0004429817199707031
ell 1159, elapsed: 0.000308990478515625
ell 1158, elapsed: 0.00031495094299316406
ell 1157, elapsed: 0.00030803680419921875
ell 1156, elapsed: 0.00030684471130371094
ell 1155, elapsed: 0.00030803680419921875
ell 1154, elapsed: 0.0002970695495605469
ell 1153, elapsed: 0.00030493736267089844
ell 1152, elapsed: 0.00030303001403808594
ell 1151, elapsed: 0.0007081031799316406
ell 1150, elapsed: 0.0003008842468261719
ell 1149, elapsed: 0.00035190582275390625
ell 1148, elapsed: 0.0002980232238769531
ell 1147, elapsed: 0.0002930164337158203
ell 1146, elapsed: 0.0002930164337158203
ell 1145, elapsed: 0.0003001689910888672
ell 1144, elapsed: 0.0002892017364501953
ell 1143, elapsed: 0.00037598609924316406
ell 1142, elapsed: 0.0002970695495605469
ell 1141, elapsed: 0.00030112266540527344
ell 1140, elapsed: 0.00033593177795410156
ell 1139, elapsed: 0.00029397010803222656
ell 1138, elapsed: 0.00030994415283203125
ell 1137, elapsed: 0.0002930164337158203
ell 1136, elapsed: 0.0002999305725097656
ell 1135, elapsed: 0.00030303001403808594
ell 1134, elapsed: 0.00029921531677246094
ell 1133, elapsed: 0.00030112266540527344
ell 1132, elapsed: 0.0002980232238769531
ell 1131, elapsed: 0.0002989768981933594
ell 1130, elapsed: 0.00030803680419921875
ell 1129, elapsed: 0.0002951622009277344
ell 1128, elapsed: 0.00031495094299316406
ell 1127, elapsed: 0.0004451274871826172
ell 1126, elapsed: 0.0003058910369873047
ell 1125, elapsed: 0.00029087066650390625
ell 1124, elapsed: 0.0002930164337158203
ell 1123, elapsed: 0.0002989768981933594
ell 1122, elapsed: 0.00030303001403808594
ell 1121, elapsed: 0.00030994415283203125
ell 1120, elapsed: 0.0002980232238769531
ell 1119, elapsed: 0.0002989768981933594
ell 1118, elapsed: 0.0003108978271484375
ell 1117, elapsed: 0.0002980232238769531
ell 1116, elapsed: 0.00030303001403808594
ell 1115, elapsed: 0.00044798851013183594
ell 1114, elapsed: 0.0003020763397216797
ell 1113, elapsed: 0.0003039836883544922
ell 1112, elapsed: 0.0002968311309814453
ell 1111, elapsed: 0.00030612945556640625
ell 1110, elapsed: 0.00029587745666503906
ell 1109, elapsed: 0.0002970695495605469
ell 1108, elapsed: 0.0002980232238769531
ell 1107, elapsed: 0.0002970695495605469
ell 1106, elapsed: 0.00030112266540527344
ell 1105, elapsed: 0.0002999305725097656
ell 1104, elapsed: 0.00030493736267089844
ell 1103, elapsed: 0.0004520416259765625
ell 1102, elapsed: 0.0002989768981933594
ell 1101, elapsed: 0.00030612945556640625
ell 1100, elapsed: 0.0003008842468261719
ell 1099, elapsed: 0.00030112266540527344
ell 1098, elapsed: 0.00030303001403808594
ell 1097, elapsed: 0.00029778480529785156
ell 1096, elapsed: 0.00030112266540527344
ell 1095, elapsed: 0.0002980232238769531
ell 1094, elapsed: 0.0002970695495605469
ell 1093, elapsed: 0.0003058910369873047
ell 1092, elapsed: 0.0002980232238769531
ell 1091, elapsed: 0.0004401206970214844
ell 1090, elapsed: 0.00030493736267089844
ell 1089, elapsed: 0.0002980232238769531
ell 1088, elapsed: 0.0003020763397216797
ell 1087, elapsed: 0.0002970695495605469
ell 1086, elapsed: 0.0003008842468261719
ell 1085, elapsed: 0.0002989768981933594
ell 1084, elapsed: 0.0002980232238769531
ell 1083, elapsed: 0.00030493736267089844
ell 1082, elapsed: 0.0002961158752441406
ell 1081, elapsed: 0.0003008842468261719
ell 1080, elapsed: 0.0002989768981933594
ell 1079, elapsed: 0.0004439353942871094
ell 1078, elapsed: 0.0003190040588378906
ell 1077, elapsed: 0.0003161430358886719
ell 1076, elapsed: 0.00031304359436035156
ell 1075, elapsed: 0.0002989768981933594
ell 1074, elapsed: 0.0003020763397216797
ell 1073, elapsed: 0.0002961158752441406
ell 1072, elapsed: 0.00029778480529785156
ell 1071, elapsed: 0.00030517578125
ell 1070, elapsed: 0.00029778480529785156
ell 1069, elapsed: 0.0003039836883544922
ell 1068, elapsed: 0.0002980232238769531
ell 1067, elapsed: 0.00033593177795410156
ell 1066, elapsed: 0.00037097930908203125
ell 1065, elapsed: 0.00030303001403808594
ell 1064, elapsed: 0.0004100799560546875
ell 1063, elapsed: 0.00030803680419921875
ell 1062, elapsed: 0.0003581047058105469
ell 1061, elapsed: 0.000308990478515625
ell 1060, elapsed: 0.00031495094299316406
ell 1059, elapsed: 0.00032401084899902344
ell 1058, elapsed: 0.0003001689910888672
ell 1057, elapsed: 0.0003018379211425781
ell 1056, elapsed: 0.0003139972686767578
ell 1055, elapsed: 0.00032806396484375
ell 1054, elapsed: 0.0003108978271484375
ell 1053, elapsed: 0.00030612945556640625
ell 1052, elapsed: 0.00030303001403808594
ell 1051, elapsed: 0.00030493736267089844
ell 1050, elapsed: 0.0002999305725097656
ell 1049, elapsed: 0.00031113624572753906
ell 1048, elapsed: 0.0002970695495605469
ell 1047, elapsed: 0.0002999305725097656
ell 1046, elapsed: 0.00030303001403808594
ell 1045, elapsed: 0.0002989768981933594
ell 1044, elapsed: 0.0003020763397216797
ell 1043, elapsed: 0.00044798851013183594
ell 1042, elapsed: 0.0002980232238769531
ell 1041, elapsed: 0.0003070831298828125
ell 1040, elapsed: 0.0002949237823486328
ell 1039, elapsed: 0.0003039836883544922
ell 1038, elapsed: 0.0002949237823486328
ell 1037, elapsed: 0.0002961158752441406
ell 1036, elapsed: 0.0003039836883544922
ell 1035, elapsed: 0.00029921531677246094
ell 1034, elapsed: 0.0003008842468261719
ell 1033, elapsed: 0.0002961158752441406
ell 1032, elapsed: 0.00029587745666503906
ell 1031, elapsed: 0.0004379749298095703
ell 1030, elapsed: 0.00030493736267089844
ell 1029, elapsed: 0.0003058910369873047
ell 1028, elapsed: 0.0002949237823486328
ell 1027, elapsed: 0.0002951622009277344
ell 1026, elapsed: 0.00030303001403808594
ell 1025, elapsed: 0.0002949237823486328
ell 1024, elapsed: 0.00030112266540527344
ell 1023, elapsed: 0.0002980232238769531
ell 1022, elapsed: 0.0003020763397216797
ell 1021, elapsed: 0.0003001689910888672
ell 1020, elapsed: 0.00029921531677246094
ell 1019, elapsed: 0.00030517578125
ell 1018, elapsed: 0.0004458427429199219
ell 1017, elapsed: 0.0002989768981933594
ell 1016, elapsed: 0.0002989768981933594
ell 1015, elapsed: 0.0002989768981933594
ell 1014, elapsed: 0.00030493736267089844
ell 1013, elapsed: 0.0003120899200439453
ell 1012, elapsed: 0.00030994415283203125
ell 1011, elapsed: 0.0002999305725097656
ell 1010, elapsed: 0.00030493736267089844
ell 1009, elapsed: 0.0003178119659423828
ell 1008, elapsed: 0.0003001689910888672
ell 1007, elapsed: 0.0002980232238769531
ell 1006, elapsed: 0.0004119873046875
ell 1005, elapsed: 0.0002970695495605469
ell 1004, elapsed: 0.0003039836883544922
ell 1003, elapsed: 0.0003008842468261719
ell 1002, elapsed: 0.0002980232238769531
ell 1001, elapsed: 0.0002930164337158203
ell 1000, elapsed: 0.0002951622009277344
ell 999, elapsed: 0.00030303001403808594
ell 998, elapsed: 0.00029921531677246094
ell 997, elapsed: 0.00030994415283203125
ell 996, elapsed: 0.00029206275939941406
ell 995, elapsed: 0.0002949237823486328
ell 994, elapsed: 0.0003681182861328125
ell 993, elapsed: 0.00029397010803222656
ell 992, elapsed: 0.0002980232238769531
ell 991, elapsed: 0.00029397010803222656
ell 990, elapsed: 0.00029397010803222656
ell 989, elapsed: 0.0003020763397216797
ell 988, elapsed: 0.0002951622009277344
ell 987, elapsed: 0.0002999305725097656
ell 986, elapsed: 0.0002930164337158203
ell 985, elapsed: 0.0002989768981933594
ell 984, elapsed: 0.0003020763397216797
ell 983, elapsed: 0.00029587745666503906
ell 982, elapsed: 0.00030803680419921875
ell 981, elapsed: 0.0004291534423828125
ell 980, elapsed: 0.0002968311309814453
ell 979, elapsed: 0.0002970695495605469
ell 978, elapsed: 0.0002880096435546875
ell 977, elapsed: 0.00029587745666503906
ell 976, elapsed: 0.0002930164337158203
ell 975, elapsed: 0.0002961158752441406
ell 974, elapsed: 0.0003008842468261719
ell 973, elapsed: 0.0003020763397216797
ell 972, elapsed: 0.0002980232238769531
ell 971, elapsed: 0.0002970695495605469
ell 970, elapsed: 0.00030303001403808594
ell 969, elapsed: 0.00037598609924316406
ell 968, elapsed: 0.0002560615539550781
ell 967, elapsed: 0.0002589225769042969
ell 966, elapsed: 0.0002601146697998047
ell 965, elapsed: 0.0002510547637939453
ell 964, elapsed: 0.0002551078796386719
ell 963, elapsed: 0.0002491474151611328
ell 962, elapsed: 0.00025081634521484375
ell 961, elapsed: 0.0002541542053222656
ell 960, elapsed: 0.0002529621124267578
ell 959, elapsed: 0.00025200843811035156
ell 958, elapsed: 0.00025010108947753906
ell 957, elapsed: 0.00024890899658203125
ell 956, elapsed: 0.0002570152282714844
ell 955, elapsed: 0.0003380775451660156
ell 954, elapsed: 0.0002570152282714844
ell 953, elapsed: 0.00024700164794921875
ell 952, elapsed: 0.0002510547637939453
ell 951, elapsed: 0.00025391578674316406
ell 950, elapsed: 0.000247955322265625
ell 949, elapsed: 0.0002880096435546875
ell 948, elapsed: 0.0002899169921875
ell 947, elapsed: 0.00032711029052734375
ell 946, elapsed: 0.00038504600524902344
ell 945, elapsed: 0.00028395652770996094
ell 944, elapsed: 0.0003001689910888672
ell 943, elapsed: 0.0002970695495605469
ell 942, elapsed: 0.00037407875061035156
ell 941, elapsed: 0.00028896331787109375
ell 940, elapsed: 0.0002779960632324219
ell 939, elapsed: 0.0002579689025878906
ell 938, elapsed: 0.000247955322265625
ell 937, elapsed: 0.00025200843811035156
ell 936, elapsed: 0.0002589225769042969
ell 935, elapsed: 0.00025010108947753906
ell 934, elapsed: 0.0002560615539550781
ell 933, elapsed: 0.0002789497375488281
ell 932, elapsed: 0.00025391578674316406
ell 931, elapsed: 0.00024700164794921875
ell 930, elapsed: 0.00024580955505371094
ell 929, elapsed: 0.00025916099548339844
ell 928, elapsed: 0.00024390220642089844
ell 927, elapsed: 0.00030303001403808594
ell 926, elapsed: 0.00024509429931640625
ell 925, elapsed: 0.0002491474151611328
ell 924, elapsed: 0.0002639293670654297
ell 923, elapsed: 0.00024509429931640625
ell 922, elapsed: 0.00025200843811035156
ell 921, elapsed: 0.0002448558807373047
ell 920, elapsed: 0.00024318695068359375
ell 919, elapsed: 0.0002579689025878906
ell 918, elapsed: 0.00024390220642089844
ell 917, elapsed: 0.0002551078796386719
ell 916, elapsed: 0.0002799034118652344
ell 915, elapsed: 0.00024580955505371094
ell 914, elapsed: 0.00027489662170410156
ell 913, elapsed: 0.00032591819763183594
ell 912, elapsed: 0.0002980232238769531
ell 911, elapsed: 0.00028395652770996094
ell 910, elapsed: 0.00028395652770996094
ell 909, elapsed: 0.00028705596923828125
ell 908, elapsed: 0.00028514862060546875
ell 907, elapsed: 0.0002949237823486328
ell 906, elapsed: 0.00028014183044433594
ell 905, elapsed: 0.00028014183044433594
ell 904, elapsed: 0.00029587745666503906
ell 903, elapsed: 0.000286102294921875
ell 902, elapsed: 0.00028586387634277344
ell 901, elapsed: 0.0003077983856201172
ell 900, elapsed: 0.0003211498260498047
ell 899, elapsed: 0.000244140625
ell 898, elapsed: 0.0002391338348388672
ell 897, elapsed: 0.0002448558807373047
ell 896, elapsed: 0.00024199485778808594
ell 895, elapsed: 0.00023794174194335938
ell 894, elapsed: 0.00024390220642089844
ell 893, elapsed: 0.00024008750915527344
ell 892, elapsed: 0.00024199485778808594
ell 891, elapsed: 0.00023603439331054688
ell 890, elapsed: 0.00024390220642089844
ell 889, elapsed: 0.00023698806762695312
ell 888, elapsed: 0.00023698806762695312
ell 887, elapsed: 0.00023889541625976562
ell 886, elapsed: 0.00023794174194335938
ell 885, elapsed: 0.00024580955505371094
ell 884, elapsed: 0.0002741813659667969
ell 883, elapsed: 0.00023794174194335938
ell 882, elapsed: 0.000244140625
ell 881, elapsed: 0.00023698806762695312
ell 880, elapsed: 0.0002429485321044922
ell 879, elapsed: 0.00023603439331054688
ell 878, elapsed: 0.00023698806762695312
ell 877, elapsed: 0.0002510547637939453
ell 876, elapsed: 0.00023794174194335938
ell 875, elapsed: 0.0002429485321044922
ell 874, elapsed: 0.00024199485778808594
ell 873, elapsed: 0.0002391338348388672
ell 872, elapsed: 0.00024890899658203125
ell 871, elapsed: 0.00023698806762695312
ell 870, elapsed: 0.00024509429931640625
ell 869, elapsed: 0.00023794174194335938
ell 868, elapsed: 0.004430055618286133
ell 867, elapsed: 0.00028705596923828125
ell 866, elapsed: 0.00027298927307128906
ell 865, elapsed: 0.0002799034118652344
ell 864, elapsed: 0.0002720355987548828
ell 863, elapsed: 0.0002770423889160156
ell 862, elapsed: 0.0002911090850830078
ell 861, elapsed: 0.0002980232238769531
ell 860, elapsed: 0.00029015541076660156
ell 859, elapsed: 0.00029087066650390625
ell 858, elapsed: 0.0002961158752441406
ell 857, elapsed: 0.0002951622009277344
ell 856, elapsed: 0.0003139972686767578
ell 855, elapsed: 0.00029397010803222656
ell 854, elapsed: 0.00029397010803222656
ell 853, elapsed: 0.0002970695495605469
ell 852, elapsed: 0.0002951622009277344
ell 851, elapsed: 0.0002968311309814453
ell 850, elapsed: 0.0003039836883544922
ell 849, elapsed: 0.0002949237823486328
ell 848, elapsed: 0.00029587745666503906
ell 847, elapsed: 0.0003058910369873047
ell 846, elapsed: 0.0002980232238769531
ell 845, elapsed: 0.0002968311309814453
ell 844, elapsed: 0.00030612945556640625
ell 843, elapsed: 0.0003509521484375
ell 842, elapsed: 0.0003058910369873047
ell 841, elapsed: 0.00030994415283203125
ell 840, elapsed: 0.0002999305725097656
ell 839, elapsed: 0.00029921531677246094
ell 838, elapsed: 0.00030303001403808594
ell 837, elapsed: 0.0002949237823486328
ell 836, elapsed: 0.00030517578125
ell 835, elapsed: 0.0002961158752441406
ell 834, elapsed: 0.0003058910369873047
ell 833, elapsed: 0.00029587745666503906
ell 832, elapsed: 0.0002968311309814453
ell 831, elapsed: 0.00033092498779296875
ell 830, elapsed: 0.0003020763397216797
ell 829, elapsed: 0.0003039836883544922
ell 828, elapsed: 0.000308990478515625
ell 827, elapsed: 0.0003020763397216797
ell 826, elapsed: 0.000308990478515625
ell 825, elapsed: 0.0002989768981933594
ell 824, elapsed: 0.00030493736267089844
ell 823, elapsed: 0.00030303001403808594
ell 822, elapsed: 0.0002949237823486328
ell 821, elapsed: 0.0003039836883544922
ell 820, elapsed: 0.0003008842468261719
ell 819, elapsed: 0.0003070831298828125
ell 818, elapsed: 0.00039696693420410156
ell 817, elapsed: 0.0002949237823486328
ell 816, elapsed: 0.000308990478515625
ell 815, elapsed: 0.00030112266540527344
ell 814, elapsed: 0.0003230571746826172
ell 813, elapsed: 0.00031113624572753906
ell 812, elapsed: 0.0002989768981933594
ell 811, elapsed: 0.00030803680419921875
ell 810, elapsed: 0.0002968311309814453
ell 809, elapsed: 0.00030684471130371094
ell 808, elapsed: 0.0002949237823486328
ell 807, elapsed: 0.00029587745666503906
ell 806, elapsed: 0.0003631114959716797
ell 805, elapsed: 0.00030303001403808594
ell 804, elapsed: 0.00030994415283203125
ell 803, elapsed: 0.0002970695495605469
ell 802, elapsed: 0.0002970695495605469
ell 801, elapsed: 0.0002949237823486328
ell 800, elapsed: 0.0002970695495605469
ell 799, elapsed: 0.00030517578125
ell 798, elapsed: 0.0003018379211425781
ell 797, elapsed: 0.0003170967102050781
ell 796, elapsed: 0.0003008842468261719
ell 795, elapsed: 0.0002980232238769531
ell 794, elapsed: 0.0003590583801269531
ell 793, elapsed: 0.00030112266540527344
ell 792, elapsed: 0.000308990478515625
ell 791, elapsed: 0.0003070831298828125
ell 790, elapsed: 0.0003039836883544922
ell 789, elapsed: 0.0003070831298828125
ell 788, elapsed: 0.00030112266540527344
ell 787, elapsed: 0.0003101825714111328
ell 786, elapsed: 0.0002968311309814453
ell 785, elapsed: 0.0002989768981933594
ell 784, elapsed: 0.0003070831298828125
ell 783, elapsed: 0.0003008842468261719
ell 782, elapsed: 0.0003070831298828125
ell 781, elapsed: 0.0003330707550048828
ell 780, elapsed: 0.00030493736267089844
ell 779, elapsed: 0.00031304359436035156
ell 778, elapsed: 0.0002989768981933594
ell 777, elapsed: 0.0003039836883544922
ell 776, elapsed: 0.0002999305725097656
ell 775, elapsed: 0.00030303001403808594
ell 774, elapsed: 0.00031304359436035156
ell 773, elapsed: 0.00030303001403808594
ell 772, elapsed: 0.00030303001403808594
ell 771, elapsed: 0.0002961158752441406
ell 770, elapsed: 0.0003058910369873047
ell 769, elapsed: 0.0003490447998046875
ell 768, elapsed: 0.00030112266540527344
ell 767, elapsed: 0.0003139972686767578
ell 766, elapsed: 0.0003058910369873047
ell 765, elapsed: 0.00031495094299316406
ell 764, elapsed: 0.0003108978271484375
ell 763, elapsed: 0.0003120899200439453
ell 762, elapsed: 0.000308990478515625
ell 761, elapsed: 0.0002989768981933594
ell 760, elapsed: 0.00030612945556640625
ell 759, elapsed: 0.00030112266540527344
ell 758, elapsed: 0.0003020763397216797
ell 757, elapsed: 0.0003361701965332031
ell 756, elapsed: 0.00030612945556640625
ell 755, elapsed: 0.0003027915954589844
ell 754, elapsed: 0.0002970695495605469
ell 753, elapsed: 0.0002999305725097656
ell 752, elapsed: 0.00030803680419921875
ell 751, elapsed: 0.00030112266540527344
ell 750, elapsed: 0.00030994415283203125
ell 749, elapsed: 0.00030303001403808594
ell 748, elapsed: 0.00031495094299316406
ell 747, elapsed: 0.0003139972686767578
ell 746, elapsed: 0.00030612945556640625
ell 745, elapsed: 0.0003120899200439453
ell 744, elapsed: 0.0003948211669921875
ell 743, elapsed: 0.0003018379211425781
ell 742, elapsed: 0.0003077983856201172
ell 741, elapsed: 0.0003008842468261719
ell 740, elapsed: 0.0003161430358886719
ell 739, elapsed: 0.0003008842468261719
ell 738, elapsed: 0.0003077983856201172
ell 737, elapsed: 0.0003008842468261719
ell 736, elapsed: 0.0003039836883544922
ell 735, elapsed: 0.00030803680419921875
ell 734, elapsed: 0.0003039836883544922
ell 733, elapsed: 0.0003101825714111328
ell 732, elapsed: 0.0003440380096435547
ell 731, elapsed: 0.0003020763397216797
ell 730, elapsed: 0.000308990478515625
ell 729, elapsed: 0.00030112266540527344
ell 728, elapsed: 0.0003070831298828125
ell 727, elapsed: 0.0002999305725097656
ell 726, elapsed: 0.0002999305725097656
ell 725, elapsed: 0.00030493736267089844
ell 724, elapsed: 0.0002980232238769531
ell 723, elapsed: 0.00030303001403808594
ell 722, elapsed: 0.0002951622009277344
ell 721, elapsed: 0.00030994415283203125
ell 720, elapsed: 0.00034499168395996094
ell 719, elapsed: 0.0003120899200439453
ell 718, elapsed: 0.0003180503845214844
ell 717, elapsed: 0.0003058910369873047
ell 716, elapsed: 0.0002989768981933594
ell 715, elapsed: 0.0003039836883544922
ell 714, elapsed: 0.0002989768981933594
ell 713, elapsed: 0.0003020763397216797
ell 712, elapsed: 0.00030303001403808594
ell 711, elapsed: 0.00031304359436035156
ell 710, elapsed: 0.0002989768981933594
ell 709, elapsed: 0.0003039836883544922
ell 708, elapsed: 0.00035500526428222656
ell 707, elapsed: 0.0003039836883544922
ell 706, elapsed: 0.00031304359436035156
ell 705, elapsed: 0.0002999305725097656
ell 704, elapsed: 0.0002968311309814453
ell 703, elapsed: 0.00030684471130371094
ell 702, elapsed: 0.0003058910369873047
ell 701, elapsed: 0.0003070831298828125
ell 700, elapsed: 0.0002989768981933594
ell 699, elapsed: 0.0002989768981933594
ell 698, elapsed: 0.00030803680419921875
ell 697, elapsed: 0.0003008842468261719
ell 696, elapsed: 0.0003509521484375
ell 695, elapsed: 0.00030517578125
ell 694, elapsed: 0.0003058910369873047
ell 693, elapsed: 0.00030493736267089844
ell 692, elapsed: 0.00030112266540527344
ell 691, elapsed: 0.0003311634063720703
ell 690, elapsed: 0.0003020763397216797
ell 689, elapsed: 0.0002989768981933594
ell 688, elapsed: 0.000308990478515625
ell 687, elapsed: 0.0003199577331542969
ell 686, elapsed: 0.0003159046173095703
ell 685, elapsed: 0.00030112266540527344
ell 684, elapsed: 0.00030303001403808594
ell 683, elapsed: 0.000308990478515625
ell 682, elapsed: 0.0003058910369873047
ell 681, elapsed: 0.00030803680419921875
ell 680, elapsed: 0.00030803680419921875
ell 679, elapsed: 0.0003058910369873047
ell 678, elapsed: 0.00030493736267089844
ell 677, elapsed: 0.0002880096435546875
ell 676, elapsed: 0.0002970695495605469
ell 675, elapsed: 0.0002880096435546875
ell 674, elapsed: 0.0002930164337158203
ell 673, elapsed: 0.0002810955047607422
ell 672, elapsed: 0.0002808570861816406
ell 671, elapsed: 0.0003600120544433594
ell 670, elapsed: 0.0002970695495605469
ell 669, elapsed: 0.00030303001403808594
ell 668, elapsed: 0.0002758502960205078
ell 667, elapsed: 0.0002830028533935547
ell 666, elapsed: 0.0002911090850830078
ell 665, elapsed: 0.0002880096435546875
ell 664, elapsed: 0.00029397010803222656
ell 663, elapsed: 0.00028586387634277344
ell 662, elapsed: 0.0002770423889160156
ell 661, elapsed: 0.0002892017364501953
ell 660, elapsed: 0.0002830028533935547
ell 659, elapsed: 0.0002880096435546875
ell 658, elapsed: 0.00031304359436035156
ell 657, elapsed: 0.0002808570861816406
ell 656, elapsed: 0.00030493736267089844
ell 655, elapsed: 0.0002880096435546875
ell 654, elapsed: 0.0002930164337158203
ell 653, elapsed: 0.00028395652770996094
ell 652, elapsed: 0.0002899169921875
ell 651, elapsed: 0.0002961158752441406
ell 650, elapsed: 0.000286102294921875
ell 649, elapsed: 0.0002961158752441406
ell 648, elapsed: 0.0002880096435546875
ell 647, elapsed: 0.0002989768981933594
ell 646, elapsed: 0.0003018379211425781
ell 645, elapsed: 0.00033402442932128906
ell 644, elapsed: 0.0003018379211425781
ell 643, elapsed: 0.0002999305725097656
ell 642, elapsed: 0.00030994415283203125
ell 641, elapsed: 0.00029587745666503906
ell 640, elapsed: 0.00031185150146484375
ell 639, elapsed: 0.0003039836883544922
ell 638, elapsed: 0.00030112266540527344
ell 637, elapsed: 0.00031280517578125
ell 636, elapsed: 0.0002942085266113281
ell 635, elapsed: 0.0002942085266113281
ell 634, elapsed: 0.00029397010803222656
ell 633, elapsed: 0.0003399848937988281
ell 632, elapsed: 0.0002961158752441406
ell 631, elapsed: 0.00029397010803222656
ell 630, elapsed: 0.00029087066650390625
ell 629, elapsed: 0.0002899169921875
ell 628, elapsed: 0.0002899169921875
ell 627, elapsed: 0.0003039836883544922
ell 626, elapsed: 0.0002911090850830078
ell 625, elapsed: 0.0002918243408203125
ell 624, elapsed: 0.0002989768981933594
ell 623, elapsed: 0.0002849102020263672
ell 622, elapsed: 0.00029206275939941406
ell 621, elapsed: 0.0002949237823486328
ell 620, elapsed: 0.00036907196044921875
ell 619, elapsed: 0.0002918243408203125
ell 618, elapsed: 0.0002961158752441406
ell 617, elapsed: 0.00029397010803222656
ell 616, elapsed: 0.00029087066650390625
ell 615, elapsed: 0.00029206275939941406
ell 614, elapsed: 0.000286102294921875
ell 613, elapsed: 0.00028896331787109375
ell 612, elapsed: 0.0002968311309814453
ell 611, elapsed: 0.000286102294921875
ell 610, elapsed: 0.0002999305725097656
ell 609, elapsed: 0.00028586387634277344
ell 608, elapsed: 0.000286102294921875
ell 607, elapsed: 0.00032401084899902344
ell 606, elapsed: 0.0002849102020263672
ell 605, elapsed: 0.00029587745666503906
ell 604, elapsed: 0.000286102294921875
ell 603, elapsed: 0.00028395652770996094
ell 602, elapsed: 0.0002899169921875
ell 601, elapsed: 0.0002818107604980469
ell 600, elapsed: 0.0002880096435546875
ell 599, elapsed: 0.0002830028533935547
ell 598, elapsed: 0.00029397010803222656
ell 597, elapsed: 0.0002949237823486328
ell 596, elapsed: 0.000286102294921875
ell 595, elapsed: 0.00029397010803222656
ell 594, elapsed: 0.0003287792205810547
ell 593, elapsed: 0.0002930164337158203
ell 592, elapsed: 0.0002892017364501953
ell 591, elapsed: 0.0002849102020263672
ell 590, elapsed: 0.00028896331787109375
ell 589, elapsed: 0.000286102294921875
ell 588, elapsed: 0.0002868175506591797
ell 587, elapsed: 0.0002841949462890625
ell 586, elapsed: 0.00028204917907714844
ell 585, elapsed: 0.00030493736267089844
ell 584, elapsed: 0.00028204917907714844
ell 583, elapsed: 0.0002970695495605469
ell 582, elapsed: 0.00029015541076660156
ell 581, elapsed: 0.0003139972686767578
ell 580, elapsed: 0.0002989768981933594
ell 579, elapsed: 0.0002968311309814453
ell 578, elapsed: 0.0002980232238769531
ell 577, elapsed: 0.00029397010803222656
ell 576, elapsed: 0.0002918243408203125
ell 575, elapsed: 0.0002980232238769531
ell 574, elapsed: 0.00029206275939941406
ell 573, elapsed: 0.00029397010803222656
ell 572, elapsed: 0.00028705596923828125
ell 571, elapsed: 0.0002818107604980469
ell 570, elapsed: 0.00028896331787109375
ell 569, elapsed: 0.00028395652770996094
ell 568, elapsed: 0.0003428459167480469
ell 567, elapsed: 0.0002830028533935547
ell 566, elapsed: 0.0002810955047607422
ell 565, elapsed: 0.00028705596923828125
ell 564, elapsed: 0.00028395652770996094
ell 563, elapsed: 0.00028705596923828125
ell 562, elapsed: 0.00028395652770996094
ell 561, elapsed: 0.0002830028533935547
ell 560, elapsed: 0.0002880096435546875
ell 559, elapsed: 0.0002880096435546875
ell 558, elapsed: 0.0002911090850830078
ell 557, elapsed: 0.00028705596923828125
ell 556, elapsed: 0.00029087066650390625
ell 555, elapsed: 0.0003230571746826172
ell 554, elapsed: 0.0002849102020263672
ell 553, elapsed: 0.0002951622009277344
ell 552, elapsed: 0.00028896331787109375
ell 551, elapsed: 0.00028586387634277344
ell 550, elapsed: 0.0002849102020263672
ell 549, elapsed: 0.00028705596923828125
ell 548, elapsed: 0.0002911090850830078
ell 547, elapsed: 0.0002830028533935547
ell 546, elapsed: 0.0002880096435546875
ell 545, elapsed: 0.0002830028533935547
ell 544, elapsed: 0.0002830028533935547
ell 543, elapsed: 0.00029921531677246094
ell 542, elapsed: 0.0003821849822998047
ell 541, elapsed: 0.0002989768981933594
ell 540, elapsed: 0.0003039836883544922
ell 539, elapsed: 0.00028395652770996094
ell 538, elapsed: 0.0002930164337158203
ell 537, elapsed: 0.0002830028533935547
ell 536, elapsed: 0.00028705596923828125
ell 535, elapsed: 0.00028705596923828125
ell 534, elapsed: 0.0002899169921875
ell 533, elapsed: 0.0003070831298828125
ell 532, elapsed: 0.0002892017364501953
ell 531, elapsed: 0.0003101825714111328
ell 530, elapsed: 0.00030684471130371094
ell 529, elapsed: 0.0003490447998046875
ell 528, elapsed: 0.0003299713134765625
ell 527, elapsed: 0.00033211708068847656
ell 526, elapsed: 0.0002989768981933594
ell 525, elapsed: 0.0002918243408203125
ell 524, elapsed: 0.0002968311309814453
ell 523, elapsed: 0.00030303001403808594
ell 522, elapsed: 0.0002970695495605469
ell 521, elapsed: 0.0002949237823486328
ell 520, elapsed: 0.0002911090850830078
ell 519, elapsed: 0.00030803680419921875
ell 518, elapsed: 0.0003249645233154297
ell 517, elapsed: 0.0003521442413330078
ell 516, elapsed: 0.00032520294189453125
ell 515, elapsed: 0.0003209114074707031
ell 514, elapsed: 0.0003070831298828125
ell 513, elapsed: 0.0002930164337158203
ell 512, elapsed: 0.00030994415283203125
ell 511, elapsed: 0.00029921531677246094
ell 510, elapsed: 0.0002980232238769531
ell 509, elapsed: 0.0002980232238769531
ell 508, elapsed: 0.0002949237823486328
ell 507, elapsed: 0.00031280517578125
ell 506, elapsed: 0.00032901763916015625
ell 505, elapsed: 0.0003790855407714844
ell 504, elapsed: 0.0003299713134765625
ell 503, elapsed: 0.0002942085266113281
ell 502, elapsed: 0.0002930164337158203
ell 501, elapsed: 0.00029587745666503906
ell 500, elapsed: 0.0002989768981933594
ell 499, elapsed: 0.0002989768981933594
ell 498, elapsed: 0.0003020763397216797
ell 497, elapsed: 0.0002968311309814453
ell 496, elapsed: 0.0002989768981933594
ell 495, elapsed: 0.00029206275939941406
ell 494, elapsed: 0.0002892017364501953
ell 493, elapsed: 0.00028514862060546875
ell 492, elapsed: 0.00032901763916015625
ell 491, elapsed: 0.0002880096435546875
ell 490, elapsed: 0.00028395652770996094
ell 489, elapsed: 0.00029015541076660156
ell 488, elapsed: 0.0002880096435546875
ell 487, elapsed: 0.0003120899200439453
ell 486, elapsed: 0.0003008842468261719
ell 485, elapsed: 0.000286102294921875
ell 484, elapsed: 0.00031495094299316406
ell 483, elapsed: 0.0002942085266113281
ell 482, elapsed: 0.00030684471130371094
ell 481, elapsed: 0.0002980232238769531
ell 480, elapsed: 0.00033402442932128906
ell 479, elapsed: 0.00030994415283203125
ell 478, elapsed: 0.00030803680419921875
ell 477, elapsed: 0.00030684471130371094
ell 476, elapsed: 0.0003001689910888672
ell 475, elapsed: 0.00030303001403808594
ell 474, elapsed: 0.0003020763397216797
ell 473, elapsed: 0.00030303001403808594
ell 472, elapsed: 0.0003039836883544922
ell 471, elapsed: 0.00030493736267089844
ell 470, elapsed: 0.0003058910369873047
ell 469, elapsed: 0.0003101825714111328
ell 468, elapsed: 0.0003108978271484375
ell 467, elapsed: 0.0004279613494873047
ell 466, elapsed: 0.00030303001403808594
ell 465, elapsed: 0.0003058910369873047
ell 464, elapsed: 0.0002989768981933594
ell 463, elapsed: 0.00030112266540527344
ell 462, elapsed: 0.0003039836883544922
ell 461, elapsed: 0.0002999305725097656
ell 460, elapsed: 0.00030994415283203125
ell 459, elapsed: 0.00031113624572753906
ell 458, elapsed: 0.00031495094299316406
ell 457, elapsed: 0.00031185150146484375
ell 456, elapsed: 0.0003161430358886719
ell 455, elapsed: 0.0003509521484375
ell 454, elapsed: 0.00030493736267089844
ell 453, elapsed: 0.0003008842468261719
ell 452, elapsed: 0.00031280517578125
ell 451, elapsed: 0.0003008842468261719
ell 450, elapsed: 0.0003120899200439453
ell 449, elapsed: 0.0003120899200439453
ell 448, elapsed: 0.00031304359436035156
ell 447, elapsed: 0.0003101825714111328
ell 446, elapsed: 0.00030803680419921875
ell 445, elapsed: 0.0003108978271484375
ell 444, elapsed: 0.00030612945556640625
ell 443, elapsed: 0.0003609657287597656
ell 442, elapsed: 0.0003142356872558594
ell 441, elapsed: 0.0003058910369873047
ell 440, elapsed: 0.0003120899200439453
ell 439, elapsed: 0.00030803680419921875
ell 438, elapsed: 0.0003120899200439453
ell 437, elapsed: 0.00030493736267089844
ell 436, elapsed: 0.0003120899200439453
ell 435, elapsed: 0.0003180503845214844
ell 434, elapsed: 0.0003008842468261719
ell 433, elapsed: 0.0003070831298828125
ell 432, elapsed: 0.00030612945556640625
ell 431, elapsed: 0.00036787986755371094
ell 430, elapsed: 0.0003180503845214844
ell 429, elapsed: 0.00030493736267089844
ell 428, elapsed: 0.0003161430358886719
ell 427, elapsed: 0.00030493736267089844
ell 426, elapsed: 0.0003108978271484375
ell 425, elapsed: 0.00031113624572753906
ell 424, elapsed: 0.0003020763397216797
ell 423, elapsed: 0.00031185150146484375
ell 422, elapsed: 0.0003070831298828125
ell 421, elapsed: 0.00030303001403808594
ell 420, elapsed: 0.0003180503845214844
ell 419, elapsed: 0.0003399848937988281
ell 418, elapsed: 0.0003101825714111328
ell 417, elapsed: 0.00031304359436035156
ell 416, elapsed: 0.000308990478515625
ell 415, elapsed: 0.00043392181396484375
ell 414, elapsed: 0.00030803680419921875
ell 413, elapsed: 0.00031113624572753906
ell 412, elapsed: 0.0003120899200439453
ell 411, elapsed: 0.0003139972686767578
ell 410, elapsed: 0.0003180503845214844
ell 409, elapsed: 0.0003070831298828125
ell 408, elapsed: 0.0003199577331542969
ell 407, elapsed: 0.00031304359436035156
ell 406, elapsed: 0.00031495094299316406
ell 405, elapsed: 0.00031113624572753906
ell 404, elapsed: 0.0003058910369873047
ell 403, elapsed: 0.0003180503845214844
ell 402, elapsed: 0.00030612945556640625
ell 401, elapsed: 0.0003190040588378906
ell 400, elapsed: 0.00030493736267089844
ell 399, elapsed: 0.00030684471130371094
ell 398, elapsed: 0.00031304359436035156
ell 397, elapsed: 0.0003108978271484375
ell 396, elapsed: 0.0003440380096435547
ell 395, elapsed: 0.00030803680419921875
ell 394, elapsed: 0.00030303001403808594
ell 393, elapsed: 0.00031685829162597656
ell 392, elapsed: 0.00030517578125
ell 391, elapsed: 0.00032401084899902344
ell 390, elapsed: 0.00031113624572753906
ell 389, elapsed: 0.0003020763397216797
ell 388, elapsed: 0.0003199577331542969
ell 387, elapsed: 0.0003020763397216797
ell 386, elapsed: 0.0003180503845214844
ell 385, elapsed: 0.00030684471130371094
ell 384, elapsed: 0.0003120899200439453
ell 383, elapsed: 0.0003540515899658203
ell 382, elapsed: 0.00030803680419921875
ell 381, elapsed: 0.0003070831298828125
ell 380, elapsed: 0.00030493736267089844
ell 379, elapsed: 0.00030612945556640625
ell 378, elapsed: 0.0002999305725097656
ell 377, elapsed: 0.0003039836883544922
ell 376, elapsed: 0.000308990478515625
ell 375, elapsed: 0.0003008842468261719
ell 374, elapsed: 0.0003120899200439453
ell 373, elapsed: 0.0002970695495605469
ell 372, elapsed: 0.0003039836883544922
ell 371, elapsed: 0.0003337860107421875
ell 370, elapsed: 0.0003018379211425781
ell 369, elapsed: 0.00031185150146484375
ell 368, elapsed: 0.00030493736267089844
ell 367, elapsed: 0.0002980232238769531
ell 366, elapsed: 0.0002989768981933594
ell 365, elapsed: 0.0002880096435546875
ell 364, elapsed: 0.0002980232238769531
ell 363, elapsed: 0.00029397010803222656
ell 362, elapsed: 0.00029087066650390625
ell 361, elapsed: 0.0002911090850830078
ell 360, elapsed: 0.00028896331787109375
ell 359, elapsed: 0.00032401084899902344
ell 358, elapsed: 0.00028896331787109375
ell 357, elapsed: 0.0002911090850830078
ell 356, elapsed: 0.00029397010803222656
ell 355, elapsed: 0.00028395652770996094
ell 354, elapsed: 0.0002880096435546875
ell 353, elapsed: 0.0002989768981933594
ell 352, elapsed: 0.0002880096435546875
ell 351, elapsed: 0.0002880096435546875
ell 350, elapsed: 0.00028586387634277344
ell 349, elapsed: 0.00029397010803222656
ell 348, elapsed: 0.0002841949462890625
ell 347, elapsed: 0.0002951622009277344
ell 346, elapsed: 0.00032901763916015625
ell 345, elapsed: 0.00026702880859375
ell 344, elapsed: 0.0002689361572265625
ell 343, elapsed: 0.0002639293670654297
ell 342, elapsed: 0.0002689361572265625
ell 341, elapsed: 0.00026106834411621094
ell 340, elapsed: 0.00025916099548339844
ell 339, elapsed: 0.0002658367156982422
ell 338, elapsed: 0.0002589225769042969
ell 337, elapsed: 0.00026607513427734375
ell 336, elapsed: 0.00026106834411621094
ell 335, elapsed: 0.0002620220184326172
ell 334, elapsed: 0.0002651214599609375
ell 333, elapsed: 0.00026702880859375
ell 332, elapsed: 0.00026488304138183594
ell 331, elapsed: 0.0034160614013671875
ell 330, elapsed: 0.0002620220184326172
ell 329, elapsed: 0.0002498626708984375
ell 328, elapsed: 0.00027108192443847656
ell 327, elapsed: 0.0002410411834716797
ell 326, elapsed: 0.00023603439331054688
ell 325, elapsed: 0.00023508071899414062
ell 324, elapsed: 0.0002410411834716797
ell 323, elapsed: 0.00023603439331054688
ell 322, elapsed: 0.00024199485778808594
ell 321, elapsed: 0.00023508071899414062
ell 320, elapsed: 0.00023698806762695312
ell 319, elapsed: 0.00023603439331054688
ell 318, elapsed: 0.00023484230041503906
ell 317, elapsed: 0.0002429485321044922
ell 316, elapsed: 0.00023603439331054688
ell 315, elapsed: 0.00023984909057617188
ell 314, elapsed: 0.00023603439331054688
ell 313, elapsed: 0.0002372264862060547
ell 312, elapsed: 0.00027179718017578125
ell 311, elapsed: 0.00023484230041503906
ell 310, elapsed: 0.00024199485778808594
ell 309, elapsed: 0.00023484230041503906
ell 308, elapsed: 0.00023818016052246094
ell 307, elapsed: 0.00024199485778808594
ell 306, elapsed: 0.00024199485778808594
ell 305, elapsed: 0.00024318695068359375
ell 304, elapsed: 0.00023698806762695312
ell 303, elapsed: 0.0002391338348388672
ell 302, elapsed: 0.000247955322265625
ell 301, elapsed: 0.00023603439331054688
ell 300, elapsed: 0.00023889541625976562
ell 299, elapsed: 0.00023818016052246094
ell 298, elapsed: 0.00023698806762695312
ell 297, elapsed: 0.0002589225769042969
ell 296, elapsed: 0.0002391338348388672
ell 295, elapsed: 0.0002410411834716797
ell 294, elapsed: 0.00024199485778808594
ell 293, elapsed: 0.00023698806762695312
ell 292, elapsed: 0.00024080276489257812
ell 291, elapsed: 0.00023818016052246094
ell 290, elapsed: 0.00023889541625976562
ell 289, elapsed: 0.00023508071899414062
ell 288, elapsed: 0.0002391338348388672
ell 287, elapsed: 0.00023698806762695312
ell 286, elapsed: 0.00023603439331054688
ell 285, elapsed: 0.0002410411834716797
ell 284, elapsed: 0.0002338886260986328
ell 283, elapsed: 0.00023984909057617188
ell 282, elapsed: 0.00023984909057617188
ell 281, elapsed: 0.0002751350402832031
ell 280, elapsed: 0.00024199485778808594
ell 279, elapsed: 0.00023508071899414062
ell 278, elapsed: 0.0002410411834716797
ell 277, elapsed: 0.00023508071899414062
ell 276, elapsed: 0.00023293495178222656
ell 275, elapsed: 0.0002410411834716797
ell 274, elapsed: 0.00023293495178222656
ell 273, elapsed: 0.00024080276489257812
ell 272, elapsed: 0.00023984909057617188
ell 271, elapsed: 0.0002372264862060547
ell 270, elapsed: 0.0002391338348388672
ell 269, elapsed: 0.00023603439331054688
ell 268, elapsed: 0.00023794174194335938
ell 267, elapsed: 0.00023484230041503906
ell 266, elapsed: 0.00023603439331054688
ell 265, elapsed: 0.0002968311309814453
ell 264, elapsed: 0.0002338886260986328
ell 263, elapsed: 0.00023889541625976562
ell 262, elapsed: 0.00023484230041503906
ell 261, elapsed: 0.00023889541625976562
ell 260, elapsed: 0.00023102760314941406
ell 259, elapsed: 0.00023293495178222656
ell 258, elapsed: 0.00024008750915527344
ell 257, elapsed: 0.00023102760314941406
ell 256, elapsed: 0.00023984909057617188
ell 255, elapsed: 0.00023412704467773438
ell 254, elapsed: 0.0002319812774658203
ell 253, elapsed: 0.00023698806762695312
ell 252, elapsed: 0.0002338886260986328
ell 251, elapsed: 0.00024008750915527344
ell 250, elapsed: 0.00023484230041503906
ell 249, elapsed: 0.0002791881561279297
ell 248, elapsed: 0.00029087066650390625
ell 247, elapsed: 0.0002841949462890625
ell 246, elapsed: 0.0002949237823486328
ell 245, elapsed: 0.00028705596923828125
ell 244, elapsed: 0.0002899169921875
ell 243, elapsed: 0.00030994415283203125
ell 242, elapsed: 0.000286102294921875
ell 241, elapsed: 0.0002999305725097656
ell 240, elapsed: 0.0002970695495605469
ell 239, elapsed: 0.0002892017364501953
ell 238, elapsed: 0.0002961158752441406
ell 237, elapsed: 0.0002970695495605469
ell 236, elapsed: 0.0003399848937988281
ell 235, elapsed: 0.0002732276916503906
ell 234, elapsed: 0.00026917457580566406
ell 233, elapsed: 0.0002751350402832031
ell 232, elapsed: 0.00026488304138183594
ell 231, elapsed: 0.00027108192443847656
ell 230, elapsed: 0.00026798248291015625
ell 229, elapsed: 0.0002689361572265625
ell 228, elapsed: 0.00026607513427734375
ell 227, elapsed: 0.00026798248291015625
ell 226, elapsed: 0.0002899169921875
ell 225, elapsed: 0.0003440380096435547
ell 224, elapsed: 0.0003619194030761719
ell 223, elapsed: 0.0003790855407714844
ell 222, elapsed: 0.0003390312194824219
ell 221, elapsed: 0.0003559589385986328
ell 220, elapsed: 0.0003440380096435547
ell 219, elapsed: 0.0003609657287597656
ell 218, elapsed: 0.00035500526428222656
ell 217, elapsed: 0.0003590583801269531
ell 216, elapsed: 0.0014300346374511719
ell 215, elapsed: 0.0003390312194824219
ell 214, elapsed: 0.0003268718719482422
ell 213, elapsed: 0.0003268718719482422
ell 212, elapsed: 0.00043010711669921875
ell 211, elapsed: 0.0003349781036376953
ell 210, elapsed: 0.0003199577331542969
ell 209, elapsed: 0.00032901763916015625
ell 208, elapsed: 0.00032401084899902344
ell 207, elapsed: 0.00033020973205566406
ell 206, elapsed: 0.00033092498779296875
ell 205, elapsed: 0.0003421306610107422
ell 204, elapsed: 0.0003249645233154297
ell 203, elapsed: 0.0003159046173095703
ell 202, elapsed: 0.00030994415283203125
ell 201, elapsed: 0.00030112266540527344
ell 200, elapsed: 0.0002918243408203125
ell 199, elapsed: 0.0002961158752441406
ell 198, elapsed: 0.000286102294921875
ell 197, elapsed: 0.0002970695495605469
ell 196, elapsed: 0.00028896331787109375
ell 195, elapsed: 0.00028896331787109375
ell 194, elapsed: 0.00030493736267089844
ell 193, elapsed: 0.00032806396484375
ell 192, elapsed: 0.0003039836883544922
ell 191, elapsed: 0.00029206275939941406
ell 190, elapsed: 0.00029778480529785156
ell 189, elapsed: 0.0002968311309814453
ell 188, elapsed: 0.00028896331787109375
ell 187, elapsed: 0.0002968311309814453
ell 186, elapsed: 0.0002930164337158203
ell 185, elapsed: 0.0002899169921875
ell 184, elapsed: 0.00030112266540527344
ell 183, elapsed: 0.0002930164337158203
ell 182, elapsed: 0.0003008842468261719
ell 181, elapsed: 0.00029015541076660156
ell 180, elapsed: 0.00030803680419921875
ell 179, elapsed: 0.0002961158752441406
ell 178, elapsed: 0.00028896331787109375
ell 177, elapsed: 0.00029397010803222656
ell 176, elapsed: 0.0002930164337158203
ell 175, elapsed: 0.00028896331787109375
ell 174, elapsed: 0.0002951622009277344
ell 173, elapsed: 0.00028896331787109375
ell 172, elapsed: 0.00029587745666503906
ell 171, elapsed: 0.0002942085266113281
ell 170, elapsed: 0.0002968311309814453
ell 169, elapsed: 0.0002951622009277344
ell 168, elapsed: 0.000331878662109375
ell 167, elapsed: 0.0002989768981933594
ell 166, elapsed: 0.00029397010803222656
ell 165, elapsed: 0.0002970695495605469
ell 164, elapsed: 0.00029206275939941406
ell 163, elapsed: 0.0002930164337158203
ell 162, elapsed: 0.0002980232238769531
ell 161, elapsed: 0.0003008842468261719
ell 160, elapsed: 0.0002980232238769531
ell 159, elapsed: 0.0002970695495605469
ell 158, elapsed: 0.0002949237823486328
ell 157, elapsed: 0.00030303001403808594
ell 156, elapsed: 0.00029397010803222656
ell 155, elapsed: 0.00032711029052734375
ell 154, elapsed: 0.0002949237823486328
ell 153, elapsed: 0.0002970695495605469
ell 152, elapsed: 0.0002930164337158203
ell 151, elapsed: 0.0002899169921875
ell 150, elapsed: 0.0002949237823486328
ell 149, elapsed: 0.00030303001403808594
ell 148, elapsed: 0.00029087066650390625
ell 147, elapsed: 0.00029206275939941406
ell 146, elapsed: 0.0002498626708984375
ell 145, elapsed: 0.0002510547637939453
ell 144, elapsed: 0.00024700164794921875
ell 143, elapsed: 0.00024509429931640625
ell 142, elapsed: 0.000244140625
ell 141, elapsed: 0.00028586387634277344
ell 140, elapsed: 0.0002541542053222656
ell 139, elapsed: 0.00024890899658203125
ell 138, elapsed: 0.0002491474151611328
ell 137, elapsed: 0.0002460479736328125
ell 136, elapsed: 0.00024509429931640625
ell 135, elapsed: 0.00025391578674316406
ell 134, elapsed: 0.00024890899658203125
ell 133, elapsed: 0.0002510547637939453
ell 132, elapsed: 0.000247955322265625
ell 131, elapsed: 0.000247955322265625
ell 130, elapsed: 0.00025200843811035156
ell 129, elapsed: 0.00026416778564453125
ell 128, elapsed: 0.0002529621124267578
ell 127, elapsed: 0.00024700164794921875
ell 126, elapsed: 0.0002720355987548828
ell 125, elapsed: 0.0002510547637939453
ell 124, elapsed: 0.00025081634521484375
ell 123, elapsed: 0.000247955322265625
ell 122, elapsed: 0.00024318695068359375
ell 121, elapsed: 0.0002460479736328125
ell 120, elapsed: 0.00025081634521484375
ell 119, elapsed: 0.0002429485321044922
ell 118, elapsed: 0.000247955322265625
ell 117, elapsed: 0.0002410411834716797
ell 116, elapsed: 0.0002498626708984375
ell 115, elapsed: 0.00024700164794921875
ell 114, elapsed: 0.00024700164794921875
ell 113, elapsed: 0.0002570152282714844
ell 112, elapsed: 0.0002460479736328125
ell 111, elapsed: 0.0002830028533935547
ell 110, elapsed: 0.00024390220642089844
ell 109, elapsed: 0.0002410411834716797
ell 108, elapsed: 0.0002548694610595703
ell 107, elapsed: 0.00023698806762695312
ell 106, elapsed: 0.00024318695068359375
ell 105, elapsed: 0.0002448558807373047
ell 104, elapsed: 0.00024199485778808594
ell 103, elapsed: 0.00025200843811035156
ell 102, elapsed: 0.00024199485778808594
ell 101, elapsed: 0.000247955322265625
ell 100, elapsed: 0.00023889541625976562
ell 99, elapsed: 0.00023794174194335938
ell 98, elapsed: 0.00024390220642089844
ell 97, elapsed: 0.0002410411834716797
ell 96, elapsed: 0.00023984909057617188
ell 95, elapsed: 0.00024700164794921875
ell 94, elapsed: 0.00023508071899414062
ell 93, elapsed: 0.00024509429931640625
ell 92, elapsed: 0.0002319812774658203
ell 91, elapsed: 0.00024008750915527344
ell 90, elapsed: 0.00022983551025390625
ell 89, elapsed: 0.00023102760314941406
ell 88, elapsed: 0.00023603439331054688
ell 87, elapsed: 0.0002338886260986328
ell 86, elapsed: 0.00023818016052246094
ell 85, elapsed: 0.0002319812774658203
ell 84, elapsed: 0.0002319812774658203
ell 83, elapsed: 0.00023818016052246094
ell 82, elapsed: 0.00023102760314941406
ell 81, elapsed: 0.00023698806762695312
ell 80, elapsed: 0.00023102760314941406
ell 79, elapsed: 0.00024819374084472656
ell 78, elapsed: 0.00023102760314941406
ell 77, elapsed: 0.0002307891845703125
ell 76, elapsed: 0.00023698806762695312
ell 75, elapsed: 0.0002288818359375
ell 74, elapsed: 0.00023102760314941406
ell 73, elapsed: 0.0002300739288330078
ell 72, elapsed: 0.00022792816162109375
ell 71, elapsed: 0.0002338886260986328
ell 70, elapsed: 0.00022792816162109375
ell 69, elapsed: 0.00023412704467773438
ell 68, elapsed: 0.00023508071899414062
ell 67, elapsed: 0.00022792816162109375
ell 66, elapsed: 0.00023603439331054688
ell 65, elapsed: 0.00022792816162109375
ell 64, elapsed: 0.00023508071899414062
ell 63, elapsed: 0.0002830028533935547
ell 62, elapsed: 0.0002300739288330078
ell 61, elapsed: 0.00023412704467773438
ell 60, elapsed: 0.0002288818359375
ell 59, elapsed: 0.00023293495178222656
ell 58, elapsed: 0.0002300739288330078
ell 57, elapsed: 0.00023102760314941406
ell 56, elapsed: 0.0002391338348388672
ell 55, elapsed: 0.0002288818359375
ell 54, elapsed: 0.0002338886260986328
ell 53, elapsed: 0.0002288818359375
ell 52, elapsed: 0.00023317337036132812
ell 51, elapsed: 0.0002269744873046875
ell 50, elapsed: 0.00022912025451660156
ell 49, elapsed: 0.0002319812774658203
ell 48, elapsed: 0.00022792816162109375
ell 47, elapsed: 0.00023698806762695312
ell 46, elapsed: 0.00022983551025390625
ell 45, elapsed: 0.0002281665802001953
ell 44, elapsed: 0.00024008750915527344
ell 43, elapsed: 0.0002269744873046875
ell 42, elapsed: 0.0002319812774658203
ell 41, elapsed: 0.00022912025451660156
ell 40, elapsed: 0.00023102760314941406
ell 39, elapsed: 0.00023484230041503906
ell 38, elapsed: 0.00022983551025390625
ell 37, elapsed: 0.0002338886260986328
ell 36, elapsed: 0.0002288818359375
ell 35, elapsed: 0.0002300739288330078
ell 34, elapsed: 0.00023317337036132812
ell 33, elapsed: 0.00022983551025390625
ell 32, elapsed: 0.0002319812774658203
ell 31, elapsed: 0.0002307891845703125
ell 30, elapsed: 0.00024199485778808594
ell 29, elapsed: 0.0002319812774658203
ell 28, elapsed: 0.00022602081298828125
ell 27, elapsed: 0.00023102760314941406
ell 26, elapsed: 0.00022792816162109375
ell 25, elapsed: 0.0002319812774658203
ell 24, elapsed: 0.0002338886260986328
ell 23, elapsed: 0.00023317337036132812
ell 22, elapsed: 0.00023984909057617188
ell 21, elapsed: 0.0002319812774658203
ell 20, elapsed: 0.00023603439331054688
ell 19, elapsed: 0.0002288818359375
ell 18, elapsed: 0.000225067138671875
ell 17, elapsed: 0.00023603439331054688
ell 16, elapsed: 0.0002288818359375
ell 15, elapsed: 0.00023603439331054688
ell 14, elapsed: 0.00024700164794921875
ell 13, elapsed: 0.0002269744873046875
ell 12, elapsed: 0.00023221969604492188
ell 11, elapsed: 0.00022792816162109375
ell 10, elapsed: 0.00023102760314941406
ell 9, elapsed: 0.0002269744873046875
ell 8, elapsed: 0.000225067138671875
ell 7, elapsed: 0.00023293495178222656
ell 6, elapsed: 0.00022602081298828125
ell 5, elapsed: 0.0002319812774658203
ell 4, elapsed: 0.00022721290588378906
ell 3, elapsed: 0.0002269744873046875
ell 2, elapsed: 0.00023293495178222656
ell 1, elapsed: 0.0002269744873046875
ell 0, elapsed: 0.0002319812774658203
  0.399863 seconds (46.03 k allocations: 3.091 MiB, 5.87% compilation time)
elapsed: 0.00028514862060546875
step:          0.045831 sec (0 allocations: 0 byte, 0.0% gc time)
swapping:      0.000363 sec (0 allocations: 0 byte, 0.0% gc time)
calc_Mellell!: 0.010667 sec (0 allocations: 0 byte, 0.0% gc time)
  t0 :  0.001436 sec (0 allocations: 0 byte, 0.0% gc time)
  tm2 : 0.075623 sec (0 allocations: 0 byte, 0.0% gc time)
  tm2s: 0.000856 sec (0 allocations: 0 byte, 0.0% gc time)
  tm4 : 0.157702 sec (0 allocations: 0 byte, 0.0% gc time)
  tp2 : 0.0 sec (0 allocations: 0 byte, 0.0% gc time)
  tp2s: 0.0 sec (0 allocations: 0 byte, 0.0% gc time)
  tp4 : 0.0 sec (0 allocations: 0 byte, 0.0% gc time)
calc_wtdll!:   0.261346 sec (9.9 k allocations: 1.047 MB, 0.0% gc time)
calc_wljj!:    0.018562 sec (689 allocations: 10.766 KB, 0.0% gc time)
mult_prefac!:  0.0 sec (0 allocations: 0 byte, 0.0% gc time)
convert:       0.0 sec (0 allocations: 0 byte, 0.0% gc time)
write:         0.027256 sec (0 allocations: 0 byte, 0.0% gc time)
test_rand_2f1: 0.0 sec (0 allocations: 0 byte, 0.0% gc time)
Closing outfile out/Ml21-cache.bin...   0.000024 seconds
  0.000557 seconds (36 allocations: 27.953 KiB)
make_phi():   0.001545 seconds (8.18 k allocations: 237.844 KiB)
  0.109099 seconds (141.90 k allocations: 3.483 MiB)
tskip:       0.000557 sec (0 allocations: 0 byte, 0.0% gc time)
tread:       0.019531 sec (17 allocations: 10.641 KB, 0.0% gc time)
tmultphi:    0.007513 sec (0 allocations: 0 byte, 0.0% gc time)
tbrfft:      0.02857 sec (0 allocations: 0 byte, 0.0% gc time)
tmultprefac: 0.014984 sec (0 allocations: 0 byte, 0.0% gc time)
toutfunc:    0.035098 sec (127.507 k allocations: 2.312 MB, 0.0% gc time)
Testing R=1.0 ... passed
Calculating fmax: 
  dlrec    = 4
  dlrecRg1 = -4
  q=1.1, R=0.9:	  0.270836 seconds (105.72 k allocations: 15.273 MiB, 6.78% gc time)

  0.271002 seconds (105.78 k allocations: 15.307 MiB, 6.77% gc time)
ℓ = 1202
Δℓ = 4
ΔℓRg1 = -4
N = 1600
q = 1.1
kmin = 1.0e-5
kmax = 100000.00000000004
χ0 = 0.023029999999999995
RR = RR.tsv
ℓmax = ℓmax.bin
f21 = f21.bin
kmin = 1.0e-5
kmax = 100000.0
dlrec    = 4
dlrecRg1 = -4
Output size: 5741568 bytes = 0.005347251892089844 GiB
Output size: 51264 bytes = 4.774332046508789e-5 GiB
Reading 'out/F21EllCache'...   0.000932 seconds (197 allocations: 84.203 KiB)
ellmax: 1202
lmaxcache: 1202
fell[:,1,1] = ComplexF64[1.3482014726274674e-57 - 3.302141236118086e-73im, 1.357860004724329e-57 - 3.3257978169518355e-73im]
ell 1202, elapsed: 1.4781951904296875e-5
ell 1201, elapsed: 0.0003960132598876953
ell 1200, elapsed: 0.0002720355987548828
ell 1199, elapsed: 0.0002639293670654297
ell 1198, elapsed: 0.00026607513427734375
ell 1002, elapsed: 0.008081912994384766
ell 1001, elapsed: 0.00026106834411621094
ell 1000, elapsed: 0.00025582313537597656
ell 999, elapsed: 0.0002560615539550781
ell 998, elapsed: 0.00025582313537597656
ell 902, elapsed: 0.0041599273681640625
ell 901, elapsed: 0.0002598762512207031
ell 900, elapsed: 0.0002598762512207031
ell 899, elapsed: 0.0002541542053222656
ell 898, elapsed: 0.00025391578674316406
ell 802, elapsed: 0.008419036865234375
ell 801, elapsed: 0.0002751350402832031
ell 800, elapsed: 0.0002589225769042969
ell 799, elapsed: 0.00026106834411621094
ell 798, elapsed: 0.0002579689025878906
ell 702, elapsed: 0.00429987907409668
ell 701, elapsed: 0.0002579689025878906
ell 700, elapsed: 0.0002579689025878906
ell 699, elapsed: 0.0002579689025878906
ell 698, elapsed: 0.0002579689025878906
ell 602, elapsed: 0.004251003265380859
ell 601, elapsed: 0.00026106834411621094
ell 600, elapsed: 0.00025582313537597656
ell 599, elapsed: 0.0002551078796386719
ell 598, elapsed: 0.0002570152282714844
ell 502, elapsed: 0.004295825958251953
ell 501, elapsed: 0.0002579689025878906
ell 500, elapsed: 0.00025916099548339844
ell 499, elapsed: 0.0002548694610595703
ell 498, elapsed: 0.0002589225769042969
ell 402, elapsed: 0.004187107086181641
ell 401, elapsed: 0.0002770423889160156
ell 400, elapsed: 0.00022983551025390625
ell 399, elapsed: 0.00024390220642089844
ell 398, elapsed: 0.0002200603485107422
ell 302, elapsed: 0.0038809776306152344
ell 301, elapsed: 0.00022411346435546875
ell 300, elapsed: 0.0002200603485107422
ell 299, elapsed: 0.00021600723266601562
ell 298, elapsed: 0.00021600723266601562
ell 202, elapsed: 0.003805875778198242
ell 201, elapsed: 0.0002200603485107422
ell 200, elapsed: 0.00021696090698242188
ell 199, elapsed: 0.00021791458129882812
ell 198, elapsed: 0.0002579689025878906
ell 152, elapsed: 0.0019140243530273438
ell 151, elapsed: 0.00021791458129882812
ell 150, elapsed: 0.00021696090698242188
ell 149, elapsed: 0.00021600723266601562
ell 148, elapsed: 0.00021791458129882812
ell 127, elapsed: 0.0010199546813964844
ell 126, elapsed: 0.0002200603485107422
ell 125, elapsed: 0.00021791458129882812
ell 124, elapsed: 0.00021910667419433594
ell 123, elapsed: 0.0002219676971435547
ell 114, elapsed: 0.000553131103515625
ell 113, elapsed: 0.00021600723266601562
ell 112, elapsed: 0.00021600723266601562
ell 111, elapsed: 0.00021600723266601562
ell 110, elapsed: 0.0002181529998779297
ell 102, elapsed: 0.0005168914794921875
ell 101, elapsed: 0.0002200603485107422
ell 100, elapsed: 0.0002148151397705078
ell 99, elapsed: 0.00021505355834960938
ell 98, elapsed: 0.00021600723266601562
ell 97, elapsed: 0.00029397010803222656
ell 96, elapsed: 0.0002429485321044922
ell 95, elapsed: 0.00025010108947753906
ell 94, elapsed: 0.00024199485778808594
ell 93, elapsed: 0.0002491474151611328
ell 92, elapsed: 0.0002429485321044922
ell 91, elapsed: 0.0002410411834716797
ell 90, elapsed: 0.00024890899658203125
ell 89, elapsed: 0.0002448558807373047
ell 88, elapsed: 0.00025010108947753906
ell 87, elapsed: 0.0002491474151611328
ell 86, elapsed: 0.0002410411834716797
ell 85, elapsed: 0.0002510547637939453
ell 84, elapsed: 0.000244140625
ell 83, elapsed: 0.0002460479736328125
ell 82, elapsed: 0.0002689361572265625
ell 81, elapsed: 0.0002429485321044922
ell 80, elapsed: 0.00024700164794921875
ell 79, elapsed: 0.0002429485321044922
ell 78, elapsed: 0.0002529621124267578
ell 77, elapsed: 0.00026679039001464844
ell 76, elapsed: 0.0002541542053222656
ell 75, elapsed: 0.0002529621124267578
ell 74, elapsed: 0.00024509429931640625
ell 73, elapsed: 0.00024700164794921875
ell 72, elapsed: 0.00024199485778808594
ell 71, elapsed: 0.00024199485778808594
ell 70, elapsed: 0.00024890899658203125
ell 69, elapsed: 0.0002410411834716797
ell 68, elapsed: 0.00024700164794921875
ell 67, elapsed: 0.00026702880859375
ell 66, elapsed: 0.0003139972686767578
ell 65, elapsed: 0.00028705596923828125
ell 64, elapsed: 0.00029397010803222656
ell 63, elapsed: 0.0002961158752441406
ell 62, elapsed: 0.0002980232238769531
ell 61, elapsed: 0.00030303001403808594
ell 60, elapsed: 0.00029587745666503906
ell 59, elapsed: 0.0002999305725097656
ell 58, elapsed: 0.0003020763397216797
ell 57, elapsed: 0.0002961158752441406
ell 56, elapsed: 0.0003039836883544922
ell 55, elapsed: 0.0003008842468261719
ell 54, elapsed: 0.00032901763916015625
ell 53, elapsed: 0.0002961158752441406
ell 52, elapsed: 0.00028395652770996094
ell 51, elapsed: 0.0002930164337158203
ell 50, elapsed: 0.0002810955047607422
ell 49, elapsed: 0.0002830028533935547
ell 48, elapsed: 0.0002868175506591797
ell 47, elapsed: 0.0002810955047607422
ell 46, elapsed: 0.0002911090850830078
ell 45, elapsed: 0.0002799034118652344
ell 44, elapsed: 0.0002830028533935547
ell 43, elapsed: 0.0002911090850830078
ell 42, elapsed: 0.0002791881561279297
ell 41, elapsed: 0.00031304359436035156
ell 40, elapsed: 0.0002830028533935547
ell 39, elapsed: 0.00028395652770996094
ell 38, elapsed: 0.00028896331787109375
ell 37, elapsed: 0.00028204917907714844
ell 36, elapsed: 0.00029087066650390625
ell 35, elapsed: 0.0002830028533935547
ell 34, elapsed: 0.0002818107604980469
ell 33, elapsed: 0.00029206275939941406
ell 32, elapsed: 0.0002810955047607422
ell 31, elapsed: 0.00030493736267089844
ell 30, elapsed: 0.00029397010803222656
ell 29, elapsed: 0.00029087066650390625
ell 28, elapsed: 0.0003459453582763672
ell 27, elapsed: 0.00028896331787109375
ell 26, elapsed: 0.0002911090850830078
ell 25, elapsed: 0.0002818107604980469
ell 24, elapsed: 0.000286102294921875
ell 23, elapsed: 0.00028896331787109375
ell 22, elapsed: 0.0002841949462890625
ell 21, elapsed: 0.000286102294921875
ell 20, elapsed: 0.0002841949462890625
ell 19, elapsed: 0.000286102294921875
ell 18, elapsed: 0.0002880096435546875
ell 17, elapsed: 0.0003008842468261719
ell 16, elapsed: 0.0003001689910888672
ell 15, elapsed: 0.0003368854522705078
ell 14, elapsed: 0.00029587745666503906
ell 13, elapsed: 0.00029206275939941406
ell 12, elapsed: 0.0002980232238769531
ell 11, elapsed: 0.0002999305725097656
ell 10, elapsed: 0.00029397010803222656
ell 9, elapsed: 0.0003008842468261719
ell 8, elapsed: 0.0002970695495605469
ell 7, elapsed: 0.0002951622009277344
ell 6, elapsed: 0.00031304359436035156
ell 5, elapsed: 0.0002980232238769531
ell 4, elapsed: 0.0003020763397216797
ell 3, elapsed: 0.0002961158752441406
ell 2, elapsed: 0.00033593177795410156
ell 1, elapsed: 0.0002830028533935547
ell 0, elapsed: 0.00028204917907714844
  0.093328 seconds (11.51 k allocations: 719.594 KiB)
elapsed: 0.0003368854522705078
step:          0.050841 sec (0 allocations: 0 byte, 0.0% gc time)
swapping:      0.000275 sec (0 allocations: 0 byte, 0.0% gc time)
calc_Mellell!: 0.000672 sec (0 allocations: 0 byte, 0.0% gc time)
  t0 :  0.000208 sec (0 allocations: 0 byte, 0.0% gc time)
  tm2 : 0.009535 sec (0 allocations: 0 byte, 0.0% gc time)
  tm2s: 0.000149 sec (0 allocations: 0 byte, 0.0% gc time)
  tm4 : 0.021802 sec (0 allocations: 0 byte, 0.0% gc time)
  tp2 : 0.0 sec (0 allocations: 0 byte, 0.0% gc time)
  tp2s: 0.0 sec (0 allocations: 0 byte, 0.0% gc time)
  tp4 : 0.0 sec (0 allocations: 0 byte, 0.0% gc time)
calc_wtdll!:   0.031976 sec (1.344 k allocations: 147.0 KB, 0.0% gc time)
calc_wljj!:    0.001677 sec (6 allocations: 96 byte, 0.0% gc time)
mult_prefac!:  0.0 sec (0 allocations: 0 byte, 0.0% gc time)
convert:       0.0 sec (0 allocations: 0 byte, 0.0% gc time)
write:         0.002547 sec (0 allocations: 0 byte, 0.0% gc time)
test_rand_2f1: 0.0 sec (0 allocations: 0 byte, 0.0% gc time)
Closing outfile out/Ml21-cache.bin...   0.000007 seconds
  0.000392 seconds (36 allocations: 27.953 KiB)
make_phi():   0.001337 seconds (8.18 k allocations: 237.844 KiB)
  0.012154 seconds (11.65 k allocations: 308.688 KiB)
tskip:       1.9e-5 sec (0 allocations: 0 byte, 0.0% gc time)
tread:       0.002102 sec (17 allocations: 2.125 KB, 0.0% gc time)
tmultphi:    0.00097 sec (0 allocations: 0 byte, 0.0% gc time)
tbrfft:      0.003138 sec (0 allocations: 0 byte, 0.0% gc time)
tmultprefac: 0.00177 sec (0 allocations: 0 byte, 0.0% gc time)
toutfunc:    0.003837 sec (10.304 k allocations: 196.0 KB, 0.0% gc time)
Testing R=0.9 ... passed
Calculating fmax: 
  dlrec    = 4
  dlrecRg1 = -4
  q=1.1, R=0.8:	  0.194735 seconds (103.21 k allocations: 14.840 MiB)

  0.194880 seconds (103.26 k allocations: 14.874 MiB)
ℓ = 1202
Δℓ = 4
ΔℓRg1 = -4
N = 1600
q = 1.1
kmin = 1.0e-5
kmax = 100000.00000000004
χ0 = 0.023029999999999995
RR = RR.tsv
ℓmax = ℓmax.bin
f21 = f21.bin
kmin = 1.0e-5
kmax = 100000.0
dlrec    = 4
dlrecRg1 = -4
Output size: 5741568 bytes = 0.005347251892089844 GiB
Output size: 51264 bytes = 4.774332046508789e-5 GiB
Reading 'out/F21EllCache'...   0.000764 seconds (197 allocations: 84.203 KiB)
ellmax: 1202
lmaxcache: 1202
fell[:,1,1] = ComplexF64[7.519068145690986e-120 - 1.8416405474382574e-135im, 7.541664537386155e-120 - 1.847175067190611e-135im]
ell 1202, elapsed: 1.3113021850585938e-5
ell 1201, elapsed: 0.0002980232238769531
ell 1200, elapsed: 0.0002770423889160156
ell 1199, elapsed: 0.0002720355987548828
ell 1198, elapsed: 0.0002739429473876953
ell 1002, elapsed: 0.008229970932006836
ell 1001, elapsed: 0.00025200843811035156
ell 1000, elapsed: 0.00025081634521484375
ell 999, elapsed: 0.00025010108947753906
ell 998, elapsed: 0.0002541542053222656
ell 902, elapsed: 0.004168033599853516
ell 901, elapsed: 0.0002532005310058594
ell 900, elapsed: 0.0002460479736328125
ell 899, elapsed: 0.00024199485778808594
ell 898, elapsed: 0.00024199485778808594
ell 802, elapsed: 0.0038881301879882812
ell 801, elapsed: 0.0005178451538085938
ell 800, elapsed: 0.0008988380432128906
ell 799, elapsed: 0.00024700164794921875
ell 798, elapsed: 0.0006010532379150391
ell 702, elapsed: 0.0038330554962158203
ell 701, elapsed: 0.0002357959747314453
ell 700, elapsed: 0.0002601146697998047
ell 699, elapsed: 0.00023603439331054688
ell 698, elapsed: 0.00023484230041503906
ell 602, elapsed: 0.003734111785888672
ell 601, elapsed: 0.0002079010009765625
ell 600, elapsed: 0.00020694732666015625
ell 599, elapsed: 0.00020694732666015625
ell 598, elapsed: 0.00020694732666015625
ell 502, elapsed: 0.0036499500274658203
ell 501, elapsed: 0.00020694732666015625
ell 500, elapsed: 0.00020694732666015625
ell 499, elapsed: 0.0002071857452392578
ell 498, elapsed: 0.0002079010009765625
ell 402, elapsed: 0.003632068634033203
ell 401, elapsed: 0.00020599365234375
ell 400, elapsed: 0.00021409988403320312
ell 399, elapsed: 0.00020599365234375
ell 398, elapsed: 0.00020694732666015625
ell 302, elapsed: 0.003632068634033203
ell 301, elapsed: 0.00020599365234375
ell 300, elapsed: 0.00020694732666015625
ell 299, elapsed: 0.00020599365234375
ell 298, elapsed: 0.00020503997802734375
ell 202, elapsed: 0.0036149024963378906
ell 201, elapsed: 0.00020694732666015625
ell 200, elapsed: 0.00020694732666015625
ell 199, elapsed: 0.00020313262939453125
ell 198, elapsed: 0.0002040863037109375
ell 152, elapsed: 0.0018260478973388672
ell 151, elapsed: 0.00020503997802734375
ell 150, elapsed: 0.0002048015594482422
ell 149, elapsed: 0.0002040863037109375
ell 148, elapsed: 0.0002040863037109375
ell 127, elapsed: 0.0009508132934570312
ell 126, elapsed: 0.00020599365234375
ell 125, elapsed: 0.0002048015594482422
ell 124, elapsed: 0.00020599365234375
ell 123, elapsed: 0.00020503997802734375
ell 114, elapsed: 0.0005259513854980469
ell 113, elapsed: 0.00020694732666015625
ell 112, elapsed: 0.00020694732666015625
ell 111, elapsed: 0.00020503997802734375
ell 110, elapsed: 0.00020599365234375
ell 102, elapsed: 0.0004918575286865234
ell 101, elapsed: 0.00020599365234375
ell 100, elapsed: 0.00020503997802734375
ell 99, elapsed: 0.00020694732666015625
ell 98, elapsed: 0.00020503997802734375
ell 97, elapsed: 0.00023508071899414062
ell 96, elapsed: 0.00023102760314941406
ell 95, elapsed: 0.00024199485778808594
ell 94, elapsed: 0.00023102760314941406
ell 93, elapsed: 0.00024700164794921875
ell 92, elapsed: 0.0002911090850830078
ell 91, elapsed: 0.0002789497375488281
ell 90, elapsed: 0.0037059783935546875
ell 89, elapsed: 0.0003490447998046875
ell 88, elapsed: 0.0003228187561035156
ell 87, elapsed: 0.0002760887145996094
ell 86, elapsed: 0.0002751350402832031
ell 85, elapsed: 0.00027489662170410156
ell 84, elapsed: 0.00026988983154296875
ell 83, elapsed: 0.00026702880859375
ell 82, elapsed: 0.0002791881561279297
ell 81, elapsed: 0.0002899169921875
ell 80, elapsed: 0.0002970695495605469
ell 79, elapsed: 0.0002770423889160156
ell 78, elapsed: 0.0002751350402832031
ell 77, elapsed: 0.0003199577331542969
ell 76, elapsed: 0.00032401084899902344
ell 75, elapsed: 0.0003249645233154297
ell 74, elapsed: 0.00032210350036621094
ell 73, elapsed: 0.0003190040588378906
ell 72, elapsed: 0.0003330707550048828
ell 71, elapsed: 0.0003101825714111328
ell 70, elapsed: 0.0003159046173095703
ell 69, elapsed: 0.0003139972686767578
ell 68, elapsed: 0.0003108978271484375
ell 67, elapsed: 0.0003190040588378906
ell 66, elapsed: 0.00031685829162597656
ell 65, elapsed: 0.0003819465637207031
ell 64, elapsed: 0.0003139972686767578
ell 63, elapsed: 0.0003161430358886719
ell 62, elapsed: 0.00032401084899902344
ell 61, elapsed: 0.00032019615173339844
ell 60, elapsed: 0.0003249645233154297
[...]
ell 780, elapsed: 0.0005140304565429688
ell 779, elapsed: 0.0004611015319824219
ell 778, elapsed: 0.0005040168762207031
ell 772, elapsed: 0.0008401870727539062
ell 771, elapsed: 0.0004360675811767578
ell 770, elapsed: 0.0004551410675048828
ell 769, elapsed: 0.0005290508270263672
ell 768, elapsed: 0.00043702125549316406
ell 762, elapsed: 0.0007569789886474609
ell 761, elapsed: 0.0004429817199707031
ell 760, elapsed: 0.0004680156707763672
ell 759, elapsed: 0.00045800209045410156
ell 758, elapsed: 0.0005140304565429688
ell 752, elapsed: 0.0009131431579589844
ell 751, elapsed: 0.0005009174346923828
ell 750, elapsed: 0.000514984130859375
ell 749, elapsed: 0.0005090236663818359
ell 748, elapsed: 0.0004620552062988281
ell 742, elapsed: 0.0007159709930419922
ell 741, elapsed: 0.0004849433898925781
ell 740, elapsed: 0.0005240440368652344
ell 739, elapsed: 0.0004961490631103516
ell 738, elapsed: 0.0005049705505371094
ell 732, elapsed: 0.0008609294891357422
ell 731, elapsed: 0.0004909038543701172
ell 730, elapsed: 0.0004940032958984375
ell 729, elapsed: 0.0004830360412597656
ell 728, elapsed: 0.000514984130859375
ell 722, elapsed: 0.00084686279296875
ell 721, elapsed: 0.0004899501800537109
ell 720, elapsed: 0.0004999637603759766
ell 719, elapsed: 0.0006651878356933594
ell 718, elapsed: 0.0004940032958984375
ell 712, elapsed: 0.0009450912475585938
ell 711, elapsed: 0.0004811286926269531
ell 710, elapsed: 0.0004780292510986328
ell 709, elapsed: 0.0005049705505371094
ell 708, elapsed: 0.00047516822814941406
ell 702, elapsed: 0.0010159015655517578
ell 701, elapsed: 0.0004677772521972656
ell 700, elapsed: 0.0004971027374267578
ell 699, elapsed: 0.0004680156707763672
ell 698, elapsed: 0.0004639625549316406
ell 692, elapsed: 0.0010120868682861328
ell 691, elapsed: 0.00047087669372558594
ell 690, elapsed: 0.000476837158203125
ell 689, elapsed: 0.0004839897155761719
ell 688, elapsed: 0.0005061626434326172
ell 682, elapsed: 0.0008351802825927734
ell 681, elapsed: 0.0004661083221435547
ell 680, elapsed: 0.0004761219024658203
ell 679, elapsed: 0.00043511390686035156
ell 678, elapsed: 0.00045800209045410156
ell 672, elapsed: 0.0008759498596191406
ell 671, elapsed: 0.00041604042053222656
ell 670, elapsed: 0.00045990943908691406
ell 669, elapsed: 0.00045299530029296875
ell 668, elapsed: 0.00045299530029296875
ell 662, elapsed: 0.0006709098815917969
ell 661, elapsed: 0.00045108795166015625
ell 660, elapsed: 0.0004291534423828125
ell 659, elapsed: 0.00040602684020996094
ell 658, elapsed: 0.0004088878631591797
ell 652, elapsed: 0.0007112026214599609
ell 651, elapsed: 0.0004730224609375
ell 650, elapsed: 0.00045800209045410156
ell 649, elapsed: 0.0004448890686035156
ell 648, elapsed: 0.00040912628173828125
ell 642, elapsed: 0.0007879734039306641
ell 641, elapsed: 0.0004849433898925781
ell 640, elapsed: 0.0004601478576660156
ell 639, elapsed: 0.0004611015319824219
ell 638, elapsed: 0.0004668235778808594
ell 632, elapsed: 0.0008568763732910156
ell 631, elapsed: 0.00046896934509277344
ell 630, elapsed: 0.00046896934509277344
ell 629, elapsed: 0.0005118846893310547
ell 628, elapsed: 0.0004949569702148438
ell 622, elapsed: 0.0008699893951416016
ell 621, elapsed: 0.0005002021789550781
ell 620, elapsed: 0.0005011558532714844
ell 619, elapsed: 0.0004961490631103516
ell 618, elapsed: 0.0005037784576416016
ell 612, elapsed: 0.0008509159088134766
ell 611, elapsed: 0.0004839897155761719
ell 610, elapsed: 0.0004868507385253906
ell 609, elapsed: 0.0004868507385253906
ell 608, elapsed: 0.0004801750183105469
ell 602, elapsed: 0.0008130073547363281
ell 601, elapsed: 0.00045800209045410156
ell 600, elapsed: 0.0005509853363037109
ell 599, elapsed: 0.0004639625549316406
ell 598, elapsed: 0.0004711151123046875
ell 592, elapsed: 0.0008058547973632812
ell 591, elapsed: 0.0004639625549316406
ell 590, elapsed: 0.0004889965057373047
ell 589, elapsed: 0.0004899501800537109
ell 588, elapsed: 0.0005359649658203125
ell 582, elapsed: 0.0009448528289794922
ell 581, elapsed: 0.0005071163177490234
ell 580, elapsed: 0.0005249977111816406
ell 579, elapsed: 0.0005340576171875
ell 578, elapsed: 0.0005371570587158203
ell 572, elapsed: 0.0009789466857910156
ell 571, elapsed: 0.0005018711090087891
ell 570, elapsed: 0.0005059242248535156
ell 569, elapsed: 0.0005018711090087891
ell 568, elapsed: 0.0004980564117431641
ell 562, elapsed: 0.0008709430694580078
ell 561, elapsed: 0.0004711151123046875
ell 560, elapsed: 0.0005011558532714844
ell 559, elapsed: 0.0004990100860595703
ell 558, elapsed: 0.0005037784576416016
ell 552, elapsed: 0.0008590221405029297
ell 551, elapsed: 0.0004799365997314453
ell 550, elapsed: 0.0004949569702148438
ell 549, elapsed: 0.0004990100860595703
ell 548, elapsed: 0.0005269050598144531
ell 542, elapsed: 0.0008928775787353516
ell 541, elapsed: 0.0005028247833251953
ell 540, elapsed: 0.0005068778991699219
ell 539, elapsed: 0.0005509853363037109
ell 538, elapsed: 0.0005228519439697266
ell 532, elapsed: 0.0010018348693847656
ell 531, elapsed: 0.0005698204040527344
ell 530, elapsed: 0.0005130767822265625
ell 529, elapsed: 0.0005130767822265625
ell 528, elapsed: 0.0005140304565429688
ell 522, elapsed: 0.0009129047393798828
ell 521, elapsed: 0.0005259513854980469
ell 520, elapsed: 0.0005419254302978516
ell 519, elapsed: 0.0005061626434326172
ell 518, elapsed: 0.0005230903625488281
ell 512, elapsed: 0.0008959770202636719
ell 511, elapsed: 0.0005109310150146484
ell 510, elapsed: 0.0005168914794921875
ell 509, elapsed: 0.0005409717559814453
ell 508, elapsed: 0.0005319118499755859
ell 502, elapsed: 0.0008628368377685547
ell 501, elapsed: 0.0005080699920654297
ell 500, elapsed: 0.0005161762237548828
ell 499, elapsed: 0.0005118846893310547
ell 498, elapsed: 0.0005221366882324219
ell 492, elapsed: 0.000965118408203125
ell 491, elapsed: 0.0005159378051757812
ell 490, elapsed: 0.0005319118499755859
ell 489, elapsed: 0.0005319118499755859
ell 488, elapsed: 0.0005338191986083984
ell 482, elapsed: 0.0009288787841796875
ell 481, elapsed: 0.000537872314453125
ell 480, elapsed: 0.0005390644073486328
ell 479, elapsed: 0.0005290508270263672
ell 478, elapsed: 0.0005269050598144531
ell 472, elapsed: 0.0009520053863525391
ell 471, elapsed: 0.0005099773406982422
ell 470, elapsed: 0.0006070137023925781
ell 469, elapsed: 0.00051116943359375
ell 468, elapsed: 0.000514984130859375
ell 462, elapsed: 0.0008790493011474609
ell 461, elapsed: 0.0005130767822265625
ell 460, elapsed: 0.0005221366882324219
ell 459, elapsed: 0.0005078315734863281
ell 458, elapsed: 0.0005359649658203125
ell 452, elapsed: 0.0008931159973144531
ell 451, elapsed: 0.00051116943359375
ell 450, elapsed: 0.0005159378051757812
ell 449, elapsed: 0.0005099773406982422
ell 448, elapsed: 0.0005178451538085938
ell 442, elapsed: 0.0009109973907470703
ell 441, elapsed: 0.0005030632019042969
ell 440, elapsed: 0.0005190372467041016
ell 439, elapsed: 0.000514984130859375
ell 438, elapsed: 0.0005121231079101562
ell 432, elapsed: 0.0008859634399414062
ell 431, elapsed: 0.0005159378051757812
ell 430, elapsed: 0.0005571842193603516
ell 429, elapsed: 0.0005171298980712891
ell 428, elapsed: 0.000518798828125
ell 422, elapsed: 0.0008919239044189453
ell 421, elapsed: 0.0005030632019042969
ell 420, elapsed: 0.0005121231079101562
ell 419, elapsed: 0.0004990100860595703
ell 418, elapsed: 0.0005259513854980469
ell 412, elapsed: 0.0008759498596191406
ell 411, elapsed: 0.0005080699920654297
ell 410, elapsed: 0.0005121231079101562
ell 409, elapsed: 0.0004990100860595703
ell 408, elapsed: 0.0005040168762207031
ell 402, elapsed: 0.0008881092071533203
ell 401, elapsed: 0.00043892860412597656
ell 400, elapsed: 0.00044798851013183594
ell 399, elapsed: 0.00043702125549316406
ell 398, elapsed: 0.0004439353942871094
ell 392, elapsed: 0.0007781982421875
ell 391, elapsed: 0.00043702125549316406
ell 390, elapsed: 0.0004458427429199219
ell 389, elapsed: 0.0004661083221435547
ell 388, elapsed: 0.0004189014434814453
ell 382, elapsed: 0.0006830692291259766
ell 381, elapsed: 0.00040793418884277344
ell 380, elapsed: 0.0004131793975830078
ell 379, elapsed: 0.00040793418884277344
ell 378, elapsed: 0.00040793418884277344
ell 372, elapsed: 0.000675201416015625
ell 371, elapsed: 0.0004210472106933594
ell 370, elapsed: 0.00041294097900390625
ell 369, elapsed: 0.0004131793975830078
ell 368, elapsed: 0.00041484832763671875
ell 362, elapsed: 0.0006909370422363281
ell 361, elapsed: 0.000415802001953125
ell 360, elapsed: 0.0004189014434814453
ell 359, elapsed: 0.0004189014434814453
ell 358, elapsed: 0.0004191398620605469
ell 352, elapsed: 0.0007359981536865234
ell 351, elapsed: 0.00041413307189941406
ell 350, elapsed: 0.0004210472106933594
ell 349, elapsed: 0.0004918575286865234
ell 348, elapsed: 0.00041413307189941406
ell 342, elapsed: 0.0008280277252197266
ell 341, elapsed: 0.0004088878631591797
ell 340, elapsed: 0.0004210472106933594
ell 339, elapsed: 0.00040602684020996094
ell 338, elapsed: 0.0004019737243652344
ell 332, elapsed: 0.0006749629974365234
ell 331, elapsed: 0.0004010200500488281
ell 330, elapsed: 0.00040602684020996094
ell 329, elapsed: 0.0004019737243652344
ell 328, elapsed: 0.0004019737243652344
ell 322, elapsed: 0.0006968975067138672
ell 321, elapsed: 0.0003941059112548828
ell 320, elapsed: 0.0005629062652587891
ell 319, elapsed: 0.0003941059112548828
ell 318, elapsed: 0.00040411949157714844
ell 312, elapsed: 0.0006690025329589844
ell 311, elapsed: 0.00039196014404296875
ell 310, elapsed: 0.00039887428283691406
ell 309, elapsed: 0.00040221214294433594
ell 308, elapsed: 0.00041222572326660156
ell 302, elapsed: 0.0006589889526367188
ell 301, elapsed: 0.00039696693420410156
ell 300, elapsed: 0.0004069805145263672
ell 299, elapsed: 0.0003979206085205078
ell 298, elapsed: 0.0003998279571533203
ell 292, elapsed: 0.0006570816040039062
ell 291, elapsed: 0.0004010200500488281
ell 290, elapsed: 0.0003979206085205078
ell 289, elapsed: 0.00039696693420410156
ell 288, elapsed: 0.00039505958557128906
ell 282, elapsed: 0.0006530284881591797
ell 281, elapsed: 0.00039505958557128906
ell 280, elapsed: 0.0003979206085205078
ell 279, elapsed: 0.00039696693420410156
ell 278, elapsed: 0.0003960132598876953
ell 272, elapsed: 0.0006649494171142578
ell 271, elapsed: 0.00043511390686035156
ell 270, elapsed: 0.00040411949157714844
ell 269, elapsed: 0.0003960132598876953
ell 268, elapsed: 0.0003981590270996094
ell 262, elapsed: 0.0006580352783203125
ell 261, elapsed: 0.0004010200500488281
ell 260, elapsed: 0.0003991127014160156
ell 259, elapsed: 0.00039505958557128906
ell 258, elapsed: 0.00039696693420410156
ell 252, elapsed: 0.0006811618804931641
ell 251, elapsed: 0.00039315223693847656
ell 250, elapsed: 0.00039505958557128906
ell 249, elapsed: 0.0003960132598876953
ell 248, elapsed: 0.0003921985626220703
ell 242, elapsed: 0.0006477832794189453
ell 241, elapsed: 0.00039696693420410156
ell 240, elapsed: 0.000392913818359375
ell 239, elapsed: 0.0003941059112548828
ell 238, elapsed: 0.0003948211669921875
ell 232, elapsed: 0.0006899833679199219
ell 231, elapsed: 0.00040602684020996094
ell 230, elapsed: 0.0004200935363769531
ell 229, elapsed: 0.00041604042053222656
ell 228, elapsed: 0.0004260540008544922
ell 222, elapsed: 0.0006978511810302734
ell 221, elapsed: 0.0004038810729980469
ell 220, elapsed: 0.0004551410675048828
ell 219, elapsed: 0.0004019737243652344
ell 218, elapsed: 0.00041222572326660156
ell 212, elapsed: 0.0006878376007080078
ell 211, elapsed: 0.0004010200500488281
ell 210, elapsed: 0.0004189014434814453
ell 209, elapsed: 0.0004031658172607422
ell 208, elapsed: 0.00041222572326660156
ell 202, elapsed: 0.000759124755859375
ell 201, elapsed: 0.00040912628173828125
ell 200, elapsed: 0.00041604042053222656
ell 199, elapsed: 0.00040793418884277344
ell 198, elapsed: 0.0004138946533203125
ell 192, elapsed: 0.0007100105285644531
ell 191, elapsed: 0.000408172607421875
ell 190, elapsed: 0.00041604042053222656
ell 189, elapsed: 0.0004279613494873047
ell 188, elapsed: 0.00041985511779785156
ell 182, elapsed: 0.0007112026214599609
ell 181, elapsed: 0.00041604042053222656
ell 180, elapsed: 0.0004200935363769531
ell 179, elapsed: 0.0004088878631591797
ell 178, elapsed: 0.00041294097900390625
ell 172, elapsed: 0.00067901611328125
ell 171, elapsed: 0.00044918060302734375
ell 170, elapsed: 0.00044989585876464844
ell 169, elapsed: 0.00044608116149902344
ell 168, elapsed: 0.00045013427734375
ell 162, elapsed: 0.0008330345153808594
ell 161, elapsed: 0.0004489421844482422
ell 160, elapsed: 0.0004551410675048828
ell 159, elapsed: 0.00045299530029296875
ell 158, elapsed: 0.0005269050598144531
ell 152, elapsed: 0.0009319782257080078
ell 151, elapsed: 0.0004949569702148438
ell 150, elapsed: 0.0004980564117431641
ell 149, elapsed: 0.00048804283142089844
ell 148, elapsed: 0.0005080699920654297
ell 142, elapsed: 0.0009410381317138672
ell 141, elapsed: 0.00045108795166015625
ell 140, elapsed: 0.00045299530029296875
ell 139, elapsed: 0.0004451274871826172
ell 138, elapsed: 0.00043392181396484375
ell 132, elapsed: 0.0007169246673583984
ell 131, elapsed: 0.0004210472106933594
ell 130, elapsed: 0.00043702125549316406
ell 129, elapsed: 0.0004410743713378906
ell 128, elapsed: 0.00043487548828125
ell 122, elapsed: 0.0007138252258300781
ell 121, elapsed: 0.0004241466522216797
ell 120, elapsed: 0.0004248619079589844
ell 119, elapsed: 0.0004291534423828125
ell 118, elapsed: 0.0004260540008544922
ell 112, elapsed: 0.0007350444793701172
ell 111, elapsed: 0.0004439353942871094
ell 110, elapsed: 0.00043201446533203125
ell 109, elapsed: 0.0004260540008544922
ell 108, elapsed: 0.0004420280456542969
ell 102, elapsed: 0.0007450580596923828
ell 101, elapsed: 0.0019750595092773438
ell 100, elapsed: 0.001909017562866211
ell 99, elapsed: 0.001931905746459961
ell 98, elapsed: 0.00191497802734375
ell 92, elapsed: 0.003773927688598633
ell 91, elapsed: 0.0019140243530273438
ell 90, elapsed: 0.001934051513671875
ell 89, elapsed: 0.0019021034240722656
ell 88, elapsed: 0.001934051513671875
ell 82, elapsed: 0.003695964813232422
ell 81, elapsed: 0.001789093017578125
ell 80, elapsed: 0.001767873764038086
ell 79, elapsed: 0.0017540454864501953
ell 78, elapsed: 0.0017728805541992188
ell 72, elapsed: 0.0034079551696777344
ell 71, elapsed: 0.0017499923706054688
ell 70, elapsed: 0.0017600059509277344
ell 69, elapsed: 0.001814126968383789
ell 68, elapsed: 0.0017650127410888672
ell 62, elapsed: 0.0035161972045898438
ell 61, elapsed: 0.003699064254760742
ell 60, elapsed: 0.001809835433959961
ell 59, elapsed: 0.0025398731231689453
ell 58, elapsed: 0.0028998851776123047
ell 52, elapsed: 0.004813194274902344
ell 51, elapsed: 0.0018241405487060547
ell 50, elapsed: 0.0018019676208496094
ell 49, elapsed: 0.0018391609191894531
ell 48, elapsed: 0.0017948150634765625
ell 42, elapsed: 0.003525972366333008
ell 41, elapsed: 0.0017769336700439453
ell 40, elapsed: 0.0017981529235839844
ell 39, elapsed: 0.001789093017578125
ell 38, elapsed: 0.0018110275268554688
ell 32, elapsed: 0.0035140514373779297
ell 31, elapsed: 0.002022981643676758
ell 30, elapsed: 0.0020208358764648438
ell 29, elapsed: 0.002053976058959961
ell 28, elapsed: 0.0020661354064941406
ell 22, elapsed: 0.004045009613037109
ell 21, elapsed: 0.002187967300415039
ell 20, elapsed: 0.0022439956665039062
ell 19, elapsed: 0.002254009246826172
ell 18, elapsed: 0.0023539066314697266
ell 12, elapsed: 0.004461050033569336
ell 11, elapsed: 0.0023658275604248047
ell 10, elapsed: 0.0023000240325927734
ell 9, elapsed: 0.0023479461669921875
ell 8, elapsed: 0.002254009246826172
  0.412238 seconds (68.56 k allocations: 12.176 MiB)
elapsed: 0.002689838409423828
step:          0.036791 sec (0 allocations: 0 byte, 0.0% gc time)
swapping:      0.000268 sec (0 allocations: 0 byte, 0.0% gc time)
calc_Mellell!: 0.014364 sec (0 allocations: 0 byte, 0.0% gc time)
  t0 :  0.005062 sec (0 allocations: 0 byte, 0.0% gc time)
  tm2 : 0.042879 sec (0 allocations: 0 byte, 0.0% gc time)
  tm2s: 0.003896 sec (0 allocations: 0 byte, 0.0% gc time)
  tm4 : 0.089721 sec (0 allocations: 0 byte, 0.0% gc time)
  tp2 : 0.0 sec (0 allocations: 0 byte, 0.0% gc time)
  tp2s: 0.0 sec (0 allocations: 0 byte, 0.0% gc time)
  tp4 : 0.0 sec (0 allocations: 0 byte, 0.0% gc time)
calc_wtdll!:   0.307904 sec (48.6 k allocations: 11.096 MB, 0.0% gc time)
calc_wljj!:    0.014033 sec (69 allocations: 1.078 KB, 0.0% gc time)
mult_prefac!:  0.0 sec (0 allocations: 0 byte, 0.0% gc time)
convert:       0.0 sec (0 allocations: 0 byte, 0.0% gc time)
write:         0.019527 sec (0 allocations: 0 byte, 0.0% gc time)
test_rand_2f1: 0.0 sec (0 allocations: 0 byte, 0.0% gc time)
Closing outfile out/MlCache/MlCache.bin...   0.000007 seconds
xi, l=0, nu=0:   0.209688 seconds (602.86 k allocations: 32.971 MiB, 99.17% compilation time)
xi, l=0, nu=-2:  0.001390 seconds (114 allocations: 148.969 KiB)
Created 'out/xi.tsv'.
  q=1.1, R=0.6:	  0.398354 seconds (264.58 k allocations: 38.109 MiB, 4.34% gc time)
  q=1.1, R=0.7:	  0.421871 seconds (276.43 k allocations: 40.113 MiB, 3.10% gc time)
  q=1.1, R=0.8:	  0.419467 seconds (271.87 k allocations: 39.334 MiB, 2.13% gc time)
  q=1.1, R=0.9:	  0.518179 seconds (266.68 k allocations: 38.464 MiB, 1.07% gc time)
  q=1.1, R=0.998:	 11.006638 seconds (114.96 k allocations: 7.588 MiB)
  q=1.1, R=1.0:	  0.002861 seconds (8.20 k allocations: 704.344 KiB)

ℓ = 1000
Δℓ = 4
ΔℓRg1 = -4
N = 4096
q = 1.1
kmin = 1.0e-5
kmax = 1000.0
χ0 = 0.001
RR = RR.tsv
ℓmax = ℓmax.bin
f21 = f21.bin
kmin = 1.0e-5
kmax = 1000.0
dlrec    = 4
dlrecRg1 = -4
Output size: 1573632 bytes = 0.0014655590057373047 GiB
Output size: 786816 bytes = 0.0007327795028686523 GiB
Reading 'out/F21EllCache'...   0.000952 seconds (198 allocations: 533.078 KiB)
ellmax: 1002
lmaxcache: 1000
fell[:,1,1] = ComplexF64[1.726292812820208e-224 - 4.2281979352226965e-240im, 1.7282693092099638e-224 - 4.233038955177178e-240im]
ell 1002, elapsed: 1.7881393432617188e-5
ell 1001, elapsed: 0.00047087669372558594
ell 1000, elapsed: 0.0005788803100585938
ell 999, elapsed: 0.0035169124603271484
ell 998, elapsed: 0.003484964370727539
ell 44, elapsed: 0.5085501670837402
ell 43, elapsed: 0.00286102294921875
ell 42, elapsed: 0.0027871131896972656
ell 41, elapsed: 0.002791881561279297
ell 40, elapsed: 0.002802133560180664
  0.531249 seconds (4.59 k allocations: 322.266 KiB)
elapsed: 0.0032830238342285156
step:          0.506704 sec (0 allocations: 0 byte, 0.0% gc time)
swapping:      0.000233 sec (0 allocations: 0 byte, 0.0% gc time)
calc_Mellell!: 0.000436 sec (0 allocations: 0 byte, 0.0% gc time)
  t0 :  0.00038 sec (0 allocations: 0 byte, 0.0% gc time)
  tm2 : 0.006319 sec (0 allocations: 0 byte, 0.0% gc time)
  tm2s: 0.000405 sec (0 allocations: 0 byte, 0.0% gc time)
  tm4 : 0.01367 sec (0 allocations: 0 byte, 0.0% gc time)
  tp2 : 0.0 sec (0 allocations: 0 byte, 0.0% gc time)
  tp2s: 0.0 sec (0 allocations: 0 byte, 0.0% gc time)
  tp4 : 0.0 sec (0 allocations: 0 byte, 0.0% gc time)
calc_wtdll!:   0.020856 sec (480 allocations: 52.5 KB, 0.0% gc time)
calc_wljj!:    0.000417 sec (1 allocations: 16 byte, 0.0% gc time)
mult_prefac!:  0.0 sec (0 allocations: 0 byte, 0.0% gc time)
convert:       0.0 sec (0 allocations: 0 byte, 0.0% gc time)
write:         0.000483 sec (0 allocations: 0 byte, 0.0% gc time)
test_rand_2f1: 0.0 sec (0 allocations: 0 byte, 0.0% gc time)
Closing outfile out/MlCache/MlCache.bin...   0.000005 seconds
  0.322903 seconds (38 allocations: 66.859 KiB)
make_phi():   0.003832 seconds (65 allocations: 275.984 KiB)
  0.025215 seconds (11.42 k allocations: 711.960 KiB, 91.69% compilation time)
tskip:       0.0 sec (0 allocations: 0 byte, 0.0% gc time)
tread:       0.000402 sec (17 allocations: 1.266 KB, 0.0% gc time)
tmultphi:    0.000136 sec (0 allocations: 0 byte, 0.0% gc time)
tbrfft:      0.000623 sec (0 allocations: 0 byte, 0.0% gc time)
tmultprefac: 0.000261 sec (0 allocations: 0 byte, 0.0% gc time)
toutfunc:    6.0e-5 sec (0 allocations: 0 byte, 0.0% gc time)
Created 'out/wl42_jj00.tsv'.
Created 'out/wl42_jj02.tsv'.
    Testing TwoFAST tests passed 
