Julia Version 1.3.2-pre.0
Commit 2e6715c045 (2019-12-31 00:49 UTC)
Platform Info:
  OS: Linux (x86_64-linux-gnu)
  CPU: Intel(R) Xeon(R) Silver 4114 CPU @ 2.20GHz
  WORD_SIZE: 64
  LIBM: libopenlibm
  LLVM: libLLVM-6.0.1 (ORCJIT, skylake)
Environment:
  JULIA_DEPOT_PATH = ::/usr/local/share/julia
  JULIA_NUM_THREADS = 2

 Resolving package versions...
 Installed IncGammaBeta ───── v0.1.0
 Installed Reexport ───────── v0.2.0
 Installed IntelOpenMP_jll ── v2018.0.3+0
 Installed URIParser ──────── v0.4.0
 Installed AbstractFFTs ───── v0.5.0
 Installed BinDeps ────────── v1.0.0
 Installed BinaryProvider ─── v0.5.8
 Installed FFTW_jll ───────── v3.3.9+3
 Installed MKL_jll ────────── v2019.0.117+2
 Installed FFTW ───────────── v1.2.0
 Installed Nemo ───────────── v0.15.1
 Installed SpecialFunctions ─ v0.8.0
 Installed AbstractAlgebra ── v0.7.1
 Installed TwoFAST ────────── v0.1.0
  Updating `~/.julia/environments/v1.3/Project.toml`
  [0dd23c3e] + TwoFAST v0.1.0
  Updating `~/.julia/environments/v1.3/Manifest.toml`
  [c3fe647b] + AbstractAlgebra v0.7.1
  [621f4979] + AbstractFFTs v0.5.0
  [9e28174c] + BinDeps v1.0.0
  [b99e7846] + BinaryProvider v0.5.8
  [7a1cc6ca] + FFTW v1.2.0
  [f5851436] + FFTW_jll v3.3.9+3
  [5087d2c0] + IncGammaBeta v0.1.0
  [1d5cc7b8] + IntelOpenMP_jll v2018.0.3+0
  [856f044c] + MKL_jll v2019.0.117+2
  [2edaba10] + Nemo v0.15.1
  [189a3867] + Reexport v0.2.0
  [276daf66] + SpecialFunctions v0.8.0
  [0dd23c3e] + TwoFAST v0.1.0
  [30578b45] + URIParser v0.4.0
  [2a0f44e3] + Base64 
  [ade2ca70] + Dates 
  [8bb1440f] + DelimitedFiles 
  [8ba89e20] + Distributed 
  [b77e0a4c] + InteractiveUtils 
  [76f85450] + LibGit2 
  [8f399da3] + Libdl 
  [37e2e46d] + LinearAlgebra 
  [56ddb016] + Logging 
  [d6f4376e] + Markdown 
  [a63ad114] + Mmap 
  [44cfe95a] + Pkg 
  [de0858da] + Printf 
  [3fa0cd96] + REPL 
  [9a3f8284] + Random 
  [ea8e919c] + SHA 
  [9e88b42a] + Serialization 
  [6462fe0b] + Sockets 
  [2f01184e] + SparseArrays 
  [8dfed614] + Test 
  [cf7118a7] + UUIDs 
  [4ec0a83e] + Unicode 
  Building Nemo ────────────→ `~/.julia/packages/Nemo/qzx0m/deps/build.log`
  Building FFTW ────────────→ `~/.julia/packages/FFTW/qqcBj/deps/build.log`
  Building SpecialFunctions → `~/.julia/packages/SpecialFunctions/ne2iw/deps/build.log`
   Testing TwoFAST
 Resolving package versions...
 Installed Dierckx ─ v0.4.1
  Building Dierckx → `~/.julia/packages/Dierckx/9SY4A/deps/build.log`
    Status `/tmp/jl_scFB3R/Manifest.toml`
  [c3fe647b] AbstractAlgebra v0.7.1
  [621f4979] AbstractFFTs v0.5.0
  [9e28174c] BinDeps v1.0.0
  [b99e7846] BinaryProvider v0.5.8
  [39dd38d3] Dierckx v0.4.1
  [7a1cc6ca] FFTW v1.2.0
  [f5851436] FFTW_jll v3.3.9+3
  [5087d2c0] IncGammaBeta v0.1.0
  [1d5cc7b8] IntelOpenMP_jll v2018.0.3+0
  [856f044c] MKL_jll v2019.0.117+2
  [2edaba10] Nemo v0.15.1
  [189a3867] Reexport v0.2.0
  [276daf66] SpecialFunctions v0.8.0
  [0dd23c3e] TwoFAST v0.1.0
  [30578b45] URIParser v0.4.0
  [2a0f44e3] Base64  [`@stdlib/Base64`]
  [ade2ca70] Dates  [`@stdlib/Dates`]
  [8bb1440f] DelimitedFiles  [`@stdlib/DelimitedFiles`]
  [8ba89e20] Distributed  [`@stdlib/Distributed`]
  [b77e0a4c] InteractiveUtils  [`@stdlib/InteractiveUtils`]
  [76f85450] LibGit2  [`@stdlib/LibGit2`]
  [8f399da3] Libdl  [`@stdlib/Libdl`]
  [37e2e46d] LinearAlgebra  [`@stdlib/LinearAlgebra`]
  [56ddb016] Logging  [`@stdlib/Logging`]
  [d6f4376e] Markdown  [`@stdlib/Markdown`]
  [a63ad114] Mmap  [`@stdlib/Mmap`]
  [44cfe95a] Pkg  [`@stdlib/Pkg`]
  [de0858da] Printf  [`@stdlib/Printf`]
  [3fa0cd96] REPL  [`@stdlib/REPL`]
  [9a3f8284] Random  [`@stdlib/Random`]
  [ea8e919c] SHA  [`@stdlib/SHA`]
  [9e88b42a] Serialization  [`@stdlib/Serialization`]
  [6462fe0b] Sockets  [`@stdlib/Sockets`]
  [2f01184e] SparseArrays  [`@stdlib/SparseArrays`]
  [8dfed614] Test  [`@stdlib/Test`]
  [cf7118a7] UUIDs  [`@stdlib/UUIDs`]
  [4ec0a83e] Unicode  [`@stdlib/Unicode`]

Welcome to Nemo version 0.15.1

Nemo comes with absolutely no warranty whatsoever


Welcome to Nemo version 0.15.1

Nemo comes with absolutely no warranty whatsoever

Testing ξ(r), ℓ=0, ν=-1 ... passed
Testing ξ(r), ℓ=0, ν=0 ... passed
Testing ξ(r), ℓ=0, ν=1 ... passed
Testing ξ(r), ℓ=0, ν=2 ... passed
Testing ξ(r), ℓ=0, ν=3 ... passed
Testing ξ(r), ℓ=1, ν=0 ... passed
Testing ξ(r), ℓ=1, ν=1 ... passed
Testing ξ(r), ℓ=1, ν=2 ... passed
Testing ξ(r), ℓ=1, ν=3 ... passed
Testing ξ(r), ℓ=2, ν=-1 ... passed
Testing ξ(r), ℓ=2, ν=0 ... passed
Testing ξ(r), ℓ=2, ν=1 ... passed
Testing ξ(r), ℓ=2, ν=2 ... passed
Testing ξ(r), ℓ=2, ν=3 ... passed
Testing ξ(r), ℓ=3, ν=-1 ... passed
Testing ξ(r), ℓ=3, ν=0 ... passed
Testing ξ(r), ℓ=3, ν=1 ... passed
Testing ξ(r), ℓ=3, ν=2 ... passed
Testing ξ(r), ℓ=3, ν=3 ... passed
Testing ξ(r), ℓ=4, ν=-1 ... passed
Testing ξ(r), ℓ=4, ν=0 ... passed
Testing ξ(r), ℓ=4, ν=1 ... passed
Testing ξ(r), ℓ=4, ν=2 ... passed
Testing ξ(r), ℓ=4, ν=3 ... passed
Testing ξ(r) ... passed
Testing ξ′(r) ... passed
Testing ξ″(r) ... passed
Calculating fmax: 
  dlrec    = 4
  dlrecRg1 = -4
  q=1.1, R=1.1:	  3.493800 seconds (1.11 M allocations: 119.128 MiB, 2.05% gc time)

  3.520528 seconds (1.11 M allocations: 119.486 MiB, 2.03% gc time)
ℓ = 1202
Δℓ = 4
ΔℓRg1 = -4
N = 1600
q = 1.1
kmin = 1.0e-5
kmax = 100000.00000000004
χ0 = 0.023029999999999995
RR = RR.tsv
ℓmax = ℓmax.bin
f21 = f21.bin
kmin = 1.0e-5
kmax = 100000.0
dlrec    = 4
dlrecRg1 = -4
Output size: 5741568 bytes = 0.005347251892089844 GiB
Output size: 51264 bytes = 4.774332046508789e-5 GiB
Reading 'out/F21EllCache'...   0.575703 seconds (348.11 k allocations: 17.862 MiB)
ellmax: 1202
lmaxcache: 1202
fell[:,1,1] = Complex{Float64}[3.9583795592771634e-52 - 9.695233714158177e-68im, 3.990121772925759e-52 - 9.772979714843386e-68im]
ell 1202, elapsed: 0.003618001937866211
ell 1201, elapsed: 2.2367639541625977
ell 1200, elapsed: 0.0006389617919921875
ell 1199, elapsed: 0.0005950927734375
ell 1198, elapsed: 0.00049591064453125
ell 1002, elapsed: 0.009673833847045898
ell 1001, elapsed: 0.0005559921264648438
ell 1000, elapsed: 0.000514984130859375
ell 999, elapsed: 0.0005068778991699219
ell 998, elapsed: 0.0004780292510986328
ell 902, elapsed: 0.005173921585083008
ell 901, elapsed: 0.0005550384521484375
ell 900, elapsed: 0.0005309581756591797
ell 899, elapsed: 0.0004470348358154297
ell 898, elapsed: 0.0005319118499755859
ell 802, elapsed: 0.005239963531494141
ell 801, elapsed: 0.0005681514739990234
ell 800, elapsed: 0.0005409717559814453
ell 799, elapsed: 0.0005090236663818359
ell 798, elapsed: 0.0005509853363037109
ell 702, elapsed: 0.005785942077636719
ell 701, elapsed: 0.0005559921264648438
ell 700, elapsed: 0.0006241798400878906
ell 699, elapsed: 0.0006330013275146484
ell 698, elapsed: 0.0005898475646972656
ell 602, elapsed: 0.0068988800048828125
ell 601, elapsed: 0.0006928443908691406
ell 600, elapsed: 0.0006768703460693359
ell 599, elapsed: 0.0006699562072753906
ell 598, elapsed: 0.0006809234619140625
ell 502, elapsed: 0.006854057312011719
ell 501, elapsed: 0.0006890296936035156
ell 500, elapsed: 0.0006899833679199219
ell 499, elapsed: 0.0007119178771972656
ell 498, elapsed: 0.0006811618804931641
ell 402, elapsed: 0.006406068801879883
ell 401, elapsed: 0.0005290508270263672
ell 400, elapsed: 0.00047516822814941406
ell 399, elapsed: 0.00047087669372558594
ell 398, elapsed: 0.000492095947265625
ell 302, elapsed: 0.00487518310546875
ell 301, elapsed: 0.0005037784576416016
ell 300, elapsed: 0.0005509853363037109
ell 299, elapsed: 0.0005090236663818359
ell 298, elapsed: 0.0004608631134033203
ell 202, elapsed: 0.004899024963378906
ell 201, elapsed: 0.0004489421844482422
ell 200, elapsed: 0.0004451274871826172
ell 199, elapsed: 0.0004639625549316406
ell 198, elapsed: 0.0004410743713378906
ell 152, elapsed: 0.002505064010620117
ell 151, elapsed: 0.0004851818084716797
ell 150, elapsed: 0.0004451274871826172
ell 149, elapsed: 0.0004210472106933594
ell 148, elapsed: 0.00041794776916503906
ell 127, elapsed: 0.001428842544555664
ell 126, elapsed: 0.0004200935363769531
ell 125, elapsed: 0.0004220008850097656
ell 124, elapsed: 0.00043320655822753906
ell 123, elapsed: 0.0004210472106933594
ell 114, elapsed: 0.0008151531219482422
ell 113, elapsed: 0.0004229545593261719
ell 112, elapsed: 0.0004200935363769531
ell 111, elapsed: 0.0004229545593261719
ell 110, elapsed: 0.0004229545593261719
ell 102, elapsed: 0.0008819103240966797
ell 101, elapsed: 0.00042700767517089844
ell 100, elapsed: 0.0004360675811767578
ell 99, elapsed: 0.0004239082336425781
ell 98, elapsed: 0.0004229545593261719
ell 97, elapsed: 0.00045800209045410156
ell 96, elapsed: 0.0005130767822265625
ell 95, elapsed: 0.00046706199645996094
ell 94, elapsed: 0.0005030632019042969
ell 93, elapsed: 0.00045418739318847656
ell 92, elapsed: 0.0005059242248535156
ell 91, elapsed: 0.0004570484161376953
ell 90, elapsed: 0.0005059242248535156
ell 89, elapsed: 0.00045418739318847656
ell 88, elapsed: 0.0005059242248535156
ell 87, elapsed: 0.0005879402160644531
ell 86, elapsed: 0.0007171630859375
ell 85, elapsed: 0.0006501674652099609
ell 84, elapsed: 0.0007100105285644531
ell 83, elapsed: 0.0006480216979980469
ell 82, elapsed: 0.0007300376892089844
ell 81, elapsed: 0.0006461143493652344
ell 80, elapsed: 0.000720977783203125
ell 79, elapsed: 0.0006489753723144531
ell 78, elapsed: 0.0007150173187255859
ell 77, elapsed: 0.0006568431854248047
ell 76, elapsed: 0.0007190704345703125
ell 75, elapsed: 0.0006520748138427734
ell 74, elapsed: 0.0007140636444091797
ell 73, elapsed: 0.0006518363952636719
ell 72, elapsed: 0.0007221698760986328
ell 71, elapsed: 0.000659942626953125
ell 70, elapsed: 0.0007178783416748047
ell 69, elapsed: 0.0006489753723144531
ell 68, elapsed: 0.0007200241088867188
ell 67, elapsed: 0.0006520748138427734
ell 66, elapsed: 0.0007328987121582031
ell 65, elapsed: 0.0006477832794189453
ell 64, elapsed: 0.0007109642028808594
ell 63, elapsed: 0.0006520748138427734
ell 62, elapsed: 0.0007259845733642578
ell 61, elapsed: 0.0006611347198486328
ell 60, elapsed: 0.0007290840148925781
ell 59, elapsed: 0.0006530284881591797
ell 58, elapsed: 0.0006878376007080078
ell 57, elapsed: 0.0005159378051757812
ell 56, elapsed: 0.0005700588226318359
ell 55, elapsed: 0.0005249977111816406
ell 54, elapsed: 0.0005648136138916016
ell 53, elapsed: 0.0005128383636474609
ell 52, elapsed: 0.0005710124969482422
ell 51, elapsed: 0.0005140304565429688
ell 50, elapsed: 0.0005719661712646484
ell 49, elapsed: 0.0005159378051757812
ell 48, elapsed: 0.0006170272827148438
ell 47, elapsed: 0.0005171298980712891
ell 46, elapsed: 0.0005710124969482422
ell 45, elapsed: 0.0005137920379638672
ell 44, elapsed: 0.0005731582641601562
ell 43, elapsed: 0.0005180835723876953
ell 42, elapsed: 0.0005841255187988281
ell 41, elapsed: 0.0005159378051757812
ell 40, elapsed: 0.0005769729614257812
ell 39, elapsed: 0.0005159378051757812
ell 38, elapsed: 0.0005750656127929688
ell 37, elapsed: 0.0005178451538085938
ell 36, elapsed: 0.0005700588226318359
ell 35, elapsed: 0.0005381107330322266
ell 34, elapsed: 0.0005748271942138672
ell 33, elapsed: 0.0005199909210205078
ell 32, elapsed: 0.0005698204040527344
ell 31, elapsed: 0.0005202293395996094
ell 30, elapsed: 0.0005772113800048828
ell 29, elapsed: 0.0005178451538085938
ell 28, elapsed: 0.0006430149078369141
ell 27, elapsed: 0.0005810260772705078
ell 26, elapsed: 0.0006420612335205078
ell 25, elapsed: 0.0005450248718261719
ell 24, elapsed: 0.0007231235504150391
ell 23, elapsed: 0.0006611347198486328
ell 22, elapsed: 0.0007259845733642578
ell 21, elapsed: 0.0006489753723144531
ell 20, elapsed: 0.0007238388061523438
ell 19, elapsed: 0.0006508827209472656
ell 18, elapsed: 0.0007238388061523438
ell 17, elapsed: 0.0006570816040039062
ell 16, elapsed: 0.0007250308990478516
ell 15, elapsed: 0.0006499290466308594
ell 14, elapsed: 0.0007219314575195312
ell 13, elapsed: 0.0006430149078369141
ell 12, elapsed: 0.0007128715515136719
ell 11, elapsed: 0.0006430149078369141
ell 10, elapsed: 0.0007090568542480469
ell 9, elapsed: 0.0006439685821533203
ell 8, elapsed: 0.0007150173187255859
ell 7, elapsed: 0.0006520748138427734
ell 6, elapsed: 0.0007140636444091797
ell 5, elapsed: 0.0006451606750488281
ell 4, elapsed: 0.0007140636444091797
ell 3, elapsed: 0.000637054443359375
ell 2, elapsed: 0.0007169246673583984
ell 1, elapsed: 0.0005829334259033203
ell 0, elapsed: 0.0006358623504638672
  2.511291 seconds (1.51 M allocations: 74.522 MiB, 0.88% gc time)
elapsed: 0.0007619857788085938
step:          0.660247 sec (478.14 k allocations: 23.742 MB, 0.0% gc time)
swapping:      0.000565 sec (0 allocations: 0 byte, 0.0% gc time)
calc_Mellell!: 0.509054 sec (371.692 k allocations: 18.415 MB, 0.0% gc time)
  t0 :  0.0 sec (0 allocations: 0 byte, 0.0% gc time)
  tm2 : 0.0 sec (0 allocations: 0 byte, 0.0% gc time)
  tm2s: 0.0 sec (0 allocations: 0 byte, 0.0% gc time)
  tm4 : 0.0 sec (0 allocations: 0 byte, 0.0% gc time)
  tp2 : 0.0 sec (0 allocations: 0 byte, 0.0% gc time)
  tp2s: 0.0 sec (0 allocations: 0 byte, 0.0% gc time)
  tp4 : 0.0 sec (0 allocations: 0 byte, 0.0% gc time)
calc_wtdll!:   1.201393 sec (571.77 k allocations: 28.059 MB, 1.83% gc time)
calc_wljj!:    0.004057 sec (6 allocations: 96 byte, 0.0% gc time)
mult_prefac!:  0.0 sec (0 allocations: 0 byte, 0.0% gc time)
convert:       0.0 sec (0 allocations: 0 byte, 0.0% gc time)
write:         0.004046 sec (0 allocations: 0 byte, 0.0% gc time)
test_rand_2f1: 0.0 sec (0 allocations: 0 byte, 0.0% gc time)
Closing outfile out/Ml21-cache.bin...   0.000136 seconds
  2.645862 seconds (1.05 M allocations: 84.220 MiB, 1.27% gc time)
make_phi():   0.031445 seconds (8.36 k allocations: 250.969 KiB)
  0.256028 seconds (191.17 k allocations: 11.705 MiB)
tskip:       2.8e-5 sec (0 allocations: 0 byte, 0.0% gc time)
tread:       0.002803 sec (20 allocations: 2.188 KB, 0.0% gc time)
tmultphi:    0.039905 sec (26.146 k allocations: 1.344 MB, 0.0% gc time)
tbrfft:      0.036844 sec (70.127 k allocations: 5.828 MB, 0.0% gc time)
tmultprefac: 0.002943 sec (0 allocations: 0 byte, 0.0% gc time)
toutfunc:    0.17334 sec (94.224 k allocations: 4.462 MB, 0.0% gc time)
Testing R=1.1 ... passed
Calculating fmax: 
  dlrec    = 4
  dlrecRg1 = -4
  q=1.1, R=1.0:	  0.012661 seconds (4.81 k allocations: 3.569 MiB)

  0.012943 seconds (4.87 k allocations: 3.601 MiB)
ℓ = 1202
Δℓ = 4
ΔℓRg1 = -4
N = 1600
q = 1.1
kmin = 1.0e-5
kmax = 100000.00000000004
χ0 = 0.023029999999999995
RR = RR.tsv
ℓmax = ℓmax.bin
f21 = f21.bin
kmin = 1.0e-5
kmax = 100000.0
dlrec    = 4
dlrecRg1 = -4
Output size: 61465536 bytes = 0.05724424123764038 GiB
Output size: 51264 bytes = 4.774332046508789e-5 GiB
Reading 'out/F21EllCache'...   0.001023 seconds (271 allocations: 84.719 KiB)
ellmax: 1202
lmaxcache: 1202
fell[:,1,1] = Complex{Float64}[809.6031528389767 - 1.9829558194077161e-13im, 0.0 + 0.0im]
ell 1202, elapsed: 3.600120544433594e-5
ell 1201, elapsed: 0.01395106315612793
ell 1200, elapsed: 0.00037980079650878906
ell 1199, elapsed: 0.00037479400634765625
ell 1198, elapsed: 0.0003790855407714844
ell 1197, elapsed: 0.00046706199645996094
ell 1196, elapsed: 0.0006279945373535156
ell 1195, elapsed: 0.0005500316619873047
ell 1194, elapsed: 0.00041222572326660156
ell 1193, elapsed: 0.00048804283142089844
ell 1192, elapsed: 0.00041794776916503906
ell 1191, elapsed: 0.0004899501800537109
ell 1190, elapsed: 0.0004229545593261719
ell 1189, elapsed: 0.00048089027404785156
ell 1188, elapsed: 0.00041794776916503906
ell 1187, elapsed: 0.0004858970642089844
ell 1186, elapsed: 0.00041985511779785156
ell 1185, elapsed: 0.0004868507385253906
ell 1184, elapsed: 0.0004200935363769531
ell 1183, elapsed: 0.00048804283142089844
ell 1182, elapsed: 0.0004558563232421875
ell 1181, elapsed: 0.0004868507385253906
ell 1180, elapsed: 0.0004169940948486328
ell 1179, elapsed: 0.0004940032958984375
ell 1178, elapsed: 0.0004210472106933594
ell 1177, elapsed: 0.0004870891571044922
ell 1176, elapsed: 0.0004189014434814453
ell 1175, elapsed: 0.0005400180816650391
ell 1174, elapsed: 0.0005259513854980469
ell 1173, elapsed: 0.0004761219024658203
ell 1172, elapsed: 0.00043201446533203125
ell 1171, elapsed: 0.00047898292541503906
ell 1170, elapsed: 0.0004119873046875
ell 1169, elapsed: 0.0004749298095703125
ell 1168, elapsed: 0.00041294097900390625
ell 1167, elapsed: 0.0006241798400878906
ell 1166, elapsed: 0.00042319297790527344
ell 1165, elapsed: 0.000492095947265625
ell 1164, elapsed: 0.0004591941833496094
ell 1163, elapsed: 0.0005650520324707031
ell 1162, elapsed: 0.00041794776916503906
ell 1161, elapsed: 0.0004901885986328125
ell 1160, elapsed: 0.0004150867462158203
ell 1159, elapsed: 0.0006048679351806641
ell 1158, elapsed: 0.0005080699920654297
ell 1157, elapsed: 0.0004820823669433594
ell 1156, elapsed: 0.00041604042053222656
ell 1155, elapsed: 0.0004780292510986328
ell 1154, elapsed: 0.0004630088806152344
ell 1153, elapsed: 0.0004820823669433594
ell 1152, elapsed: 0.00041294097900390625
ell 1151, elapsed: 0.0004801750183105469
ell 1150, elapsed: 0.00041484832763671875
ell 1149, elapsed: 0.0004811286926269531
ell 1148, elapsed: 0.0004191398620605469
ell 1147, elapsed: 0.0004820823669433594
ell 1146, elapsed: 0.0004169940948486328
ell 1145, elapsed: 0.00048089027404785156
ell 1144, elapsed: 0.0004150867462158203
ell 1143, elapsed: 0.0004699230194091797
ell 1142, elapsed: 0.00036406517028808594
ell 1141, elapsed: 0.00041294097900390625
ell 1140, elapsed: 0.0003590583801269531
ell 1139, elapsed: 0.0004169940948486328
ell 1138, elapsed: 0.0004019737243652344
ell 1137, elapsed: 0.0004551410675048828
ell 1136, elapsed: 0.0003941059112548828
ell 1135, elapsed: 0.0004570484161376953
ell 1134, elapsed: 0.0003979206085205078
ell 1133, elapsed: 0.00045299530029296875
ell 1132, elapsed: 0.0003960132598876953
ell 1131, elapsed: 0.00045299530029296875
ell 1130, elapsed: 0.0004031658172607422
ell 1129, elapsed: 0.000453948974609375
ell 1128, elapsed: 0.0003960132598876953
ell 1127, elapsed: 0.00045108795166015625
ell 1126, elapsed: 0.00039887428283691406
ell 1125, elapsed: 0.00045299530029296875
ell 1124, elapsed: 0.0003910064697265625
ell 1123, elapsed: 0.0004558563232421875
ell 1122, elapsed: 0.0004050731658935547
ell 1121, elapsed: 0.0004470348358154297
ell 1120, elapsed: 0.00039386749267578125
ell 1119, elapsed: 0.000453948974609375
ell 1118, elapsed: 0.0003979206085205078
ell 1117, elapsed: 0.00045490264892578125
ell 1116, elapsed: 0.0003941059112548828
ell 1115, elapsed: 0.00046181678771972656
ell 1114, elapsed: 0.0003829002380371094
ell 1113, elapsed: 0.0004138946533203125
ell 1112, elapsed: 0.00035500526428222656
ell 1111, elapsed: 0.00040411949157714844
ell 1110, elapsed: 0.00035500526428222656
ell 1109, elapsed: 0.00040793418884277344
ell 1108, elapsed: 0.00035500526428222656
ell 1107, elapsed: 0.0004138946533203125
ell 1106, elapsed: 0.0003571510314941406
ell 1105, elapsed: 0.0004570484161376953
ell 1104, elapsed: 0.00039696693420410156
ell 1103, elapsed: 0.00045609474182128906
ell 1102, elapsed: 0.0003960132598876953
ell 1101, elapsed: 0.0004470348358154297
ell 1100, elapsed: 0.00039505958557128906
ell 1099, elapsed: 0.00045180320739746094
ell 1098, elapsed: 0.0004000663757324219
ell 1097, elapsed: 0.0004661083221435547
ell 1096, elapsed: 0.00039386749267578125
ell 1095, elapsed: 0.0004520416259765625
ell 1094, elapsed: 0.00039696693420410156
ell 1093, elapsed: 0.0004589557647705078
ell 1092, elapsed: 0.00039696693420410156
ell 1091, elapsed: 0.0004570484161376953
ell 1090, elapsed: 0.00039505958557128906
ell 1089, elapsed: 0.0004589557647705078
ell 1088, elapsed: 0.0003921985626220703
ell 1087, elapsed: 0.0004508495330810547
ell 1086, elapsed: 0.0003941059112548828
ell 1085, elapsed: 0.000453948974609375
ell 1084, elapsed: 0.0003941059112548828
ell 1083, elapsed: 0.000453948974609375
ell 1082, elapsed: 0.00039887428283691406
ell 1081, elapsed: 0.0004601478576660156
ell 1080, elapsed: 0.00039386749267578125
ell 1079, elapsed: 0.0004508495330810547
ell 1078, elapsed: 0.00039696693420410156
ell 1077, elapsed: 0.00044918060302734375
ell 1076, elapsed: 0.0003948211669921875
ell 1075, elapsed: 0.0004570484161376953
ell 1074, elapsed: 0.0003960132598876953
ell 1073, elapsed: 0.0004398822784423828
ell 1072, elapsed: 0.0002560615539550781
ell 1071, elapsed: 0.0002970695495605469
ell 1070, elapsed: 0.0002529621124267578
ell 1069, elapsed: 0.0002999305725097656
ell 1068, elapsed: 0.00025582313537597656
ell 1067, elapsed: 0.0003020763397216797
ell 1066, elapsed: 0.0002529621124267578
ell 1065, elapsed: 0.0003020763397216797
ell 1064, elapsed: 0.0002529621124267578
ell 1063, elapsed: 0.0003020763397216797
ell 1062, elapsed: 0.0002548694610595703
ell 1061, elapsed: 0.0003478527069091797
ell 1060, elapsed: 0.0005340576171875
ell 1059, elapsed: 0.000720977783203125
ell 1058, elapsed: 0.0006380081176757812
ell 1057, elapsed: 0.0006401538848876953
ell 1056, elapsed: 0.0003809928894042969
ell 1055, elapsed: 0.0003681182861328125
ell 1054, elapsed: 0.0002880096435546875
ell 1053, elapsed: 0.0003390312194824219
ell 1052, elapsed: 0.0002739429473876953
ell 1051, elapsed: 0.00032401084899902344
ell 1050, elapsed: 0.00027298927307128906
ell 1049, elapsed: 0.0003211498260498047
ell 1048, elapsed: 0.0002770423889160156
ell 1047, elapsed: 0.0003190040588378906
ell 1046, elapsed: 0.000263214111328125
ell 1045, elapsed: 0.00031185150146484375
ell 1044, elapsed: 0.0002620220184326172
ell 1043, elapsed: 0.0003380775451660156
ell 1042, elapsed: 0.00026607513427734375
ell 1041, elapsed: 0.00032782554626464844
ell 1040, elapsed: 0.0002830028533935547
ell 1039, elapsed: 0.0003840923309326172
ell 1038, elapsed: 0.0003058910369873047
ell 1037, elapsed: 0.00034308433532714844
ell 1036, elapsed: 0.00028896331787109375
ell 1035, elapsed: 0.0003421306610107422
ell 1034, elapsed: 0.00027489662170410156
ell 1033, elapsed: 0.00033211708068847656
ell 1032, elapsed: 0.00041604042053222656
ell 1031, elapsed: 0.0004570484161376953
ell 1030, elapsed: 0.0002830028533935547
ell 1029, elapsed: 0.0003161430358886719
ell 1028, elapsed: 0.00026607513427734375
ell 1027, elapsed: 0.0003809928894042969
ell 1026, elapsed: 0.00028705596923828125
ell 1025, elapsed: 0.0003399848937988281
ell 1024, elapsed: 0.0003390312194824219
ell 1023, elapsed: 0.00039196014404296875
ell 1022, elapsed: 0.0003399848937988281
ell 1021, elapsed: 0.0004019737243652344
ell 1020, elapsed: 0.0003190040588378906
ell 1019, elapsed: 0.0003361701965332031
ell 1018, elapsed: 0.000331878662109375
ell 1017, elapsed: 0.00037288665771484375
ell 1016, elapsed: 0.0002830028533935547
ell 1015, elapsed: 0.0003409385681152344
ell 1014, elapsed: 0.00027298927307128906
ell 1013, elapsed: 0.00034689903259277344
ell 1012, elapsed: 0.0004048347473144531
ell 1011, elapsed: 0.0005328655242919922
ell 1010, elapsed: 0.00046515464782714844
ell 1009, elapsed: 0.0005431175231933594
ell 1008, elapsed: 0.0004639625549316406
ell 1007, elapsed: 0.0005369186401367188
ell 1006, elapsed: 0.0004680156707763672
ell 1005, elapsed: 0.0005500316619873047
ell 1004, elapsed: 0.0004680156707763672
ell 1003, elapsed: 0.0005450248718261719
ell 1002, elapsed: 0.0004589557647705078
ell 1001, elapsed: 0.0005421638488769531
ell 1000, elapsed: 0.00045990943908691406
ell 999, elapsed: 0.0005359649658203125
ell 998, elapsed: 0.00047588348388671875
ell 997, elapsed: 0.0005168914794921875
ell 996, elapsed: 0.00045299530029296875
ell 995, elapsed: 0.0005331039428710938
ell 994, elapsed: 0.00045800209045410156
ell 993, elapsed: 0.0005371570587158203
ell 992, elapsed: 0.00045800209045410156
ell 991, elapsed: 0.0005500316619873047
ell 990, elapsed: 0.00044918060302734375
ell 989, elapsed: 0.0005328655242919922
ell 988, elapsed: 0.0004589557647705078
ell 987, elapsed: 0.0005340576171875
ell 986, elapsed: 0.0004520416259765625
ell 985, elapsed: 0.0005278587341308594
ell 984, elapsed: 0.0005321502685546875
ell 983, elapsed: 0.0006558895111083984
ell 982, elapsed: 0.00045490264892578125
ell 981, elapsed: 0.0005328655242919922
ell 980, elapsed: 0.0004429817199707031
ell 979, elapsed: 0.0005309581756591797
ell 978, elapsed: 0.00037598609924316406
ell 977, elapsed: 0.0005450248718261719
ell 976, elapsed: 0.00040602684020996094
ell 975, elapsed: 0.0005040168762207031
ell 974, elapsed: 0.0004220008850097656
ell 973, elapsed: 0.00044417381286621094
ell 972, elapsed: 0.00037789344787597656
ell 971, elapsed: 0.0004591941833496094
ell 970, elapsed: 0.0003750324249267578
ell 969, elapsed: 0.00042891502380371094
ell 968, elapsed: 0.00036406517028808594
ell 967, elapsed: 0.00043010711669921875
ell 966, elapsed: 0.0003600120544433594
ell 965, elapsed: 0.0004298686981201172
ell 964, elapsed: 0.00037288665771484375
ell 963, elapsed: 0.0004239082336425781
ell 962, elapsed: 0.0004639625549316406
ell 961, elapsed: 0.00043582916259765625
ell 960, elapsed: 0.00037407875061035156
ell 959, elapsed: 0.0004439353942871094
ell 958, elapsed: 0.0004138946533203125
ell 957, elapsed: 0.0005230903625488281
ell 956, elapsed: 0.0004420280456542969
ell 955, elapsed: 0.0005099773406982422
ell 954, elapsed: 0.0005419254302978516
ell 953, elapsed: 0.0005190372467041016
ell 952, elapsed: 0.0004458427429199219
ell 951, elapsed: 0.0005171298980712891
ell 950, elapsed: 0.0004398822784423828
ell 949, elapsed: 0.0005090236663818359
ell 948, elapsed: 0.00040912628173828125
ell 947, elapsed: 0.0007379055023193359
ell 946, elapsed: 0.0003528594970703125
ell 945, elapsed: 0.0004069805145263672
ell 944, elapsed: 0.00034999847412109375
ell 943, elapsed: 0.0004069805145263672
ell 942, elapsed: 0.0003509521484375
ell 941, elapsed: 0.0004069805145263672
ell 940, elapsed: 0.0003509521484375
ell 939, elapsed: 0.0004010200500488281
ell 938, elapsed: 0.0005190372467041016
ell 937, elapsed: 0.000518798828125
ell 936, elapsed: 0.0004451274871826172
ell 935, elapsed: 0.0005099773406982422
ell 934, elapsed: 0.0004420280456542969
ell 933, elapsed: 0.0005099773406982422
ell 932, elapsed: 0.0004451274871826172
ell 931, elapsed: 0.0006039142608642578
ell 930, elapsed: 0.00040912628173828125
ell 929, elapsed: 0.0004730224609375
ell 928, elapsed: 0.00040912628173828125
ell 927, elapsed: 0.00047898292541503906
ell 926, elapsed: 0.00040602684020996094
ell 925, elapsed: 0.0004680156707763672
ell 924, elapsed: 0.0004038810729980469
ell 923, elapsed: 0.0005679130554199219
ell 922, elapsed: 0.0004069805145263672
ell 921, elapsed: 0.00047707557678222656
ell 920, elapsed: 0.0004069805145263672
ell 919, elapsed: 0.00046896934509277344
ell 918, elapsed: 0.00040602684020996094
ell 917, elapsed: 0.0004699230194091797
ell 916, elapsed: 0.0004909038543701172
ell 915, elapsed: 0.0004749298095703125
ell 914, elapsed: 0.0005469322204589844
ell 913, elapsed: 0.0004520416259765625
ell 912, elapsed: 0.00034999847412109375
ell 911, elapsed: 0.0004010200500488281
ell 910, elapsed: 0.00035119056701660156
ell 909, elapsed: 0.0004050731658935547
ell 908, elapsed: 0.0003509521484375
ell 907, elapsed: 0.0004868507385253906
ell 906, elapsed: 0.0003509521484375
ell 905, elapsed: 0.0004050731658935547
ell 904, elapsed: 0.00034999847412109375
ell 903, elapsed: 0.0003998279571533203
ell 902, elapsed: 0.0003490447998046875
ell 901, elapsed: 0.0004630088806152344
ell 900, elapsed: 0.00041484832763671875
ell 899, elapsed: 0.0006041526794433594
ell 898, elapsed: 0.0004429817199707031
ell 897, elapsed: 0.0004749298095703125
ell 896, elapsed: 0.00038313865661621094
ell 895, elapsed: 0.0004050731658935547
ell 894, elapsed: 0.00034999847412109375
ell 893, elapsed: 0.0003991127014160156
ell 892, elapsed: 0.00034999847412109375
ell 891, elapsed: 0.0004029273986816406
ell 890, elapsed: 0.0004229545593261719
ell 889, elapsed: 0.0004100799560546875
ell 888, elapsed: 0.00035309791564941406
ell 887, elapsed: 0.00040984153747558594
ell 886, elapsed: 0.0003521442413330078
ell 885, elapsed: 0.00040602684020996094
ell 884, elapsed: 0.00035190582275390625
ell 883, elapsed: 0.0003979206085205078
ell 882, elapsed: 0.00035190582275390625
ell 881, elapsed: 0.0005600452423095703
ell 880, elapsed: 0.0003421306610107422
ell 879, elapsed: 0.0006349086761474609
ell 878, elapsed: 0.0005948543548583984
ell 877, elapsed: 0.0006890296936035156
ell 876, elapsed: 0.0004458427429199219
ell 875, elapsed: 0.0007607936859130859
ell 874, elapsed: 0.0004639625549316406
ell 873, elapsed: 0.0006258487701416016
ell 872, elapsed: 0.0005888938903808594
ell 871, elapsed: 0.0006630420684814453
ell 870, elapsed: 0.0004489421844482422
ell 869, elapsed: 0.0006320476531982422
ell 868, elapsed: 0.0005900859832763672
ell 867, elapsed: 0.0006649494171142578
ell 866, elapsed: 0.0004761219024658203
ell 865, elapsed: 0.00043892860412597656
ell 864, elapsed: 0.0005319118499755859
ell 863, elapsed: 0.0006787776947021484
ell 862, elapsed: 0.00037097930908203125
ell 861, elapsed: 0.0004909038543701172
ell 860, elapsed: 0.0003848075866699219
ell 859, elapsed: 0.00030303001403808594
ell 858, elapsed: 0.0002448558807373047
ell 857, elapsed: 0.00048804283142089844
ell 856, elapsed: 0.0004131793975830078
ell 855, elapsed: 0.00032591819763183594
ell 854, elapsed: 0.0002448558807373047
ell 853, elapsed: 0.00031304359436035156
ell 852, elapsed: 0.00025200843811035156
ell 851, elapsed: 0.0004830360412597656
ell 850, elapsed: 0.0003731250762939453
ell 849, elapsed: 0.000308990478515625
ell 848, elapsed: 0.00043487548828125
ell 847, elapsed: 0.0004467964172363281
ell 846, elapsed: 0.00026297569274902344
ell 845, elapsed: 0.0005102157592773438
ell 844, elapsed: 0.00035309791564941406
ell 843, elapsed: 0.00030803680419921875
ell 842, elapsed: 0.0005369186401367188
ell 841, elapsed: 0.00044798851013183594
ell 840, elapsed: 0.00025391578674316406
ell 839, elapsed: 0.00029206275939941406
ell 838, elapsed: 0.00024199485778808594
ell 837, elapsed: 0.00029397010803222656
ell 836, elapsed: 0.00024080276489257812
ell 835, elapsed: 0.0002961158752441406
ell 834, elapsed: 0.0002739429473876953
ell 833, elapsed: 0.0003180503845214844
ell 832, elapsed: 0.00025010108947753906
ell 831, elapsed: 0.00031304359436035156
ell 830, elapsed: 0.0002529621124267578
ell 829, elapsed: 0.00035881996154785156
ell 828, elapsed: 0.00025200843811035156
ell 827, elapsed: 0.0003039836883544922
ell 826, elapsed: 0.0002529621124267578
ell 825, elapsed: 0.0006339550018310547
ell 824, elapsed: 0.0003719329833984375
ell 823, elapsed: 0.0003020763397216797
ell 822, elapsed: 0.00024199485778808594
ell 821, elapsed: 0.000286102294921875
ell 820, elapsed: 0.00024199485778808594
ell 819, elapsed: 0.00029277801513671875
ell 818, elapsed: 0.00024080276489257812
ell 817, elapsed: 0.00029087066650390625
ell 816, elapsed: 0.00024318695068359375
ell 815, elapsed: 0.00029397010803222656
ell 814, elapsed: 0.00024199485778808594
ell 813, elapsed: 0.00029587745666503906
ell 812, elapsed: 0.0005159378051757812
ell 811, elapsed: 0.0005168914794921875
ell 810, elapsed: 0.0005908012390136719
ell 809, elapsed: 0.0005779266357421875
ell 808, elapsed: 0.0005979537963867188
ell 807, elapsed: 0.0006239414215087891
ell 806, elapsed: 0.0005519390106201172
ell 805, elapsed: 0.0005240440368652344
ell 804, elapsed: 0.0005829334259033203
ell 803, elapsed: 0.0005810260772705078
ell 802, elapsed: 0.0004031658172607422
ell 801, elapsed: 0.0004119873046875
ell 800, elapsed: 0.0003631114959716797
ell 799, elapsed: 0.0006020069122314453
ell 798, elapsed: 0.00038814544677734375
ell 797, elapsed: 0.0006659030914306641
ell 796, elapsed: 0.0004220008850097656
ell 795, elapsed: 0.0007030963897705078
ell 794, elapsed: 0.00043511390686035156
ell 793, elapsed: 0.0007271766662597656
ell 792, elapsed: 0.0003669261932373047
ell 791, elapsed: 0.000637054443359375
ell 790, elapsed: 0.0005519390106201172
ell 789, elapsed: 0.0005471706390380859
ell 788, elapsed: 0.00048279762268066406
ell 787, elapsed: 0.0004100799560546875
ell 786, elapsed: 0.0006909370422363281
ell 785, elapsed: 0.0005118846893310547
ell 784, elapsed: 0.0004169940948486328
ell 783, elapsed: 0.00047397613525390625
ell 782, elapsed: 0.00040984153747558594
ell 781, elapsed: 0.0006580352783203125
ell 780, elapsed: 0.00044798851013183594
ell 779, elapsed: 0.0006589889526367188
ell 778, elapsed: 0.0005340576171875
ell 777, elapsed: 0.0004749298095703125
ell 776, elapsed: 0.0004029273986816406
ell 775, elapsed: 0.0005757808685302734
ell 774, elapsed: 0.0005388259887695312
ell 773, elapsed: 0.0004870891571044922
ell 772, elapsed: 0.0006608963012695312
ell 771, elapsed: 0.0005578994750976562
ell 770, elapsed: 0.0005002021789550781
ell 769, elapsed: 0.0005981922149658203
ell 768, elapsed: 0.0004088878631591797
ell 767, elapsed: 0.0004761219024658203
ell 766, elapsed: 0.0005118846893310547
ell 765, elapsed: 0.0004699230194091797
ell 764, elapsed: 0.0004088878631591797
ell 763, elapsed: 0.00046706199645996094
ell 762, elapsed: 0.0004069805145263672
ell 761, elapsed: 0.0004680156707763672
ell 760, elapsed: 0.0004069805145263672
ell 759, elapsed: 0.0004649162292480469
ell 758, elapsed: 0.0004971027374267578
ell 757, elapsed: 0.00047206878662109375
ell 756, elapsed: 0.0004069805145263672
ell 755, elapsed: 0.00047397613525390625
ell 754, elapsed: 0.00040602684020996094
ell 753, elapsed: 0.0004661083221435547
ell 752, elapsed: 0.00040793418884277344
ell 751, elapsed: 0.0004749298095703125
ell 750, elapsed: 0.0004930496215820312
ell 749, elapsed: 0.0004711151123046875
ell 748, elapsed: 0.00040602684020996094
ell 747, elapsed: 0.0004801750183105469
ell 746, elapsed: 0.0004069805145263672
ell 745, elapsed: 0.000514984130859375
ell 744, elapsed: 0.0004489421844482422
ell 743, elapsed: 0.0006089210510253906
ell 742, elapsed: 0.0004508495330810547
ell 741, elapsed: 0.0005230903625488281
ell 740, elapsed: 0.00045108795166015625
ell 739, elapsed: 0.0005221366882324219
ell 738, elapsed: 0.0004508495330810547
ell 737, elapsed: 0.0005159378051757812
ell 736, elapsed: 0.00044918060302734375
ell 735, elapsed: 0.0004999637603759766
ell 734, elapsed: 0.00045299530029296875
ell 733, elapsed: 0.0005190372467041016
ell 732, elapsed: 0.00044083595275878906
ell 731, elapsed: 0.0005168914794921875
ell 730, elapsed: 0.0004489421844482422
ell 729, elapsed: 0.0005180835723876953
ell 728, elapsed: 0.0005540847778320312
ell 727, elapsed: 0.000614166259765625
ell 726, elapsed: 0.0005328655242919922
ell 725, elapsed: 0.0005271434783935547
ell 724, elapsed: 0.0004489421844482422
ell 723, elapsed: 0.000518798828125
ell 722, elapsed: 0.0005581378936767578
ell 721, elapsed: 0.0005209445953369141
ell 720, elapsed: 0.0004482269287109375
ell 719, elapsed: 0.0005140304565429688
ell 718, elapsed: 0.0004489421844482422
ell 717, elapsed: 0.0006330013275146484
ell 716, elapsed: 0.0005240440368652344
ell 715, elapsed: 0.0007109642028808594
ell 714, elapsed: 0.0005290508270263672
ell 713, elapsed: 0.0004608631134033203
ell 712, elapsed: 0.0005218982696533203
ell 711, elapsed: 0.0007100105285644531
ell 710, elapsed: 0.0004649162292480469
ell 709, elapsed: 0.00051116943359375
ell 708, elapsed: 0.0003077983856201172
ell 707, elapsed: 0.0003421306610107422
ell 706, elapsed: 0.00028514862060546875
ell 705, elapsed: 0.0003650188446044922
ell 704, elapsed: 0.0004050731658935547
ell 703, elapsed: 0.0004520416259765625
ell 702, elapsed: 0.0003948211669921875
ell 701, elapsed: 0.00045490264892578125
ell 700, elapsed: 0.0004088878631591797
ell 699, elapsed: 0.0004589557647705078
ell 698, elapsed: 0.0003790855407714844
ell 697, elapsed: 0.0005419254302978516
ell 696, elapsed: 0.0004990100860595703
ell 695, elapsed: 0.00045680999755859375
ell 694, elapsed: 0.00040411949157714844
ell 693, elapsed: 0.0004611015319824219
ell 692, elapsed: 0.0004019737243652344
ell 691, elapsed: 0.00046181678771972656
ell 690, elapsed: 0.00039315223693847656
ell 689, elapsed: 0.00045490264892578125
ell 688, elapsed: 0.0004029273986816406
ell 687, elapsed: 0.0005571842193603516
ell 686, elapsed: 0.0004761219024658203
ell 685, elapsed: 0.0004639625549316406
ell 684, elapsed: 0.0005340576171875
ell 683, elapsed: 0.0005269050598144531
ell 682, elapsed: 0.0004801750183105469
ell 681, elapsed: 0.0005600452423095703
ell 680, elapsed: 0.0003979206085205078
ell 679, elapsed: 0.00045800209045410156
ell 678, elapsed: 0.0004839897155761719
ell 677, elapsed: 0.00045299530029296875
ell 676, elapsed: 0.00038695335388183594
ell 675, elapsed: 0.0005841255187988281
ell 674, elapsed: 0.0004508495330810547
ell 673, elapsed: 0.00045299530029296875
ell 672, elapsed: 0.0003731250762939453
ell 671, elapsed: 0.0004391670227050781
ell 670, elapsed: 0.0003991127014160156
ell 669, elapsed: 0.0004439353942871094
ell 668, elapsed: 0.0003769397735595703
ell 667, elapsed: 0.0004341602325439453
ell 666, elapsed: 0.00037407875061035156
ell 665, elapsed: 0.0004398822784423828
ell 664, elapsed: 0.0003809928894042969
ell 663, elapsed: 0.0004398822784423828
ell 662, elapsed: 0.0004029273986816406
ell 661, elapsed: 0.0004439353942871094
ell 660, elapsed: 0.0003829002380371094
ell 659, elapsed: 0.000453948974609375
ell 658, elapsed: 0.0003859996795654297
ell 657, elapsed: 0.00045299530029296875
ell 656, elapsed: 0.00038504600524902344
ell 655, elapsed: 0.0004520416259765625
ell 654, elapsed: 0.0004029273986816406
ell 653, elapsed: 0.0004429817199707031
ell 652, elapsed: 0.0003788471221923828
ell 651, elapsed: 0.0005948543548583984
ell 650, elapsed: 0.0004291534423828125
ell 649, elapsed: 0.0004398822784423828
ell 648, elapsed: 0.000370025634765625
ell 647, elapsed: 0.00043487548828125
ell 646, elapsed: 0.0004010200500488281
ell 645, elapsed: 0.0004360675811767578
ell 644, elapsed: 0.00037598609924316406
ell 643, elapsed: 0.00043892860412597656
ell 642, elapsed: 0.0003781318664550781
ell 641, elapsed: 0.0004420280456542969
ell 640, elapsed: 0.0003819465637207031
ell 639, elapsed: 0.0004448890686035156
ell 638, elapsed: 0.0004029273986816406
ell 637, elapsed: 0.0004391670227050781
ell 636, elapsed: 0.0003821849822998047
ell 635, elapsed: 0.0004448890686035156
ell 634, elapsed: 0.0003788471221923828
ell 633, elapsed: 0.00043582916259765625
ell 632, elapsed: 0.0005578994750976562
ell 631, elapsed: 0.0005779266357421875
ell 630, elapsed: 0.000431060791015625
ell 629, elapsed: 0.0004611015319824219
ell 628, elapsed: 0.00037789344787597656
ell 627, elapsed: 0.0004611015319824219
ell 626, elapsed: 0.00038814544677734375
ell 625, elapsed: 0.0004570484161376953
ell 624, elapsed: 0.0003819465637207031
ell 623, elapsed: 0.00044798851013183594
ell 622, elapsed: 0.0004050731658935547
ell 621, elapsed: 0.0004489421844482422
ell 620, elapsed: 0.00038313865661621094
ell 619, elapsed: 0.0004508495330810547
ell 618, elapsed: 0.0003879070281982422
ell 617, elapsed: 0.00045299530029296875
ell 616, elapsed: 0.00036716461181640625
ell 615, elapsed: 0.0004558563232421875
ell 614, elapsed: 0.0003898143768310547
ell 613, elapsed: 0.00045013427734375
ell 612, elapsed: 0.0003979206085205078
ell 611, elapsed: 0.0004699230194091797
ell 610, elapsed: 0.00039386749267578125
ell 609, elapsed: 0.00043201446533203125
ell 608, elapsed: 0.0003790855407714844
ell 607, elapsed: 0.0004429817199707031
ell 606, elapsed: 0.00037980079650878906
ell 605, elapsed: 0.0004639625549316406
ell 604, elapsed: 0.0003859996795654297
ell 603, elapsed: 0.0004439353942871094
ell 602, elapsed: 0.00039005279541015625
ell 601, elapsed: 0.00044918060302734375
ell 600, elapsed: 0.0003840923309326172
ell 599, elapsed: 0.0004410743713378906
ell 598, elapsed: 0.0003731250762939453
ell 597, elapsed: 0.0004620552062988281
ell 596, elapsed: 0.00039196014404296875
ell 595, elapsed: 0.0004448890686035156
ell 594, elapsed: 0.0003769397735595703
ell 593, elapsed: 0.0004470348358154297
ell 592, elapsed: 0.0003819465637207031
ell 591, elapsed: 0.0004298686981201172
ell 590, elapsed: 0.00037217140197753906
ell 589, elapsed: 0.0004448890686035156
ell 588, elapsed: 0.0003809928894042969
ell 587, elapsed: 0.0004398822784423828
ell 586, elapsed: 0.00036597251892089844
ell 585, elapsed: 0.00043320655822753906
ell 584, elapsed: 0.00037479400634765625
ell 583, elapsed: 0.000457763671875
ell 582, elapsed: 0.00038814544677734375
ell 581, elapsed: 0.00044798851013183594
ell 580, elapsed: 0.00038814544677734375
ell 579, elapsed: 0.00044989585876464844
ell 578, elapsed: 0.0003731250762939453
ell 577, elapsed: 0.00043511390686035156
ell 576, elapsed: 0.00037598609924316406
ell 575, elapsed: 0.00045180320739746094
ell 574, elapsed: 0.0003819465637207031
ell 573, elapsed: 0.0004420280456542969
ell 572, elapsed: 0.0004069805145263672
ell 571, elapsed: 0.0004360675811767578
ell 570, elapsed: 0.0003848075866699219
ell 569, elapsed: 0.0004949569702148438
ell 568, elapsed: 0.0004169940948486328
ell 567, elapsed: 0.0004668235778808594
ell 566, elapsed: 0.00038814544677734375
ell 565, elapsed: 0.00045990943908691406
ell 564, elapsed: 0.0004031658172607422
ell 563, elapsed: 0.0004630088806152344
ell 562, elapsed: 0.00039887428283691406
ell 561, elapsed: 0.00045013427734375
ell 560, elapsed: 0.0003960132598876953
ell 559, elapsed: 0.0004551410675048828
ell 558, elapsed: 0.00038695335388183594
ell 557, elapsed: 0.00045180320739746094
ell 556, elapsed: 0.000453948974609375
ell 555, elapsed: 0.0004558563232421875
ell 554, elapsed: 0.0003879070281982422
ell 553, elapsed: 0.0004489421844482422
ell 552, elapsed: 0.0003910064697265625
ell 551, elapsed: 0.00045299530029296875
ell 550, elapsed: 0.00038504600524902344
ell 549, elapsed: 0.0004448890686035156
ell 548, elapsed: 0.0003819465637207031
ell 547, elapsed: 0.00045990943908691406
ell 546, elapsed: 0.00038695335388183594
ell 545, elapsed: 0.00044918060302734375
ell 544, elapsed: 0.00038695335388183594
ell 543, elapsed: 0.00045013427734375
ell 542, elapsed: 0.0003838539123535156
ell 541, elapsed: 0.0004439353942871094
ell 540, elapsed: 0.0003960132598876953
ell 539, elapsed: 0.0004630088806152344
ell 538, elapsed: 0.0003910064697265625
ell 537, elapsed: 0.00045609474182128906
ell 536, elapsed: 0.00039005279541015625
ell 535, elapsed: 0.00046181678771972656
ell 534, elapsed: 0.00038886070251464844
ell 533, elapsed: 0.00045800209045410156
ell 532, elapsed: 0.00039887428283691406
ell 531, elapsed: 0.0004801750183105469
ell 530, elapsed: 0.00039196014404296875
ell 529, elapsed: 0.00045990943908691406
ell 528, elapsed: 0.0003948211669921875
ell 527, elapsed: 0.00047087669372558594
ell 526, elapsed: 0.0004010200500488281
ell 525, elapsed: 0.00044798851013183594
ell 524, elapsed: 0.0003800392150878906
ell 523, elapsed: 0.0004520416259765625
ell 522, elapsed: 0.00037789344787597656
ell 521, elapsed: 0.0004420280456542969
ell 520, elapsed: 0.0003809928894042969
ell 519, elapsed: 0.0004229545593261719
ell 518, elapsed: 0.00037288665771484375
ell 517, elapsed: 0.0004410743713378906
ell 516, elapsed: 0.0003719329833984375
ell 515, elapsed: 0.0004520416259765625
ell 514, elapsed: 0.0003800392150878906
ell 513, elapsed: 0.0004439353942871094
ell 512, elapsed: 0.00037097930908203125
ell 511, elapsed: 0.0004508495330810547
ell 510, elapsed: 0.00037598609924316406
ell 509, elapsed: 0.0004329681396484375
ell 508, elapsed: 0.00037407875061035156
ell 507, elapsed: 0.0004439353942871094
ell 506, elapsed: 0.0003769397735595703
ell 505, elapsed: 0.0004410743713378906
ell 504, elapsed: 0.0003859996795654297
ell 503, elapsed: 0.0004279613494873047
ell 502, elapsed: 0.00036907196044921875
ell 501, elapsed: 0.00043582916259765625
ell 500, elapsed: 0.0003731250762939453
ell 499, elapsed: 0.00044798851013183594
ell 498, elapsed: 0.00039505958557128906
ell 497, elapsed: 0.0004439353942871094
ell 496, elapsed: 0.0003731250762939453
ell 495, elapsed: 0.00043487548828125
ell 494, elapsed: 0.0003631114959716797
ell 493, elapsed: 0.00043582916259765625
ell 492, elapsed: 0.000370025634765625
ell 491, elapsed: 0.00044798851013183594
ell 490, elapsed: 0.0003769397735595703
ell 489, elapsed: 0.00043320655822753906
ell 488, elapsed: 0.0005421638488769531
ell 487, elapsed: 0.0005660057067871094
ell 486, elapsed: 0.00036787986755371094
ell 485, elapsed: 0.00043487548828125
ell 484, elapsed: 0.0003712177276611328
ell 483, elapsed: 0.0004429817199707031
ell 482, elapsed: 0.00038909912109375
ell 481, elapsed: 0.0004420280456542969
ell 480, elapsed: 0.00036907196044921875
ell 479, elapsed: 0.00043892860412597656
ell 478, elapsed: 0.0003790855407714844
ell 477, elapsed: 0.00043201446533203125
ell 476, elapsed: 0.0003809928894042969
ell 475, elapsed: 0.00044083595275878906
ell 474, elapsed: 0.0003719329833984375
ell 473, elapsed: 0.0004999637603759766
ell 472, elapsed: 0.00037789344787597656
ell 471, elapsed: 0.00044608116149902344
ell 470, elapsed: 0.0003688335418701172
ell 469, elapsed: 0.0004279613494873047
ell 468, elapsed: 0.00037407875061035156
ell 467, elapsed: 0.000431060791015625
ell 466, elapsed: 0.0005309581756591797
ell 465, elapsed: 0.0006160736083984375
ell 464, elapsed: 0.00036787986755371094
ell 463, elapsed: 0.00043892860412597656
ell 462, elapsed: 0.00037384033203125
ell 461, elapsed: 0.00043487548828125
ell 460, elapsed: 0.00037598609924316406
ell 459, elapsed: 0.0004279613494873047
ell 458, elapsed: 0.00036907196044921875
ell 457, elapsed: 0.0005309581756591797
ell 456, elapsed: 0.00037097930908203125
ell 455, elapsed: 0.00043320655822753906
ell 454, elapsed: 0.0003809928894042969
ell 453, elapsed: 0.00042891502380371094
ell 452, elapsed: 0.00036907196044921875
ell 451, elapsed: 0.00045800209045410156
ell 450, elapsed: 0.0003731250762939453
ell 449, elapsed: 0.0005559921264648438
ell 448, elapsed: 0.0003838539123535156
ell 447, elapsed: 0.0004391670227050781
ell 446, elapsed: 0.0003859996795654297
ell 445, elapsed: 0.00045299530029296875
ell 444, elapsed: 0.0003859996795654297
ell 443, elapsed: 0.0004417896270751953
ell 442, elapsed: 0.0003838539123535156
ell 441, elapsed: 0.00045299530029296875
ell 440, elapsed: 0.0003819465637207031
ell 439, elapsed: 0.00043892860412597656
ell 438, elapsed: 0.0003840923309326172
ell 437, elapsed: 0.0004439353942871094
ell 436, elapsed: 0.0003750324249267578
ell 435, elapsed: 0.0004429817199707031
ell 434, elapsed: 0.00041294097900390625
ell 433, elapsed: 0.00045990943908691406
ell 432, elapsed: 0.0003991127014160156
ell 431, elapsed: 0.0004451274871826172
ell 430, elapsed: 0.00044417381286621094
ell 429, elapsed: 0.0004420280456542969
ell 428, elapsed: 0.0003821849822998047
ell 427, elapsed: 0.0004379749298095703
ell 426, elapsed: 0.0003800392150878906
ell 425, elapsed: 0.0004379749298095703
ell 424, elapsed: 0.0004329681396484375
ell 423, elapsed: 0.00044918060302734375
ell 422, elapsed: 0.00038504600524902344
ell 421, elapsed: 0.0004439353942871094
ell 420, elapsed: 0.00039196014404296875
ell 419, elapsed: 0.00044608116149902344
ell 418, elapsed: 0.0003871917724609375
ell 417, elapsed: 0.00044989585876464844
ell 416, elapsed: 0.00038695335388183594
ell 415, elapsed: 0.0004451274871826172
ell 414, elapsed: 0.0003879070281982422
ell 413, elapsed: 0.00044989585876464844
ell 412, elapsed: 0.00038123130798339844
ell 411, elapsed: 0.0004470348358154297
ell 410, elapsed: 0.0003578662872314453
ell 409, elapsed: 0.0004420280456542969
ell 408, elapsed: 0.00037407875061035156
ell 407, elapsed: 0.00045800209045410156
ell 406, elapsed: 0.0003788471221923828
ell 405, elapsed: 0.00043702125549316406
ell 404, elapsed: 0.00036716461181640625
ell 403, elapsed: 0.00043201446533203125
ell 402, elapsed: 0.000370025634765625
ell 401, elapsed: 0.0004248619079589844
ell 400, elapsed: 0.0003681182861328125
ell 399, elapsed: 0.00043702125549316406
ell 398, elapsed: 0.00037097930908203125
ell 397, elapsed: 0.00043892860412597656
ell 396, elapsed: 0.00037288665771484375
ell 395, elapsed: 0.00043201446533203125
ell 394, elapsed: 0.00036787986755371094
ell 393, elapsed: 0.00043511390686035156
ell 392, elapsed: 0.0003719329833984375
ell 391, elapsed: 0.0004298686981201172
ell 390, elapsed: 0.0003921985626220703
ell 389, elapsed: 0.0004401206970214844
ell 388, elapsed: 0.00037097930908203125
ell 387, elapsed: 0.00043702125549316406
ell 386, elapsed: 0.00037598609924316406
ell 385, elapsed: 0.0004360675811767578
ell 384, elapsed: 0.0003609657287597656
ell 383, elapsed: 0.0004291534423828125
ell 382, elapsed: 0.0003948211669921875
ell 381, elapsed: 0.0006680488586425781
ell 380, elapsed: 0.0006120204925537109
ell 379, elapsed: 0.0007150173187255859
ell 378, elapsed: 0.0004241466522216797
ell 377, elapsed: 0.0004379749298095703
ell 376, elapsed: 0.000370025634765625
ell 375, elapsed: 0.0004649162292480469
ell 374, elapsed: 0.0003769397735595703
ell 373, elapsed: 0.00043702125549316406
ell 372, elapsed: 0.0003628730773925781
ell 371, elapsed: 0.0004379749298095703
ell 370, elapsed: 0.000370025634765625
ell 369, elapsed: 0.0004298686981201172
ell 368, elapsed: 0.00037407875061035156
ell 367, elapsed: 0.0004401206970214844
ell 366, elapsed: 0.00038814544677734375
ell 365, elapsed: 0.0004429817199707031
ell 364, elapsed: 0.00037384033203125
ell 363, elapsed: 0.0004239082336425781
ell 362, elapsed: 0.0003750324249267578
ell 361, elapsed: 0.0004379749298095703
ell 360, elapsed: 0.00036907196044921875
ell 359, elapsed: 0.0004401206970214844
ell 358, elapsed: 0.0003859996795654297
ell 357, elapsed: 0.00043511390686035156
ell 356, elapsed: 0.0003688335418701172
ell 355, elapsed: 0.00043201446533203125
ell 354, elapsed: 0.00038886070251464844
ell 353, elapsed: 0.00043201446533203125
ell 352, elapsed: 0.0003838539123535156
ell 351, elapsed: 0.0004417896270751953
ell 350, elapsed: 0.0003809928894042969
ell 349, elapsed: 0.00045609474182128906
ell 348, elapsed: 0.00037789344787597656
ell 347, elapsed: 0.00043702125549316406
ell 346, elapsed: 0.00037789344787597656
ell 345, elapsed: 0.0004329681396484375
ell 344, elapsed: 0.0003800392150878906
ell 343, elapsed: 0.0004391670227050781
ell 342, elapsed: 0.0003838539123535156
ell 341, elapsed: 0.00043702125549316406
ell 340, elapsed: 0.0003840923309326172
ell 339, elapsed: 0.0004410743713378906
ell 338, elapsed: 0.00038504600524902344
ell 337, elapsed: 0.0004429817199707031
ell 336, elapsed: 0.0003879070281982422
ell 335, elapsed: 0.00044608116149902344
ell 334, elapsed: 0.0003838539123535156
ell 333, elapsed: 0.0004329681396484375
ell 332, elapsed: 0.0003800392150878906
ell 331, elapsed: 0.0004329681396484375
ell 330, elapsed: 0.00036716461181640625
ell 329, elapsed: 0.0005600452423095703
ell 328, elapsed: 0.000431060791015625
ell 327, elapsed: 0.0004200935363769531
ell 326, elapsed: 0.00036406517028808594
ell 325, elapsed: 0.0004239082336425781
ell 324, elapsed: 0.0004010200500488281
ell 323, elapsed: 0.00043082237243652344
ell 322, elapsed: 0.00037097930908203125
ell 321, elapsed: 0.00043201446533203125
ell 320, elapsed: 0.0003609657287597656
ell 319, elapsed: 0.0004260540008544922
ell 318, elapsed: 0.0003769397735595703
ell 317, elapsed: 0.00043582916259765625
ell 316, elapsed: 0.0003750324249267578
ell 315, elapsed: 0.0005362033843994141
ell 314, elapsed: 0.0003619194030761719
ell 313, elapsed: 0.0004329681396484375
ell 312, elapsed: 0.0003731250762939453
ell 311, elapsed: 0.00043702125549316406
ell 310, elapsed: 0.000370025634765625
ell 309, elapsed: 0.00043201446533203125
ell 308, elapsed: 0.00037407875061035156
ell 307, elapsed: 0.0005710124969482422
ell 306, elapsed: 0.0004150867462158203
ell 305, elapsed: 0.0004830360412597656
ell 304, elapsed: 0.0004329681396484375
ell 303, elapsed: 0.00047898292541503906
ell 302, elapsed: 0.00041103363037109375
ell 301, elapsed: 0.0005011558532714844
ell 300, elapsed: 0.00045108795166015625
ell 299, elapsed: 0.0005240440368652344
ell 298, elapsed: 0.0004398822784423828
ell 297, elapsed: 0.0004532337188720703
ell 296, elapsed: 0.0003800392150878906
ell 295, elapsed: 0.0004401206970214844
ell 294, elapsed: 0.0003719329833984375
ell 293, elapsed: 0.0004398822784423828
ell 292, elapsed: 0.00037789344787597656
ell 291, elapsed: 0.0004248619079589844
ell 290, elapsed: 0.00037407875061035156
ell 289, elapsed: 0.00042510032653808594
ell 288, elapsed: 0.0004189014434814453
ell 287, elapsed: 0.0004379749298095703
ell 286, elapsed: 0.0003750324249267578
ell 285, elapsed: 0.0004410743713378906
ell 284, elapsed: 0.0003879070281982422
ell 283, elapsed: 0.0004429817199707031
ell 282, elapsed: 0.0003800392150878906
ell 281, elapsed: 0.0004398822784423828
ell 280, elapsed: 0.0004248619079589844
ell 279, elapsed: 0.0004360675811767578
ell 278, elapsed: 0.00037598609924316406
ell 277, elapsed: 0.00043702125549316406
ell 276, elapsed: 0.0003750324249267578
ell 275, elapsed: 0.0006389617919921875
ell 274, elapsed: 0.00038504600524902344
ell 273, elapsed: 0.00043487548828125
ell 272, elapsed: 0.0006570816040039062
ell 271, elapsed: 0.0005447864532470703
ell 270, elapsed: 0.00037384033203125
ell 269, elapsed: 0.0006430149078369141
ell 268, elapsed: 0.0004088878631591797
ell 267, elapsed: 0.00038313865661621094
ell 266, elapsed: 0.000370025634765625
ell 265, elapsed: 0.00043201446533203125
ell 264, elapsed: 0.0003790855407714844
ell 263, elapsed: 0.0004470348358154297
ell 262, elapsed: 0.00037598609924316406
ell 261, elapsed: 0.0004410743713378906
ell 260, elapsed: 0.0003859996795654297
ell 259, elapsed: 0.0004360675811767578
ell 258, elapsed: 0.00037407875061035156
ell 257, elapsed: 0.0004470348358154297
ell 256, elapsed: 0.00038504600524902344
ell 255, elapsed: 0.0004470348358154297
ell 254, elapsed: 0.0003769397735595703
ell 253, elapsed: 0.0006339550018310547
ell 252, elapsed: 0.0004010200500488281
ell 251, elapsed: 0.0006148815155029297
ell 250, elapsed: 0.0005469322204589844
ell 249, elapsed: 0.0005710124969482422
ell 248, elapsed: 0.0004448890686035156
ell 247, elapsed: 0.0004889965057373047
ell 246, elapsed: 0.0003838539123535156
ell 245, elapsed: 0.000453948974609375
ell 244, elapsed: 0.0003829002380371094
ell 243, elapsed: 0.0004611015319824219
ell 242, elapsed: 0.0003809928894042969
ell 241, elapsed: 0.000621795654296875
ell 240, elapsed: 0.00041103363037109375
ell 239, elapsed: 0.00044083595275878906
ell 238, elapsed: 0.00037789344787597656
ell 237, elapsed: 0.0004508495330810547
ell 236, elapsed: 0.00037598609924316406
ell 235, elapsed: 0.00045299530029296875
ell 234, elapsed: 0.00037789344787597656
ell 233, elapsed: 0.00043892860412597656
ell 232, elapsed: 0.0003800392150878906
ell 231, elapsed: 0.00043201446533203125
ell 230, elapsed: 0.0005309581756591797
ell 229, elapsed: 0.0005919933319091797
ell 228, elapsed: 0.0003800392150878906
ell 227, elapsed: 0.0004551410675048828
ell 226, elapsed: 0.00037097930908203125
ell 225, elapsed: 0.0004420280456542969
ell 224, elapsed: 0.0003840923309326172
ell 223, elapsed: 0.0004429817199707031
ell 222, elapsed: 0.0003781318664550781
ell 221, elapsed: 0.0004439353942871094
ell 220, elapsed: 0.0003829002380371094
ell 219, elapsed: 0.0004551410675048828
ell 218, elapsed: 0.0003819465637207031
ell 217, elapsed: 0.0004417896270751953
ell 216, elapsed: 0.00037598609924316406
ell 215, elapsed: 0.00044798851013183594
ell 214, elapsed: 0.0003809928894042969
ell 213, elapsed: 0.00043582916259765625
ell 212, elapsed: 0.0003840923309326172
ell 211, elapsed: 0.0004611015319824219
ell 210, elapsed: 0.0003819465637207031
ell 209, elapsed: 0.00044417381286621094
ell 208, elapsed: 0.0003819465637207031
ell 207, elapsed: 0.0004401206970214844
ell 206, elapsed: 0.00037980079650878906
ell 205, elapsed: 0.0004410743713378906
ell 204, elapsed: 0.00038504600524902344
ell 203, elapsed: 0.0004451274871826172
ell 202, elapsed: 0.00042891502380371094
ell 201, elapsed: 0.0005991458892822266
ell 200, elapsed: 0.0003821849822998047
ell 199, elapsed: 0.0004391670227050781
ell 198, elapsed: 0.0004780292510986328
ell 197, elapsed: 0.0005619525909423828
ell 196, elapsed: 0.00037598609924316406
ell 195, elapsed: 0.0005178451538085938
ell 194, elapsed: 0.0003800392150878906
ell 193, elapsed: 0.00043487548828125
ell 192, elapsed: 0.0003731250762939453
ell 191, elapsed: 0.0004451274871826172
ell 190, elapsed: 0.0003809928894042969
ell 189, elapsed: 0.0004420280456542969
ell 188, elapsed: 0.00037598609924316406
ell 187, elapsed: 0.0005269050598144531
ell 186, elapsed: 0.0003800392150878906
ell 185, elapsed: 0.0004470348358154297
ell 184, elapsed: 0.0005121231079101562
ell 183, elapsed: 0.0005238056182861328
ell 182, elapsed: 0.0003790855407714844
ell 181, elapsed: 0.0004439353942871094
ell 180, elapsed: 0.0003790855407714844
ell 179, elapsed: 0.0006070137023925781
ell 178, elapsed: 0.00043702125549316406
ell 177, elapsed: 0.0005030632019042969
ell 176, elapsed: 0.0004401206970214844
ell 175, elapsed: 0.0004980564117431641
ell 174, elapsed: 0.0004451274871826172
ell 173, elapsed: 0.0004639625549316406
ell 172, elapsed: 0.00041985511779785156
ell 171, elapsed: 0.00047898292541503906
ell 170, elapsed: 0.0004010200500488281
ell 169, elapsed: 0.0004949569702148438
ell 168, elapsed: 0.0003600120544433594
ell 167, elapsed: 0.00043487548828125
ell 166, elapsed: 0.0003771781921386719
ell 165, elapsed: 0.0004379749298095703
ell 164, elapsed: 0.00037288665771484375
ell 163, elapsed: 0.00044989585876464844
ell 162, elapsed: 0.0003719329833984375
ell 161, elapsed: 0.00043392181396484375
ell 160, elapsed: 0.0005779266357421875
ell 159, elapsed: 0.0005459785461425781
ell 158, elapsed: 0.0004711151123046875
ell 157, elapsed: 0.0005860328674316406
ell 156, elapsed: 0.0005300045013427734
ell 155, elapsed: 0.0005679130554199219
ell 154, elapsed: 0.00037789344787597656
ell 153, elapsed: 0.00044608116149902344
ell 152, elapsed: 0.0003790855407714844
ell 151, elapsed: 0.00044083595275878906
ell 150, elapsed: 0.0003731250762939453
ell 149, elapsed: 0.00044083595275878906
ell 148, elapsed: 0.0003800392150878906
ell 147, elapsed: 0.0004467964172363281
ell 146, elapsed: 0.0003769397735595703
ell 145, elapsed: 0.0005152225494384766
ell 144, elapsed: 0.0003750324249267578
ell 143, elapsed: 0.00043892860412597656
ell 142, elapsed: 0.0003712177276611328
ell 141, elapsed: 0.00043702125549316406
ell 140, elapsed: 0.00037407875061035156
ell 139, elapsed: 0.0004420280456542969
ell 138, elapsed: 0.00037598609924316406
ell 137, elapsed: 0.0005400180816650391
ell 136, elapsed: 0.00037598609924316406
ell 135, elapsed: 0.00043892860412597656
ell 134, elapsed: 0.0003750324249267578
ell 133, elapsed: 0.00044417381286621094
ell 132, elapsed: 0.0003771781921386719
ell 131, elapsed: 0.0004410743713378906
ell 130, elapsed: 0.0003719329833984375
ell 129, elapsed: 0.00043392181396484375
ell 128, elapsed: 0.0005681514739990234
ell 127, elapsed: 0.0005478858947753906
ell 126, elapsed: 0.0004849433898925781
ell 125, elapsed: 0.0005910396575927734
ell 124, elapsed: 0.00041794776916503906
ell 123, elapsed: 0.0004398822784423828
ell 122, elapsed: 0.0003771781921386719
ell 121, elapsed: 0.0004420280456542969
ell 120, elapsed: 0.00037598609924316406
ell 119, elapsed: 0.00043892860412597656
ell 118, elapsed: 0.0003559589385986328
ell 117, elapsed: 0.0004410743713378906
ell 116, elapsed: 0.00037598609924316406
ell 115, elapsed: 0.0004189014434814453
ell 114, elapsed: 0.0003809928894042969
ell 113, elapsed: 0.0005278587341308594
ell 112, elapsed: 0.0003829002380371094
ell 111, elapsed: 0.0004379749298095703
ell 110, elapsed: 0.0003559589385986328
ell 109, elapsed: 0.0004279613494873047
ell 108, elapsed: 0.0005469322204589844
ell 107, elapsed: 0.0005090236663818359
ell 106, elapsed: 0.00038313865661621094
ell 105, elapsed: 0.0004398822784423828
ell 104, elapsed: 0.00036907196044921875
ell 103, elapsed: 0.0004379749298095703
ell 102, elapsed: 0.00037407875061035156
ell 101, elapsed: 0.0004329681396484375
ell 100, elapsed: 0.0003669261932373047
ell 99, elapsed: 0.0004248619079589844
ell 98, elapsed: 0.00036907196044921875
ell 97, elapsed: 0.0004439353942871094
ell 96, elapsed: 0.0003800392150878906
ell 95, elapsed: 0.00043320655822753906
ell 94, elapsed: 0.0003650188446044922
ell 93, elapsed: 0.000431060791015625
ell 92, elapsed: 0.0003669261932373047
ell 91, elapsed: 0.0004410743713378906
ell 90, elapsed: 0.00037288665771484375
ell 89, elapsed: 0.0004391670227050781
ell 88, elapsed: 0.0003821849822998047
ell 87, elapsed: 0.0004279613494873047
ell 86, elapsed: 0.00037097930908203125
ell 85, elapsed: 0.0004260540008544922
ell 84, elapsed: 0.000370025634765625
ell 83, elapsed: 0.0006251335144042969
ell 82, elapsed: 0.0005919933319091797
ell 81, elapsed: 0.0007009506225585938
ell 80, elapsed: 0.0005950927734375
ell 79, elapsed: 0.000576019287109375
ell 78, elapsed: 0.0003800392150878906
ell 77, elapsed: 0.0004329681396484375
ell 76, elapsed: 0.0003819465637207031
ell 75, elapsed: 0.0006000995635986328
ell 74, elapsed: 0.0004401206970214844
ell 73, elapsed: 0.0005447864532470703
ell 72, elapsed: 0.00047898292541503906
ell 71, elapsed: 0.0004379749298095703
ell 70, elapsed: 0.00036907196044921875
ell 69, elapsed: 0.0004360675811767578
ell 68, elapsed: 0.00036907196044921875
ell 67, elapsed: 0.0004429817199707031
ell 66, elapsed: 0.0004010200500488281
ell 65, elapsed: 0.0004401206970214844
ell 64, elapsed: 0.00037598609924316406
ell 63, elapsed: 0.0004329681396484375
ell 62, elapsed: 0.00037598609924316406
ell 61, elapsed: 0.00043201446533203125
ell 60, elapsed: 0.0003769397735595703
ell 59, elapsed: 0.00043702125549316406
ell 58, elapsed: 0.00037789344787597656
ell 57, elapsed: 0.000514984130859375
ell 56, elapsed: 0.0003840923309326172
ell 55, elapsed: 0.0004439353942871094
ell 54, elapsed: 0.00037384033203125
ell 53, elapsed: 0.0004360675811767578
ell 52, elapsed: 0.00037598609924316406
ell 51, elapsed: 0.00043702125549316406
ell 50, elapsed: 0.0003750324249267578
ell 49, elapsed: 0.0005400180816650391
ell 48, elapsed: 0.0003859996795654297
ell 47, elapsed: 0.00043892860412597656
ell 46, elapsed: 0.0003788471221923828
ell 45, elapsed: 0.00044083595275878906
ell 44, elapsed: 0.0003769397735595703
ell 43, elapsed: 0.00043487548828125
ell 42, elapsed: 0.0003750324249267578
ell 41, elapsed: 0.0005309581756591797
ell 40, elapsed: 0.0003838539123535156
ell 39, elapsed: 0.0004379749298095703
ell 38, elapsed: 0.0003840923309326172
ell 37, elapsed: 0.00043511390686035156
ell 36, elapsed: 0.0003821849822998047
ell 35, elapsed: 0.00045299530029296875
ell 34, elapsed: 0.0003800392150878906
ell 33, elapsed: 0.00042700767517089844
ell 32, elapsed: 0.0004799365997314453
ell 31, elapsed: 0.000598907470703125
ell 30, elapsed: 0.00037980079650878906
ell 29, elapsed: 0.0004401206970214844
ell 28, elapsed: 0.00038313865661621094
ell 27, elapsed: 0.0004379749298095703
ell 26, elapsed: 0.0003859996795654297
ell 25, elapsed: 0.00044083595275878906
ell 24, elapsed: 0.00038504600524902344
ell 23, elapsed: 0.00044798851013183594
ell 22, elapsed: 0.00037789344787597656
ell 21, elapsed: 0.00045108795166015625
ell 20, elapsed: 0.0003838539123535156
ell 19, elapsed: 0.0004329681396484375
ell 18, elapsed: 0.00038504600524902344
ell 17, elapsed: 0.0004439353942871094
ell 16, elapsed: 0.00039696693420410156
ell 15, elapsed: 0.0004420280456542969
ell 14, elapsed: 0.00037217140197753906
ell 13, elapsed: 0.0004458427429199219
ell 12, elapsed: 0.0003619194030761719
ell 11, elapsed: 0.00042510032653808594
ell 10, elapsed: 0.0003731250762939453
ell 9, elapsed: 0.0004260540008544922
ell 8, elapsed: 0.00037288665771484375
ell 7, elapsed: 0.0004451274871826172
ell 6, elapsed: 0.0003669261932373047
ell 5, elapsed: 0.000431060791015625
ell 4, elapsed: 0.00036907196044921875
ell 3, elapsed: 0.00043010711669921875
ell 2, elapsed: 0.0003719329833984375
ell 1, elapsed: 0.000431060791015625
ell 0, elapsed: 0.0003669261932373047
  0.619956 seconds (57.03 k allocations: 2.784 MiB)
elapsed: 0.0005588531494140625
step:          0.065793 sec (0 allocations: 0 byte, 0.0% gc time)
swapping:      0.000754 sec (0 allocations: 0 byte, 0.0% gc time)
calc_Mellell!: 0.010522 sec (0 allocations: 0 byte, 0.0% gc time)
  t0 :  0.002488 sec (0 allocations: 0 byte, 0.0% gc time)
  tm2 : 0.089605 sec (0 allocations: 0 byte, 0.0% gc time)
  tm2s: 0.001789 sec (0 allocations: 0 byte, 0.0% gc time)
  tm4 : 0.229028 sec (0 allocations: 0 byte, 0.0% gc time)
  tp2 : 0.0 sec (0 allocations: 0 byte, 0.0% gc time)
  tp2s: 0.0 sec (0 allocations: 0 byte, 0.0% gc time)
  tp4 : 0.0 sec (0 allocations: 0 byte, 0.0% gc time)
calc_wtdll!:   0.34048 sec (9.879 k allocations: 1.044 MB, 0.0% gc time)
calc_wljj!:    0.042966 sec (689 allocations: 10.766 KB, 0.0% gc time)
mult_prefac!:  0.0 sec (0 allocations: 0 byte, 0.0% gc time)
convert:       0.0 sec (0 allocations: 0 byte, 0.0% gc time)
write:         0.04319 sec (0 allocations: 0 byte, 0.0% gc time)
test_rand_2f1: 0.0 sec (0 allocations: 0 byte, 0.0% gc time)
Closing outfile out/Ml21-cache.bin...   0.000044 seconds
  0.000597 seconds (52 allocations: 28.297 KiB)
make_phi():   0.002911 seconds (8.36 k allocations: 250.969 KiB)
  0.547732 seconds (890.35 k allocations: 65.617 MiB, 3.30% gc time)
tskip:       0.000943 sec (0 allocations: 0 byte, 0.0% gc time)
tread:       0.030069 sec (20 allocations: 10.703 KB, 0.0% gc time)
tmultphi:    0.013347 sec (0 allocations: 0 byte, 0.0% gc time)
tbrfft:      0.38353 sec (753.246 k allocations: 62.428 MB, 4.72% gc time)
tmultprefac: 0.038191 sec (1 allocations: 16 byte, 0.0% gc time)
toutfunc:    0.078732 sec (129.905 k allocations: 2.421 MB, 0.0% gc time)
Testing R=1.0 ... passed
Calculating fmax: 
  dlrec    = 4
  dlrecRg1 = -4
  q=1.1, R=0.9:	  0.708682 seconds (149.41 k allocations: 69.863 MiB, 13.94% gc time)

  0.709079 seconds (149.47 k allocations: 69.895 MiB, 13.93% gc time)
ℓ = 1202
Δℓ = 4
ΔℓRg1 = -4
N = 1600
q = 1.1
kmin = 1.0e-5
kmax = 100000.00000000004
χ0 = 0.023029999999999995
RR = RR.tsv
ℓmax = ℓmax.bin
f21 = f21.bin
kmin = 1.0e-5
kmax = 100000.0
dlrec    = 4
dlrecRg1 = -4
Output size: 5741568 bytes = 0.005347251892089844 GiB
Output size: 51264 bytes = 4.774332046508789e-5 GiB
Reading 'out/F21EllCache'...   0.001140 seconds (271 allocations: 84.719 KiB)
ellmax: 1202
lmaxcache: 1202
fell[:,1,1] = Complex{Float64}[1.3482014726274674e-57 - 3.302141236118086e-73im, 1.357860004724329e-57 - 3.3257978169518355e-73im]
ell 1202, elapsed: 2.002716064453125e-5
ell 1201, elapsed: 0.0004260540008544922
ell 1200, elapsed: 0.0003871917724609375
ell 1199, elapsed: 0.00039505958557128906
ell 1198, elapsed: 0.0004918575286865234
ell 1002, elapsed: 0.010973930358886719
ell 1001, elapsed: 0.0003669261932373047
ell 1000, elapsed: 0.0003390312194824219
ell 999, elapsed: 0.00042510032653808594
ell 998, elapsed: 0.0004849433898925781
ell 902, elapsed: 0.005497932434082031
ell 901, elapsed: 0.00035190582275390625
ell 900, elapsed: 0.0003509521484375
ell 899, elapsed: 0.000331878662109375
ell 898, elapsed: 0.00033402442932128906
ell 802, elapsed: 0.005579948425292969
ell 801, elapsed: 0.0003578662872314453
ell 800, elapsed: 0.0007481575012207031
ell 799, elapsed: 0.0004990100860595703
ell 798, elapsed: 0.0003390312194824219
ell 702, elapsed: 0.0049321651458740234
ell 701, elapsed: 0.0003619194030761719
ell 700, elapsed: 0.00034499168395996094
ell 699, elapsed: 0.0004279613494873047
ell 698, elapsed: 0.00042700767517089844
ell 602, elapsed: 0.005569934844970703
ell 601, elapsed: 0.00035500526428222656
ell 600, elapsed: 0.0004551410675048828
ell 599, elapsed: 0.00045013427734375
ell 598, elapsed: 0.000453948974609375
ell 502, elapsed: 0.005572795867919922
ell 501, elapsed: 0.00036978721618652344
ell 500, elapsed: 0.0003380775451660156
ell 499, elapsed: 0.0003390312194824219
ell 498, elapsed: 0.0003409385681152344
ell 402, elapsed: 0.0052947998046875
ell 401, elapsed: 0.0003578662872314453
ell 400, elapsed: 0.00033402442932128906
ell 399, elapsed: 0.0003371238708496094
ell 398, elapsed: 0.00033283233642578125
ell 302, elapsed: 0.005588054656982422
ell 301, elapsed: 0.0003590583801269531
ell 300, elapsed: 0.0003390312194824219
ell 299, elapsed: 0.0003349781036376953
ell 298, elapsed: 0.0003349781036376953
ell 202, elapsed: 0.005583047866821289
ell 201, elapsed: 0.0003600120544433594
ell 200, elapsed: 0.0004451274871826172
ell 199, elapsed: 0.0003368854522705078
ell 198, elapsed: 0.0003361701965332031
ell 152, elapsed: 0.002789020538330078
ell 151, elapsed: 0.0003628730773925781
ell 150, elapsed: 0.0003390312194824219
ell 149, elapsed: 0.00033092498779296875
ell 148, elapsed: 0.00032901763916015625
ell 127, elapsed: 0.0015358924865722656
ell 126, elapsed: 0.00034999847412109375
ell 125, elapsed: 0.00043702125549316406
ell 124, elapsed: 0.0003371238708496094
ell 123, elapsed: 0.0003349781036376953
ell 114, elapsed: 0.0008158683776855469
ell 113, elapsed: 0.00033283233642578125
ell 112, elapsed: 0.0003330707550048828
ell 111, elapsed: 0.00033402442932128906
ell 110, elapsed: 0.0004010200500488281
ell 102, elapsed: 0.001168966293334961
ell 101, elapsed: 0.00034117698669433594
ell 100, elapsed: 0.0003380775451660156
ell 99, elapsed: 0.00039005279541015625
ell 98, elapsed: 0.0005059242248535156
ell 97, elapsed: 0.00039696693420410156
ell 96, elapsed: 0.0004630088806152344
ell 95, elapsed: 0.00049591064453125
ell 94, elapsed: 0.0004489421844482422
ell 93, elapsed: 0.00038504600524902344
ell 92, elapsed: 0.0004467964172363281
ell 91, elapsed: 0.00038313865661621094
ell 90, elapsed: 0.0004489421844482422
ell 89, elapsed: 0.0003809928894042969
ell 88, elapsed: 0.0004439353942871094
ell 87, elapsed: 0.0003819465637207031
ell 86, elapsed: 0.0004520416259765625
ell 85, elapsed: 0.00038504600524902344
ell 84, elapsed: 0.0004489421844482422
ell 83, elapsed: 0.0003859996795654297
ell 82, elapsed: 0.00045108795166015625
ell 81, elapsed: 0.00036907196044921875
ell 80, elapsed: 0.0004279613494873047
ell 79, elapsed: 0.0005600452423095703
ell 78, elapsed: 0.0004930496215820312
ell 77, elapsed: 0.0003809928894042969
ell 76, elapsed: 0.0004191398620605469
ell 75, elapsed: 0.0005009174346923828
ell 74, elapsed: 0.0005431175231933594
ell 73, elapsed: 0.00038313865661621094
ell 72, elapsed: 0.0004401206970214844
ell 71, elapsed: 0.0003960132598876953
ell 70, elapsed: 0.0004410743713378906
ell 69, elapsed: 0.0003809928894042969
ell 68, elapsed: 0.0004208087921142578
ell 67, elapsed: 0.0003650188446044922
ell 66, elapsed: 0.0004329681396484375
ell 65, elapsed: 0.0003688335418701172
ell 64, elapsed: 0.00043702125549316406
ell 63, elapsed: 0.0004019737243652344
ell 62, elapsed: 0.0004489421844482422
ell 61, elapsed: 0.00037980079650878906
ell 60, elapsed: 0.0004467964172363281
ell 59, elapsed: 0.0005450248718261719
ell 58, elapsed: 0.000518798828125
ell 57, elapsed: 0.0003809928894042969
ell 56, elapsed: 0.0004489421844482422
ell 55, elapsed: 0.00047206878662109375
ell 54, elapsed: 0.0004429817199707031
ell 53, elapsed: 0.0003719329833984375
ell 52, elapsed: 0.0004489421844482422
ell 51, elapsed: 0.0003788471221923828
ell 50, elapsed: 0.0004448890686035156
ell 49, elapsed: 0.0003790855407714844
ell 48, elapsed: 0.00043201446533203125
ell 47, elapsed: 0.0003800392150878906
ell 46, elapsed: 0.0004410743713378906
ell 45, elapsed: 0.0003559589385986328
ell 44, elapsed: 0.00041103363037109375
ell 43, elapsed: 0.0003600120544433594
ell 42, elapsed: 0.00043082237243652344
ell 41, elapsed: 0.00036406517028808594
ell 40, elapsed: 0.0004279613494873047
ell 39, elapsed: 0.0003769397735595703
ell 38, elapsed: 0.0004658699035644531
ell 37, elapsed: 0.0003809928894042969
ell 36, elapsed: 0.0004410743713378906
ell 35, elapsed: 0.0005290508270263672
ell 34, elapsed: 0.0005087852478027344
ell 33, elapsed: 0.0003840923309326172
ell 32, elapsed: 0.0004520416259765625
ell 31, elapsed: 0.00038814544677734375
ell 30, elapsed: 0.0004620552062988281
ell 29, elapsed: 0.00038313865661621094
ell 28, elapsed: 0.00045108795166015625
ell 27, elapsed: 0.00045299530029296875
ell 26, elapsed: 0.0006070137023925781
ell 25, elapsed: 0.00038886070251464844
ell 24, elapsed: 0.00044798851013183594
ell 23, elapsed: 0.0003819465637207031
ell 22, elapsed: 0.000453948974609375
ell 21, elapsed: 0.00037479400634765625
ell 20, elapsed: 0.0004401206970214844
ell 19, elapsed: 0.0004630088806152344
ell 18, elapsed: 0.0006041526794433594
ell 17, elapsed: 0.00038123130798339844
ell 16, elapsed: 0.00044417381286621094
ell 15, elapsed: 0.0004031658172607422
ell 14, elapsed: 0.0004470348358154297
ell 13, elapsed: 0.0003859996795654297
ell 12, elapsed: 0.00045108795166015625
ell 11, elapsed: 0.0003859996795654297
ell 10, elapsed: 0.0004520416259765625
ell 9, elapsed: 0.0003859996795654297
ell 8, elapsed: 0.00045299530029296875
ell 7, elapsed: 0.0005178451538085938
ell 6, elapsed: 0.0005209445953369141
ell 5, elapsed: 0.0003800392150878906
ell 4, elapsed: 0.00044989585876464844
ell 3, elapsed: 0.0003848075866699219
ell 2, elapsed: 0.00045299530029296875
ell 1, elapsed: 0.00038504600524902344
ell 0, elapsed: 0.0004448890686035156
  0.137081 seconds (13.00 k allocations: 674.766 KiB)
elapsed: 0.0005359649658203125
step:          0.060943 sec (0 allocations: 0 byte, 0.0% gc time)
swapping:      0.000644 sec (0 allocations: 0 byte, 0.0% gc time)
calc_Mellell!: 0.001493 sec (0 allocations: 0 byte, 0.0% gc time)
  t0 :  0.000399 sec (0 allocations: 0 byte, 0.0% gc time)
  tm2 : 0.012162 sec (0 allocations: 0 byte, 0.0% gc time)
  tm2s: 0.000344 sec (0 allocations: 0 byte, 0.0% gc time)
  tm4 : 0.033087 sec (0 allocations: 0 byte, 0.0% gc time)
  tp2 : 0.0 sec (0 allocations: 0 byte, 0.0% gc time)
  tp2s: 0.0 sec (0 allocations: 0 byte, 0.0% gc time)
  tp4 : 0.0 sec (0 allocations: 0 byte, 0.0% gc time)
calc_wtdll!:   0.046658 sec (1.344 k allocations: 147.0 KB, 0.0% gc time)
calc_wljj!:    0.004297 sec (6 allocations: 96 byte, 0.0% gc time)
mult_prefac!:  0.0 sec (0 allocations: 0 byte, 0.0% gc time)
convert:       0.0 sec (0 allocations: 0 byte, 0.0% gc time)
write:         0.004412 sec (0 allocations: 0 byte, 0.0% gc time)
test_rand_2f1: 0.0 sec (0 allocations: 0 byte, 0.0% gc time)
Closing outfile out/Ml21-cache.bin...   0.000070 seconds
  0.000647 seconds (52 allocations: 28.297 KiB)
make_phi():   0.003388 seconds (8.36 k allocations: 250.984 KiB)
  0.096671 seconds (82.51 k allocations: 6.119 MiB)
tskip:       3.0e-5 sec (0 allocations: 0 byte, 0.0% gc time)
tread:       0.003335 sec (20 allocations: 2.188 KB, 0.0% gc time)
tmultphi:    0.001261 sec (0 allocations: 0 byte, 0.0% gc time)
tbrfft:      0.07726 sec (71.31 k allocations: 5.846 MB, 0.0% gc time)
tmultprefac: 0.003006 sec (0 allocations: 0 byte, 0.0% gc time)
toutfunc:    0.011652 sec (10.528 k allocations: 206.5 KB, 0.0% gc time)
Testing R=0.9 ... passed
Calculating fmax: 
  dlrec    = 4
  dlrecRg1 = -4
  q=1.1, R=0.8:	  0.708268 seconds (145.59 k allocations: 68.095 MiB, 25.26% gc time)

  0.708567 seconds (145.66 k allocations: 68.127 MiB, 25.25% gc time)
ℓ = 1202
Δℓ = 4
ΔℓRg1 = -4
N = 1600
q = 1.1
kmin = 1.0e-5
kmax = 100000.00000000004
χ0 = 0.023029999999999995
RR = RR.tsv
ℓmax = ℓmax.bin
f21 = f21.bin
kmin = 1.0e-5
kmax = 100000.0
dlrec    = 4
dlrecRg1 = -4
Output size: 5741568 bytes = 0.005347251892089844 GiB
Output size: 51264 bytes = 4.774332046508789e-5 GiB
Reading 'out/F21EllCache'...   0.001055 seconds (271 allocations: 84.719 KiB)
ellmax: 1202
lmaxcache: 1202
fell[:,1,1] = Complex{Float64}[7.519068145690986e-120 - 1.8416405474382574e-135im, 7.541664537386155e-120 - 1.847175067190611e-135im]
ell 1202, elapsed: 2.5033950805664062e-5
ell 1201, elapsed: 0.0003800392150878906
ell 1200, elapsed: 0.00033402442932128906
ell 1199, elapsed: 0.000331878662109375
ell 1198, elapsed: 0.00032591819763183594
ell 1002, elapsed: 0.01076197624206543
ell 1001, elapsed: 0.0003628730773925781
ell 1000, elapsed: 0.00033593177795410156
ell 999, elapsed: 0.00033783912658691406
ell 998, elapsed: 0.0003371238708496094
ell 902, elapsed: 0.0053310394287109375
ell 901, elapsed: 0.0003848075866699219
ell 900, elapsed: 0.0003418922424316406
ell 899, elapsed: 0.0003409385681152344
ell 898, elapsed: 0.0003380775451660156
ell 802, elapsed: 0.005316019058227539
ell 801, elapsed: 0.0003650188446044922
ell 800, elapsed: 0.0003459453582763672
ell 799, elapsed: 0.0003600120544433594
ell 798, elapsed: 0.0003418922424316406
ell 702, elapsed: 0.005040884017944336
ell 701, elapsed: 0.00036716461181640625
ell 700, elapsed: 0.00040602684020996094
ell 699, elapsed: 0.0003840923309326172
ell 698, elapsed: 0.0003771781921386719
ell 602, elapsed: 0.005200862884521484
ell 601, elapsed: 0.0004780292510986328
ell 600, elapsed: 0.000431060791015625
ell 599, elapsed: 0.0004401206970214844
ell 598, elapsed: 0.0004680156707763672
ell 502, elapsed: 0.005506992340087891
ell 501, elapsed: 0.000469207763671875
ell 500, elapsed: 0.00045299530029296875
ell 499, elapsed: 0.0003490447998046875
ell 498, elapsed: 0.00035691261291503906
ell 402, elapsed: 0.0052449703216552734
ell 401, elapsed: 0.00042891502380371094
ell 400, elapsed: 0.0003809928894042969
ell 399, elapsed: 0.0003819465637207031
ell 398, elapsed: 0.0003750324249267578
ell 302, elapsed: 0.00532221794128418
ell 301, elapsed: 0.0003719329833984375
ell 300, elapsed: 0.0003349781036376953
ell 299, elapsed: 0.00039505958557128906
ell 298, elapsed: 0.0003349781036376953
ell 202, elapsed: 0.005647897720336914
ell 201, elapsed: 0.0003528594970703125
ell 200, elapsed: 0.0003349781036376953
ell 199, elapsed: 0.00033593177795410156
ell 198, elapsed: 0.0006999969482421875
ell 152, elapsed: 0.0027718544006347656
ell 151, elapsed: 0.00033783912658691406
ell 150, elapsed: 0.0006861686706542969
ell 149, elapsed: 0.00033783912658691406
ell 148, elapsed: 0.00033283233642578125
ell 127, elapsed: 0.0015130043029785156
ell 126, elapsed: 0.00034308433532714844
ell 125, elapsed: 0.00033593177795410156
ell 124, elapsed: 0.00033402442932128906
ell 123, elapsed: 0.00034499168395996094
ell 114, elapsed: 0.0008089542388916016
ell 113, elapsed: 0.00033092498779296875
ell 112, elapsed: 0.00033092498779296875
ell 111, elapsed: 0.00033402442932128906
ell 110, elapsed: 0.0003371238708496094
ell 102, elapsed: 0.0012691020965576172
ell 101, elapsed: 0.0003368854522705078
ell 100, elapsed: 0.0003349781036376953
ell 99, elapsed: 0.00033402442932128906
ell 98, elapsed: 0.00033402442932128906
ell 97, elapsed: 0.0003790855407714844
ell 96, elapsed: 0.0004489421844482422
ell 95, elapsed: 0.0003809928894042969
ell 94, elapsed: 0.0005550384521484375
ell 93, elapsed: 0.00037598609924316406
ell 92, elapsed: 0.0004329681396484375
ell 91, elapsed: 0.00039505958557128906
ell 90, elapsed: 0.00045013427734375
ell 89, elapsed: 0.0005130767822265625
ell 88, elapsed: 0.0005037784576416016
ell 87, elapsed: 0.0003750324249267578
ell 86, elapsed: 0.0005910396575927734
ell 85, elapsed: 0.00037598609924316406
ell 84, elapsed: 0.00043511390686035156
ell 83, elapsed: 0.0003771781921386719
ell 82, elapsed: 0.0004379749298095703
ell 81, elapsed: 0.00037598609924316406
ell 80, elapsed: 0.00043892860412597656
ell 79, elapsed: 0.0003819465637207031
ell 78, elapsed: 0.0005900859832763672
ell 77, elapsed: 0.0003819465637207031
ell 76, elapsed: 0.00043010711669921875
ell 75, elapsed: 0.0003750324249267578
ell 74, elapsed: 0.00043892860412597656
ell 73, elapsed: 0.00036907196044921875
ell 72, elapsed: 0.00043487548828125
ell 71, elapsed: 0.0003790855407714844
ell 70, elapsed: 0.00043892860412597656
ell 69, elapsed: 0.0003790855407714844
ell 68, elapsed: 0.0004420280456542969
ell 67, elapsed: 0.00037598609924316406
ell 66, elapsed: 0.0004429817199707031
ell 65, elapsed: 0.00037598609924316406
ell 64, elapsed: 0.0004439353942871094
ell 63, elapsed: 0.00037097930908203125
ell 62, elapsed: 0.00043082237243652344
ell 61, elapsed: 0.0005178451538085938
ell 60, elapsed: 0.0004420280456542969
ell 59, elapsed: 0.0003781318664550781
ell 58, elapsed: 0.0004379749298095703
ell 57, elapsed: 0.00037598609924316406
ell 56, elapsed: 0.00043201446533203125
ell 55, elapsed: 0.00037479400634765625
ell 54, elapsed: 0.0004451274871826172
ell 53, elapsed: 0.0007250308990478516
ell 52, elapsed: 0.000431060791015625
ell 51, elapsed: 0.00038313865661621094
ell 50, elapsed: 0.0004558563232421875
ell 49, elapsed: 0.00037407875061035156
ell 48, elapsed: 0.00043892860412597656
ell 47, elapsed: 0.0005269050598144531
ell 46, elapsed: 0.0008709430694580078
ell 45, elapsed: 0.00035691261291503906
ell 44, elapsed: 0.0004360675811767578
ell 43, elapsed: 0.00037407875061035156
ell 42, elapsed: 0.00043892860412597656
ell 41, elapsed: 0.0003750324249267578
ell 40, elapsed: 0.0004429817199707031
ell 39, elapsed: 0.0003619194030761719
[...]
ell 782, elapsed: 0.0016210079193115234
ell 781, elapsed: 0.0008530616760253906
ell 780, elapsed: 0.0008509159088134766
ell 779, elapsed: 0.0008208751678466797
ell 778, elapsed: 0.000823974609375
ell 772, elapsed: 0.0016040802001953125
ell 771, elapsed: 0.0008220672607421875
ell 770, elapsed: 0.0008270740509033203
ell 769, elapsed: 0.0008249282836914062
ell 768, elapsed: 0.0008389949798583984
ell 762, elapsed: 0.001605987548828125
ell 761, elapsed: 0.0008249282836914062
ell 760, elapsed: 0.0008270740509033203
ell 759, elapsed: 0.000823974609375
ell 758, elapsed: 0.0008308887481689453
ell 752, elapsed: 0.0016279220581054688
ell 751, elapsed: 0.00084686279296875
ell 750, elapsed: 0.0008199214935302734
ell 749, elapsed: 0.0009050369262695312
ell 748, elapsed: 0.0009000301361083984
ell 742, elapsed: 0.0011239051818847656
ell 741, elapsed: 0.0006129741668701172
ell 740, elapsed: 0.0006151199340820312
ell 739, elapsed: 0.0006031990051269531
ell 738, elapsed: 0.0006070137023925781
ell 732, elapsed: 0.0016200542449951172
ell 731, elapsed: 0.000843048095703125
ell 730, elapsed: 0.000843048095703125
ell 729, elapsed: 0.0008530616760253906
ell 728, elapsed: 0.0008509159088134766
ell 722, elapsed: 0.0016300678253173828
ell 721, elapsed: 0.0008420944213867188
ell 720, elapsed: 0.0008652210235595703
ell 719, elapsed: 0.0008318424224853516
ell 718, elapsed: 0.0008311271667480469
ell 712, elapsed: 0.0016200542449951172
ell 711, elapsed: 0.0008800029754638672
ell 710, elapsed: 0.0009009838104248047
ell 709, elapsed: 0.0008800029754638672
ell 708, elapsed: 0.0008950233459472656
ell 702, elapsed: 0.0016968250274658203
ell 701, elapsed: 0.0008919239044189453
ell 700, elapsed: 0.0008909702301025391
ell 699, elapsed: 0.0008912086486816406
ell 698, elapsed: 0.0008900165557861328
ell 692, elapsed: 0.0016889572143554688
ell 691, elapsed: 0.0008690357208251953
ell 690, elapsed: 0.0008769035339355469
ell 689, elapsed: 0.0008709430694580078
ell 688, elapsed: 0.0008330345153808594
ell 682, elapsed: 0.0016350746154785156
ell 681, elapsed: 0.0008299350738525391
ell 680, elapsed: 0.0008208751678466797
ell 679, elapsed: 0.0008311271667480469
ell 678, elapsed: 0.0008399486541748047
ell 672, elapsed: 0.0016360282897949219
ell 671, elapsed: 0.000823974609375
ell 670, elapsed: 0.0008838176727294922
ell 669, elapsed: 0.0008709430694580078
ell 668, elapsed: 0.0008780956268310547
ell 662, elapsed: 0.0017130374908447266
ell 661, elapsed: 0.0008311271667480469
ell 660, elapsed: 0.0008280277252197266
ell 659, elapsed: 0.0008220672607421875
ell 658, elapsed: 0.0008471012115478516
ell 652, elapsed: 0.0016379356384277344
ell 651, elapsed: 0.0008311271667480469
ell 650, elapsed: 0.0008211135864257812
ell 649, elapsed: 0.0008249282836914062
ell 648, elapsed: 0.0008158683776855469
ell 642, elapsed: 0.0015931129455566406
ell 641, elapsed: 0.0008411407470703125
ell 640, elapsed: 0.0008230209350585938
ell 639, elapsed: 0.0008060932159423828
ell 638, elapsed: 0.0008180141448974609
ell 632, elapsed: 0.0016758441925048828
ell 631, elapsed: 0.0008111000061035156
ell 630, elapsed: 0.0008339881896972656
ell 629, elapsed: 0.0008211135864257812
ell 628, elapsed: 0.0008389949798583984
ell 622, elapsed: 0.0015799999237060547
ell 621, elapsed: 0.0008270740509033203
ell 620, elapsed: 0.0008268356323242188
ell 619, elapsed: 0.0008380413055419922
ell 618, elapsed: 0.0008280277252197266
ell 612, elapsed: 0.0016150474548339844
ell 611, elapsed: 0.0008361339569091797
ell 610, elapsed: 0.0008330345153808594
ell 609, elapsed: 0.0008108615875244141
ell 608, elapsed: 0.000823974609375
ell 602, elapsed: 0.0016369819641113281
ell 601, elapsed: 0.0008261203765869141
ell 600, elapsed: 0.0008261203765869141
ell 599, elapsed: 0.0008208751678466797
ell 598, elapsed: 0.0008380413055419922
ell 592, elapsed: 0.0015940666198730469
ell 591, elapsed: 0.0008249282836914062
ell 590, elapsed: 0.0008258819580078125
ell 589, elapsed: 0.0008358955383300781
ell 588, elapsed: 0.0008208751678466797
ell 582, elapsed: 0.0015761852264404297
ell 581, elapsed: 0.0008220672607421875
ell 580, elapsed: 0.0008440017700195312
ell 579, elapsed: 0.0008280277252197266
ell 578, elapsed: 0.0008289813995361328
ell 572, elapsed: 0.0016222000122070312
ell 571, elapsed: 0.0008242130279541016
ell 570, elapsed: 0.0008261203765869141
ell 569, elapsed: 0.0008180141448974609
ell 568, elapsed: 0.0008227825164794922
ell 562, elapsed: 0.0016150474548339844
ell 561, elapsed: 0.0008280277252197266
ell 560, elapsed: 0.0008358955383300781
ell 559, elapsed: 0.0008399486541748047
ell 558, elapsed: 0.0008258819580078125
ell 552, elapsed: 0.0016069412231445312
ell 551, elapsed: 0.0008997917175292969
ell 550, elapsed: 0.000885009765625
ell 549, elapsed: 0.0008089542388916016
ell 548, elapsed: 0.0007929801940917969
ell 542, elapsed: 0.0015938282012939453
ell 541, elapsed: 0.0008959770202636719
ell 540, elapsed: 0.0008938312530517578
ell 539, elapsed: 0.0008859634399414062
ell 538, elapsed: 0.0008921623229980469
ell 532, elapsed: 0.0015749931335449219
ell 531, elapsed: 0.0007960796356201172
ell 530, elapsed: 0.0008020401000976562
ell 529, elapsed: 0.0008149147033691406
ell 528, elapsed: 0.0008389949798583984
ell 522, elapsed: 0.0016219615936279297
ell 521, elapsed: 0.0008211135864257812
ell 520, elapsed: 0.0008661746978759766
ell 519, elapsed: 0.0008220672607421875
ell 518, elapsed: 0.000762939453125
ell 512, elapsed: 0.0014889240264892578
ell 511, elapsed: 0.0008091926574707031
ell 510, elapsed: 0.0008058547973632812
ell 509, elapsed: 0.000823974609375
ell 508, elapsed: 0.0008251667022705078
ell 502, elapsed: 0.001634836196899414
ell 501, elapsed: 0.0008440017700195312
ell 500, elapsed: 0.000865936279296875
ell 499, elapsed: 0.0008831024169921875
ell 498, elapsed: 0.0008809566497802734
ell 492, elapsed: 0.0016880035400390625
ell 491, elapsed: 0.0008449554443359375
ell 490, elapsed: 0.0008428096771240234
ell 489, elapsed: 0.0008208751678466797
ell 488, elapsed: 0.0008208751678466797
ell 482, elapsed: 0.0016329288482666016
ell 481, elapsed: 0.0008370876312255859
ell 480, elapsed: 0.000827789306640625
ell 479, elapsed: 0.000949859619140625
ell 478, elapsed: 0.0008320808410644531
ell 472, elapsed: 0.0016140937805175781
ell 471, elapsed: 0.0008521080017089844
ell 470, elapsed: 0.000823974609375
ell 469, elapsed: 0.0008289813995361328
ell 468, elapsed: 0.0008230209350585938
ell 462, elapsed: 0.0016231536865234375
ell 461, elapsed: 0.0008320808410644531
ell 460, elapsed: 0.0008289813995361328
ell 459, elapsed: 0.0008280277252197266
ell 458, elapsed: 0.0008399486541748047
ell 452, elapsed: 0.0015959739685058594
ell 451, elapsed: 0.0008199214935302734
ell 450, elapsed: 0.0008361339569091797
ell 449, elapsed: 0.0008330345153808594
ell 448, elapsed: 0.0008330345153808594
ell 442, elapsed: 0.0018100738525390625
ell 441, elapsed: 0.0007910728454589844
ell 440, elapsed: 0.0008242130279541016
ell 439, elapsed: 0.0008249282836914062
ell 438, elapsed: 0.0008261203765869141
ell 432, elapsed: 0.0016090869903564453
ell 431, elapsed: 0.0008218288421630859
ell 430, elapsed: 0.0008218288421630859
ell 429, elapsed: 0.0007719993591308594
ell 428, elapsed: 0.0007541179656982422
ell 422, elapsed: 0.001544952392578125
ell 421, elapsed: 0.0007941722869873047
ell 420, elapsed: 0.0008249282836914062
ell 419, elapsed: 0.0008327960968017578
ell 418, elapsed: 0.0008189678192138672
ell 412, elapsed: 0.0015869140625
ell 411, elapsed: 0.0008270740509033203
ell 410, elapsed: 0.0007748603820800781
ell 409, elapsed: 0.0008320808410644531
ell 408, elapsed: 0.0008800029754638672
ell 402, elapsed: 0.0017399787902832031
ell 401, elapsed: 0.0009360313415527344
ell 400, elapsed: 0.0008730888366699219
ell 399, elapsed: 0.0008790493011474609
ell 398, elapsed: 0.0009200572967529297
ell 392, elapsed: 0.0016360282897949219
ell 391, elapsed: 0.0008749961853027344
ell 390, elapsed: 0.0008640289306640625
ell 389, elapsed: 0.0008740425109863281
ell 388, elapsed: 0.0008950233459472656
ell 382, elapsed: 0.0016589164733886719
ell 381, elapsed: 0.0008709430694580078
ell 380, elapsed: 0.0009541511535644531
ell 379, elapsed: 0.0009210109710693359
ell 378, elapsed: 0.0009398460388183594
ell 372, elapsed: 0.001744985580444336
ell 371, elapsed: 0.0009288787841796875
ell 370, elapsed: 0.000946044921875
ell 369, elapsed: 0.0009298324584960938
ell 368, elapsed: 0.0008711814880371094
ell 362, elapsed: 0.0016541481018066406
ell 361, elapsed: 0.0008540153503417969
ell 360, elapsed: 0.0009028911590576172
ell 359, elapsed: 0.0008609294891357422
ell 358, elapsed: 0.0008699893951416016
ell 352, elapsed: 0.0016498565673828125
ell 351, elapsed: 0.0008628368377685547
ell 350, elapsed: 0.0008509159088134766
ell 349, elapsed: 0.0008289813995361328
ell 348, elapsed: 0.0008571147918701172
ell 342, elapsed: 0.0016548633575439453
ell 341, elapsed: 0.0008559226989746094
ell 340, elapsed: 0.0009248256683349609
ell 339, elapsed: 0.0009279251098632812
ell 338, elapsed: 0.0009169578552246094
ell 332, elapsed: 0.001644134521484375
ell 331, elapsed: 0.0008618831634521484
ell 330, elapsed: 0.0008502006530761719
ell 329, elapsed: 0.0008318424224853516
ell 328, elapsed: 0.0008561611175537109
ell 322, elapsed: 0.001651763916015625
ell 321, elapsed: 0.0008358955383300781
ell 320, elapsed: 0.0008418560028076172
ell 319, elapsed: 0.0008611679077148438
ell 318, elapsed: 0.0008499622344970703
ell 312, elapsed: 0.001611948013305664
ell 311, elapsed: 0.0008451938629150391
ell 310, elapsed: 0.0008699893951416016
ell 309, elapsed: 0.0008490085601806641
ell 308, elapsed: 0.0008330345153808594
ell 302, elapsed: 0.0016529560089111328
ell 301, elapsed: 0.0008299350738525391
ell 300, elapsed: 0.0008690357208251953
ell 299, elapsed: 0.0008339881896972656
ell 298, elapsed: 0.0008568763732910156
ell 292, elapsed: 0.0016360282897949219
ell 291, elapsed: 0.0008440017700195312
ell 290, elapsed: 0.0008330345153808594
ell 289, elapsed: 0.0008709430694580078
ell 288, elapsed: 0.0008640289306640625
ell 282, elapsed: 0.0016341209411621094
ell 281, elapsed: 0.000865936279296875
ell 280, elapsed: 0.0008599758148193359
ell 279, elapsed: 0.0008459091186523438
ell 278, elapsed: 0.0008490085601806641
ell 272, elapsed: 0.0016319751739501953
ell 271, elapsed: 0.0008521080017089844
ell 270, elapsed: 0.0008289813995361328
ell 269, elapsed: 0.0008249282836914062
ell 268, elapsed: 0.000865936279296875
ell 262, elapsed: 0.0016241073608398438
ell 261, elapsed: 0.0008490085601806641
ell 260, elapsed: 0.0008540153503417969
ell 259, elapsed: 0.00086212158203125
ell 258, elapsed: 0.0008540153503417969
ell 252, elapsed: 0.001608133316040039
ell 251, elapsed: 0.0008292198181152344
ell 250, elapsed: 0.0008490085601806641
ell 249, elapsed: 0.0008480548858642578
ell 248, elapsed: 0.0008580684661865234
ell 242, elapsed: 0.0016131401062011719
ell 241, elapsed: 0.0008540153503417969
ell 240, elapsed: 0.0008502006530761719
ell 239, elapsed: 0.0008540153503417969
ell 238, elapsed: 0.0008358955383300781
ell 232, elapsed: 0.0015978813171386719
ell 231, elapsed: 0.0008599758148193359
ell 230, elapsed: 0.0008490085601806641
ell 229, elapsed: 0.0008478164672851562
ell 228, elapsed: 0.0008301734924316406
ell 222, elapsed: 0.0016291141510009766
ell 221, elapsed: 0.0008518695831298828
ell 220, elapsed: 0.0008540153503417969
ell 219, elapsed: 0.0008411407470703125
ell 218, elapsed: 0.0008599758148193359
ell 212, elapsed: 0.0016198158264160156
ell 211, elapsed: 0.0008471012115478516
ell 210, elapsed: 0.0008530616760253906
ell 209, elapsed: 0.0008499622344970703
ell 208, elapsed: 0.0008480548858642578
ell 202, elapsed: 0.001641988754272461
ell 201, elapsed: 0.0008540153503417969
ell 200, elapsed: 0.0008389949798583984
ell 199, elapsed: 0.0008280277252197266
ell 198, elapsed: 0.0008509159088134766
ell 192, elapsed: 0.0016379356384277344
ell 191, elapsed: 0.0008499622344970703
ell 190, elapsed: 0.0008530616760253906
ell 189, elapsed: 0.0008571147918701172
ell 188, elapsed: 0.0008461475372314453
ell 182, elapsed: 0.0016410350799560547
ell 181, elapsed: 0.0008718967437744141
ell 180, elapsed: 0.0008311271667480469
ell 179, elapsed: 0.0008311271667480469
ell 178, elapsed: 0.0008230209350585938
ell 172, elapsed: 0.0016469955444335938
ell 171, elapsed: 0.0008230209350585938
ell 170, elapsed: 0.0008258819580078125
ell 169, elapsed: 0.0008180141448974609
ell 168, elapsed: 0.0008459091186523438
ell 162, elapsed: 0.0015850067138671875
ell 161, elapsed: 0.0008111000061035156
ell 160, elapsed: 0.000820159912109375
ell 159, elapsed: 0.000823974609375
ell 158, elapsed: 0.0008170604705810547
ell 152, elapsed: 0.001619100570678711
ell 151, elapsed: 0.0008218288421630859
ell 150, elapsed: 0.0008378028869628906
ell 149, elapsed: 0.000820159912109375
ell 148, elapsed: 0.0008270740509033203
ell 142, elapsed: 0.0016248226165771484
ell 141, elapsed: 0.0008168220520019531
ell 140, elapsed: 0.0008180141448974609
ell 139, elapsed: 0.0008080005645751953
ell 138, elapsed: 0.0008151531219482422
ell 132, elapsed: 0.0016169548034667969
ell 131, elapsed: 0.0008230209350585938
ell 130, elapsed: 0.0008518695831298828
ell 129, elapsed: 0.0008368492126464844
ell 128, elapsed: 0.0008208751678466797
ell 122, elapsed: 0.0016031265258789062
ell 121, elapsed: 0.000820159912109375
ell 120, elapsed: 0.0008370876312255859
ell 119, elapsed: 0.0008199214935302734
ell 118, elapsed: 0.000823974609375
ell 112, elapsed: 0.0016407966613769531
ell 111, elapsed: 0.0008420944213867188
ell 110, elapsed: 0.0008249282836914062
ell 109, elapsed: 0.0008230209350585938
ell 108, elapsed: 0.0008299350738525391
ell 102, elapsed: 0.0016489028930664062
ell 101, elapsed: 0.003056049346923828
ell 100, elapsed: 0.0030519962310791016
ell 99, elapsed: 0.0030791759490966797
ell 98, elapsed: 0.0030798912048339844
ell 92, elapsed: 0.005837917327880859
ell 91, elapsed: 0.0030689239501953125
ell 90, elapsed: 0.0030498504638671875
ell 89, elapsed: 0.0030851364135742188
ell 88, elapsed: 0.0030829906463623047
ell 82, elapsed: 0.005743980407714844
ell 81, elapsed: 0.0031299591064453125
ell 80, elapsed: 0.003175973892211914
ell 79, elapsed: 0.003155946731567383
ell 78, elapsed: 0.003126859664916992
ell 72, elapsed: 0.005767107009887695
ell 71, elapsed: 0.003119945526123047
ell 70, elapsed: 0.003108978271484375
ell 69, elapsed: 0.003139972686767578
ell 68, elapsed: 0.0030951499938964844
ell 62, elapsed: 0.005928993225097656
ell 61, elapsed: 0.0030698776245117188
ell 60, elapsed: 0.003184080123901367
ell 59, elapsed: 0.003111124038696289
ell 58, elapsed: 0.00339508056640625
ell 52, elapsed: 0.00574493408203125
ell 51, elapsed: 0.0030410289764404297
ell 50, elapsed: 0.0033500194549560547
ell 49, elapsed: 0.0030770301818847656
ell 48, elapsed: 0.003100156784057617
ell 42, elapsed: 0.00570988655090332
ell 41, elapsed: 0.0034661293029785156
ell 40, elapsed: 0.0030918121337890625
ell 39, elapsed: 0.0031080245971679688
ell 38, elapsed: 0.0033168792724609375
ell 32, elapsed: 0.005975008010864258
ell 31, elapsed: 0.003325939178466797
ell 30, elapsed: 0.0032448768615722656
ell 29, elapsed: 0.0032410621643066406
ell 28, elapsed: 0.003133058547973633
ell 22, elapsed: 0.005892038345336914
ell 21, elapsed: 0.00304412841796875
ell 20, elapsed: 0.0031430721282958984
ell 19, elapsed: 0.003122091293334961
ell 18, elapsed: 0.0031511783599853516
ell 12, elapsed: 0.005956888198852539
ell 11, elapsed: 0.0031280517578125
ell 10, elapsed: 0.003091096878051758
ell 9, elapsed: 0.0030531883239746094
ell 8, elapsed: 0.003153085708618164
  0.848701 seconds (74.16 k allocations: 12.051 MiB, 0.70% gc time)
elapsed: 0.004958152770996094
step:          0.074879 sec (0 allocations: 0 byte, 0.0% gc time)
swapping:      0.000771 sec (0 allocations: 0 byte, 0.0% gc time)
calc_Mellell!: 0.040183 sec (0 allocations: 0 byte, 0.0% gc time)
  t0 :  0.009731 sec (0 allocations: 0 byte, 0.0% gc time)
  tm2 : 0.06964 sec (0 allocations: 0 byte, 0.0% gc time)
  tm2s: 0.008662 sec (0 allocations: 0 byte, 0.0% gc time)
  tm4 : 0.188927 sec (0 allocations: 0 byte, 0.0% gc time)
  tp2 : 0.0 sec (0 allocations: 0 byte, 0.0% gc time)
  tp2s: 0.0 sec (0 allocations: 0 byte, 0.0% gc time)
  tp4 : 0.0 sec (0 allocations: 0 byte, 0.0% gc time)
calc_wtdll!:   0.522151 sec (49.2 k allocations: 11.133 MB, 1.14% gc time)
calc_wljj!:    0.043293 sec (69 allocations: 1.078 KB, 0.0% gc time)
mult_prefac!:  0.0 sec (0 allocations: 0 byte, 0.0% gc time)
convert:       0.0 sec (0 allocations: 0 byte, 0.0% gc time)
write:         0.03058 sec (0 allocations: 0 byte, 0.0% gc time)
test_rand_2f1: 0.0 sec (0 allocations: 0 byte, 0.0% gc time)
Closing outfile out/MlCache/MlCache.bin...   0.000009 seconds
xi, l=0, nu=0:   0.400261 seconds (556.30 k allocations: 27.095 MiB, 3.77% gc time)
xi, l=0, nu=-2:  0.007032 seconds (491 allocations: 178.141 KiB)
Created 'out/xi.tsv'.
  q=1.1, R=0.6:	  1.110689 seconds (373.06 k allocations: 174.511 MiB, 2.86% gc time)
  q=1.1, R=0.7:	  1.358422 seconds (391.29 k allocations: 182.916 MiB, 4.30% gc time)
  q=1.1, R=0.8:	  1.319566 seconds (383.81 k allocations: 179.466 MiB, 1.70% gc time)
  q=1.1, R=0.9:	  1.503533 seconds (376.40 k allocations: 176.056 MiB, 1.43% gc time)
  q=1.1, R=0.998:	 19.657897 seconds (10.67 M allocations: 831.832 MiB, 0.31% gc time)
  q=1.1, R=1.0:	  0.037400 seconds (12.29 k allocations: 9.129 MiB)

ℓ = 1000
Δℓ = 4
ΔℓRg1 = -4
N = 4096
q = 1.1
kmin = 1.0e-5
kmax = 1000.0
χ0 = 0.001
RR = RR.tsv
ℓmax = ℓmax.bin
f21 = f21.bin
kmin = 1.0e-5
kmax = 1000.0
dlrec    = 4
dlrecRg1 = -4
Output size: 1573632 bytes = 0.0014655590057373047 GiB
Output size: 786816 bytes = 0.0007327795028686523 GiB
Reading 'out/F21EllCache'...   0.001402 seconds (272 allocations: 533.594 KiB)
ellmax: 1002
lmaxcache: 1000
fell[:,1,1] = Complex{Float64}[1.7262928128202118e-224 - 4.2281979352226944e-240im, 1.7282693092099662e-224 - 4.233038955177176e-240im]
ell 1002, elapsed: 3.790855407714844e-5
ell 1001, elapsed: 0.0008280277252197266
ell 1000, elapsed: 0.000782012939453125
ell 999, elapsed: 0.004960060119628906
ell 998, elapsed: 0.004937887191772461
ell 44, elapsed: 0.661099910736084
ell 43, elapsed: 0.0049800872802734375
ell 42, elapsed: 0.0051441192626953125
ell 41, elapsed: 0.00492095947265625
ell 40, elapsed: 0.005740165710449219
  0.700380 seconds (4.65 k allocations: 318.469 KiB)
elapsed: 0.006314992904663086
step:          0.658368 sec (0 allocations: 0 byte, 0.0% gc time)
swapping:      0.000667 sec (0 allocations: 0 byte, 0.0% gc time)
calc_Mellell!: 0.00117 sec (0 allocations: 0 byte, 0.0% gc time)
  t0 :  0.000372 sec (0 allocations: 0 byte, 0.0% gc time)
  tm2 : 0.00906 sec (0 allocations: 0 byte, 0.0% gc time)
  tm2s: 0.000282 sec (0 allocations: 0 byte, 0.0% gc time)
  tm4 : 0.024195 sec (0 allocations: 0 byte, 0.0% gc time)
  tp2 : 0.0 sec (0 allocations: 0 byte, 0.0% gc time)
  tp2s: 0.0 sec (0 allocations: 0 byte, 0.0% gc time)
  tp4 : 0.0 sec (0 allocations: 0 byte, 0.0% gc time)
calc_wtdll!:   0.034105 sec (480 allocations: 52.5 KB, 0.0% gc time)
calc_wljj!:    0.001183 sec (1 allocations: 16 byte, 0.0% gc time)
mult_prefac!:  0.0 sec (0 allocations: 0 byte, 0.0% gc time)
convert:       0.0 sec (0 allocations: 0 byte, 0.0% gc time)
write:         0.00093 sec (0 allocations: 0 byte, 0.0% gc time)
test_rand_2f1: 0.0 sec (0 allocations: 0 byte, 0.0% gc time)
Closing outfile out/MlCache/MlCache.bin...   0.000009 seconds
  1.234361 seconds (755.72 k allocations: 61.245 MiB, 1.49% gc time)
make_phi():   0.018840 seconds (267 allocations: 291.563 KiB)
  0.006193 seconds (7.63 k allocations: 642.422 KiB)
tskip:       1.0e-6 sec (0 allocations: 0 byte, 0.0% gc time)
tread:       0.000857 sec (20 allocations: 1.328 KB, 0.0% gc time)
tmultphi:    0.000229 sec (0 allocations: 0 byte, 0.0% gc time)
tbrfft:      0.004498 sec (7.623 k allocations: 641.109 KB, 0.0% gc time)
tmultprefac: 0.000649 sec (0 allocations: 0 byte, 0.0% gc time)
toutfunc:    8.1e-5 sec (0 allocations: 0 byte, 0.0% gc time)
Created 'out/wl42_jj00.tsv'.
Created 'out/wl42_jj02.tsv'.
   Testing TwoFAST tests passed 
