Julia Version 1.4.0-rc1.4
Commit 3ac20f95d0 (2020-01-26 14:15 UTC)
Platform Info:
  OS: Linux (x86_64-linux-gnu)
  CPU: Intel(R) Xeon(R) Silver 4114 CPU @ 2.20GHz
  WORD_SIZE: 64
  LIBM: libopenlibm
  LLVM: libLLVM-8.0.1 (ORCJIT, skylake)
Environment:
  JULIA_DEPOT_PATH = ::/usr/local/share/julia
  JULIA_NUM_THREADS = 2

  Resolving package versions...
  Installed URIParser ──────── v0.4.0
  Installed FFTW_jll ───────── v3.3.9+3
  Installed IncGammaBeta ───── v0.1.0
  Installed FFTW ───────────── v1.2.0
  Installed BinDeps ────────── v1.0.0
  Installed BinaryProvider ─── v0.5.8
  Installed Nemo ───────────── v0.15.1
  Installed Reexport ───────── v0.2.0
  Installed SpecialFunctions ─ v0.8.0
  Installed IntelOpenMP_jll ── v2018.0.3+0
  Installed AbstractFFTs ───── v0.5.0
  Installed MKL_jll ────────── v2019.0.117+2
  Installed TwoFAST ────────── v0.1.0
  Installed AbstractAlgebra ── v0.7.1
#=#=#                                                                                                                                                    0.7%######################################################################## 100.0%
#=#=#                                                                         #                                                                          2.3%######################################################################## 100.0%
   Updating `~/.julia/environments/v1.4/Project.toml`
  [0dd23c3e] + TwoFAST v0.1.0
   Updating `~/.julia/environments/v1.4/Manifest.toml`
  [c3fe647b] + AbstractAlgebra v0.7.1
  [621f4979] + AbstractFFTs v0.5.0
  [9e28174c] + BinDeps v1.0.0
  [b99e7846] + BinaryProvider v0.5.8
  [7a1cc6ca] + FFTW v1.2.0
  [f5851436] + FFTW_jll v3.3.9+3
  [5087d2c0] + IncGammaBeta v0.1.0
  [1d5cc7b8] + IntelOpenMP_jll v2018.0.3+0
  [856f044c] + MKL_jll v2019.0.117+2
  [2edaba10] + Nemo v0.15.1
  [189a3867] + Reexport v0.2.0
  [276daf66] + SpecialFunctions v0.8.0
  [0dd23c3e] + TwoFAST v0.1.0
  [30578b45] + URIParser v0.4.0
  [2a0f44e3] + Base64 
  [ade2ca70] + Dates 
  [8bb1440f] + DelimitedFiles 
  [8ba89e20] + Distributed 
  [b77e0a4c] + InteractiveUtils 
  [76f85450] + LibGit2 
  [8f399da3] + Libdl 
  [37e2e46d] + LinearAlgebra 
  [56ddb016] + Logging 
  [d6f4376e] + Markdown 
  [a63ad114] + Mmap 
  [44cfe95a] + Pkg 
  [de0858da] + Printf 
  [3fa0cd96] + REPL 
  [9a3f8284] + Random 
  [ea8e919c] + SHA 
  [9e88b42a] + Serialization 
  [6462fe0b] + Sockets 
  [2f01184e] + SparseArrays 
  [8dfed614] + Test 
  [cf7118a7] + UUIDs 
  [4ec0a83e] + Unicode 
   Building Nemo ────────────→ `~/.julia/packages/Nemo/qzx0m/deps/build.log`
   Building FFTW ────────────→ `~/.julia/packages/FFTW/qqcBj/deps/build.log`
   Building SpecialFunctions → `~/.julia/packages/SpecialFunctions/ne2iw/deps/build.log`
    Testing TwoFAST
Status `/tmp/jl_N3kV0q/Manifest.toml`
  [c3fe647b] AbstractAlgebra v0.7.1
  [621f4979] AbstractFFTs v0.5.0
  [9e28174c] BinDeps v1.0.0
  [b99e7846] BinaryProvider v0.5.8
  [39dd38d3] Dierckx v0.4.1
  [7a1cc6ca] FFTW v1.2.0
  [f5851436] FFTW_jll v3.3.9+3
  [5087d2c0] IncGammaBeta v0.1.0
  [1d5cc7b8] IntelOpenMP_jll v2018.0.3+0
  [856f044c] MKL_jll v2019.0.117+2
  [2edaba10] Nemo v0.15.1
  [189a3867] Reexport v0.2.0
  [276daf66] SpecialFunctions v0.8.0
  [0dd23c3e] TwoFAST v0.1.0
  [30578b45] URIParser v0.4.0
  [2a0f44e3] Base64 
  [ade2ca70] Dates 
  [8bb1440f] DelimitedFiles 
  [8ba89e20] Distributed 
  [b77e0a4c] InteractiveUtils 
  [76f85450] LibGit2 
  [8f399da3] Libdl 
  [37e2e46d] LinearAlgebra 
  [56ddb016] Logging 
  [d6f4376e] Markdown 
  [a63ad114] Mmap 
  [44cfe95a] Pkg 
  [de0858da] Printf 
  [3fa0cd96] REPL 
  [9a3f8284] Random 
  [ea8e919c] SHA 
  [9e88b42a] Serialization 
  [6462fe0b] Sockets 
  [2f01184e] SparseArrays 
  [8dfed614] Test 
  [cf7118a7] UUIDs 
  [4ec0a83e] Unicode 

Welcome to Nemo version 0.15.1

Nemo comes with absolutely no warranty whatsoever


Welcome to Nemo version 0.15.1

Nemo comes with absolutely no warranty whatsoever

Testing ξ(r), ℓ=0, ν=-1 ... passed
Testing ξ(r), ℓ=0, ν=0 ... passed
Testing ξ(r), ℓ=0, ν=1 ... passed
Testing ξ(r), ℓ=0, ν=2 ... passed
Testing ξ(r), ℓ=0, ν=3 ... passed
Testing ξ(r), ℓ=1, ν=0 ... passed
Testing ξ(r), ℓ=1, ν=1 ... passed
Testing ξ(r), ℓ=1, ν=2 ... passed
Testing ξ(r), ℓ=1, ν=3 ... passed
Testing ξ(r), ℓ=2, ν=-1 ... passed
Testing ξ(r), ℓ=2, ν=0 ... passed
Testing ξ(r), ℓ=2, ν=1 ... passed
Testing ξ(r), ℓ=2, ν=2 ... passed
Testing ξ(r), ℓ=2, ν=3 ... passed
Testing ξ(r), ℓ=3, ν=-1 ... passed
Testing ξ(r), ℓ=3, ν=0 ... passed
Testing ξ(r), ℓ=3, ν=1 ... passed
Testing ξ(r), ℓ=3, ν=2 ... passed
Testing ξ(r), ℓ=3, ν=3 ... passed
Testing ξ(r), ℓ=4, ν=-1 ... passed
Testing ξ(r), ℓ=4, ν=0 ... passed
Testing ξ(r), ℓ=4, ν=1 ... passed
Testing ξ(r), ℓ=4, ν=2 ... passed
Testing ξ(r), ℓ=4, ν=3 ... passed
Testing ξ(r) ... passed
Testing ξ′(r) ... passed
Testing ξ″(r) ... passed
Calculating fmax: 
  dlrec    = 4
  dlrecRg1 = -4
  q=1.1, R=1.1:	  4.754823 seconds (1.20 M allocations: 67.954 MiB, 0.81% gc time)

  4.796240 seconds (1.22 M allocations: 69.064 MiB, 0.81% gc time)
ℓ = 1202
Δℓ = 4
ΔℓRg1 = -4
N = 1600
q = 1.1
kmin = 1.0e-5
kmax = 100000.00000000004
χ0 = 0.023029999999999995
RR = RR.tsv
ℓmax = ℓmax.bin
f21 = f21.bin
kmin = 1.0e-5
kmax = 100000.0
dlrec    = 4
dlrecRg1 = -4
Output size: 5741568 bytes = 0.005347251892089844 GiB
Output size: 51264 bytes = 4.774332046508789e-5 GiB
Reading 'out/F21EllCache'...   0.612985 seconds (318.59 k allocations: 16.377 MiB, 7.58% gc time)
ellmax: 1202
lmaxcache: 1202
fell[:,1,1] = Complex{Float64}[3.9583795592771634e-52 - 9.695233714158177e-68im, 3.990121772925759e-52 - 9.772979714843386e-68im]
ell 1202, elapsed: 0.00012111663818359375
ell 1201, elapsed: 2.1598970890045166
ell 1200, elapsed: 0.0005240440368652344
ell 1199, elapsed: 0.0004889965057373047
ell 1198, elapsed: 0.0004801750183105469
ell 1002, elapsed: 0.009592056274414062
ell 1001, elapsed: 0.0005030632019042969
ell 1000, elapsed: 0.0004839897155761719
ell 999, elapsed: 0.00047707557678222656
ell 998, elapsed: 0.0004839897155761719
ell 902, elapsed: 0.0048830509185791016
ell 901, elapsed: 0.0005030632019042969
ell 900, elapsed: 0.0004820823669433594
ell 899, elapsed: 0.0004799365997314453
ell 898, elapsed: 0.0004668235778808594
ell 802, elapsed: 0.005194187164306641
ell 801, elapsed: 0.0005080699920654297
ell 800, elapsed: 0.0004899501800537109
ell 799, elapsed: 0.0005590915679931641
ell 798, elapsed: 0.0004911422729492188
ell 702, elapsed: 0.004865884780883789
ell 701, elapsed: 0.0005040168762207031
ell 700, elapsed: 0.0004930496215820312
ell 699, elapsed: 0.0004730224609375
ell 698, elapsed: 0.0004730224609375
ell 602, elapsed: 0.005199909210205078
ell 601, elapsed: 0.0004930496215820312
ell 600, elapsed: 0.0004889965057373047
ell 599, elapsed: 0.00047898292541503906
ell 598, elapsed: 0.0004899501800537109
ell 502, elapsed: 0.004940032958984375
ell 501, elapsed: 0.0005021095275878906
ell 500, elapsed: 0.0004839897155761719
ell 499, elapsed: 0.0004849433898925781
ell 498, elapsed: 0.0004799365997314453
ell 402, elapsed: 0.004934072494506836
ell 401, elapsed: 0.0005028247833251953
ell 400, elapsed: 0.00048279762268066406
ell 399, elapsed: 0.0004849433898925781
ell 398, elapsed: 0.0004830360412597656
ell 302, elapsed: 0.004869937896728516
ell 301, elapsed: 0.0004999637603759766
ell 300, elapsed: 0.0004930496215820312
ell 299, elapsed: 0.0004928112030029297
ell 298, elapsed: 0.0004849433898925781
ell 202, elapsed: 0.005142927169799805
ell 201, elapsed: 0.0005168914794921875
ell 200, elapsed: 0.0005478858947753906
ell 199, elapsed: 0.0004918575286865234
ell 198, elapsed: 0.00047087669372558594
ell 152, elapsed: 0.0026581287384033203
ell 151, elapsed: 0.0004980564117431641
ell 150, elapsed: 0.000476837158203125
ell 149, elapsed: 0.0004730224609375
ell 148, elapsed: 0.0004761219024658203
ell 127, elapsed: 0.00150299072265625
ell 126, elapsed: 0.0004949569702148438
ell 125, elapsed: 0.0004999637603759766
ell 124, elapsed: 0.0004730224609375
ell 123, elapsed: 0.0005002021789550781
ell 114, elapsed: 0.0009450912475585938
ell 113, elapsed: 0.0004849433898925781
ell 112, elapsed: 0.0004858970642089844
ell 111, elapsed: 0.00046896934509277344
ell 110, elapsed: 0.0004858970642089844
ell 102, elapsed: 0.0009200572967529297
ell 101, elapsed: 0.00047898292541503906
ell 100, elapsed: 0.00047397613525390625
ell 99, elapsed: 0.0004801750183105469
ell 98, elapsed: 0.00047707557678222656
ell 97, elapsed: 0.0005218982696533203
ell 96, elapsed: 0.0007309913635253906
ell 95, elapsed: 0.0005788803100585938
ell 94, elapsed: 0.0005838871002197266
ell 93, elapsed: 0.0005180835723876953
ell 92, elapsed: 0.000576019287109375
ell 91, elapsed: 0.0005159378051757812
ell 90, elapsed: 0.0006780624389648438
ell 89, elapsed: 0.0005190372467041016
ell 88, elapsed: 0.0005781650543212891
ell 87, elapsed: 0.0005080699920654297
ell 86, elapsed: 0.0005688667297363281
ell 85, elapsed: 0.0005099773406982422
ell 84, elapsed: 0.0006070137023925781
ell 83, elapsed: 0.0006539821624755859
ell 82, elapsed: 0.0005741119384765625
ell 81, elapsed: 0.0005059242248535156
ell 80, elapsed: 0.0005660057067871094
ell 79, elapsed: 0.000514984130859375
ell 78, elapsed: 0.000576019287109375
ell 77, elapsed: 0.0005130767822265625
ell 76, elapsed: 0.0006678104400634766
ell 75, elapsed: 0.0005109310150146484
ell 74, elapsed: 0.0005691051483154297
ell 73, elapsed: 0.0005099773406982422
ell 72, elapsed: 0.0005679130554199219
ell 71, elapsed: 0.0005159378051757812
ell 70, elapsed: 0.0005888938903808594
ell 69, elapsed: 0.0006911754608154297
ell 68, elapsed: 0.0006449222564697266
ell 67, elapsed: 0.0005159378051757812
ell 66, elapsed: 0.000576019287109375
ell 65, elapsed: 0.0005159378051757812
ell 64, elapsed: 0.000576019287109375
ell 63, elapsed: 0.0006082057952880859
ell 62, elapsed: 0.0005590915679931641
ell 61, elapsed: 0.0005021095275878906
ell 60, elapsed: 0.0005669593811035156
ell 59, elapsed: 0.0005049705505371094
ell 58, elapsed: 0.0005688667297363281
ell 57, elapsed: 0.0005638599395751953
ell 56, elapsed: 0.0007100105285644531
ell 55, elapsed: 0.0005078315734863281
ell 54, elapsed: 0.0005710124969482422
ell 53, elapsed: 0.0005140304565429688
ell 52, elapsed: 0.0005710124969482422
ell 51, elapsed: 0.0004990100860595703
ell 50, elapsed: 0.0005719661712646484
ell 49, elapsed: 0.0006549358367919922
ell 48, elapsed: 0.0005750656127929688
ell 47, elapsed: 0.0005249977111816406
ell 46, elapsed: 0.0005729198455810547
ell 45, elapsed: 0.0005121231079101562
ell 44, elapsed: 0.0005581378936767578
ell 43, elapsed: 0.0005249977111816406
ell 42, elapsed: 0.0007731914520263672
ell 41, elapsed: 0.000514984130859375
ell 40, elapsed: 0.0005669593811035156
ell 39, elapsed: 0.000514984130859375
ell 38, elapsed: 0.000576019287109375
ell 37, elapsed: 0.0005478858947753906
ell 36, elapsed: 0.0007710456848144531
ell 35, elapsed: 0.000514984130859375
ell 34, elapsed: 0.0005841255187988281
ell 33, elapsed: 0.0005159378051757812
ell 32, elapsed: 0.0005710124969482422
ell 31, elapsed: 0.0005159378051757812
ell 30, elapsed: 0.0005719661712646484
ell 29, elapsed: 0.0005998611450195312
ell 28, elapsed: 0.0005879402160644531
ell 27, elapsed: 0.0005381107330322266
ell 26, elapsed: 0.0005819797515869141
ell 25, elapsed: 0.0005059242248535156
ell 24, elapsed: 0.0005600452423095703
ell 23, elapsed: 0.0005249977111816406
ell 22, elapsed: 0.0006010532379150391
ell 21, elapsed: 0.0005319118499755859
ell 20, elapsed: 0.0005810260772705078
ell 19, elapsed: 0.0005159378051757812
ell 18, elapsed: 0.0005738735198974609
ell 17, elapsed: 0.0005099773406982422
ell 16, elapsed: 0.0006730556488037109
ell 15, elapsed: 0.0005159378051757812
ell 14, elapsed: 0.0005550384521484375
ell 13, elapsed: 0.0005128383636474609
ell 12, elapsed: 0.0005831718444824219
ell 11, elapsed: 0.0005218982696533203
ell 10, elapsed: 0.0005729198455810547
ell 9, elapsed: 0.0006039142608642578
ell 8, elapsed: 0.0005729198455810547
ell 7, elapsed: 0.0005128383636474609
ell 6, elapsed: 0.0005779266357421875
ell 5, elapsed: 0.00055694580078125
ell 4, elapsed: 0.0006258487701416016
ell 3, elapsed: 0.0005090236663818359
ell 2, elapsed: 0.0005831718444824219
ell 1, elapsed: 0.0005071163177490234
ell 0, elapsed: 0.0005719661712646484
  3.039402 seconds (1.75 M allocations: 85.466 MiB, 1.69% gc time)
elapsed: 0.0006039142608642578
step:          0.750276 sec (402.525 k allocations: 20.273 MB, 0.0% gc time)
swapping:      0.000577 sec (0 allocations: 0 byte, 0.0% gc time)
calc_Mellell!: 0.502513 sec (296.372 k allocations: 14.958 MB, 0.0% gc time)
  t0 :  0.0 sec (0 allocations: 0 byte, 0.0% gc time)
  tm2 : 0.0 sec (0 allocations: 0 byte, 0.0% gc time)
  tm2s: 0.0 sec (0 allocations: 0 byte, 0.0% gc time)
  tm4 : 0.0 sec (0 allocations: 0 byte, 0.0% gc time)
  tp2 : 0.0 sec (0 allocations: 0 byte, 0.0% gc time)
  tp2s: 0.0 sec (0 allocations: 0 byte, 0.0% gc time)
  tp4 : 0.0 sec (0 allocations: 0 byte, 0.0% gc time)
calc_wtdll!:   1.031303 sec (525.864 k allocations: 26.377 MB, 2.64% gc time)
calc_wljj!:    0.003353 sec (6 allocations: 96 byte, 0.0% gc time)
mult_prefac!:  0.0 sec (0 allocations: 0 byte, 0.0% gc time)
convert:       0.0 sec (0 allocations: 0 byte, 0.0% gc time)
write:         0.004059 sec (0 allocations: 0 byte, 0.0% gc time)
test_rand_2f1: 0.0 sec (0 allocations: 0 byte, 0.0% gc time)
Closing outfile out/Ml21-cache.bin...   0.000081 seconds
  2.636958 seconds (840.30 k allocations: 80.729 MiB, 1.94% gc time)
make_phi():   0.031856 seconds (8.32 k allocations: 250.438 KiB)
  0.317730 seconds (178.31 k allocations: 11.495 MiB)
tskip:       2.7e-5 sec (0 allocations: 0 byte, 0.0% gc time)
tread:       0.007288 sec (19 allocations: 2.172 KB, 0.0% gc time)
tmultphi:    0.051555 sec (26.022 k allocations: 1.338 MB, 0.0% gc time)
tbrfft:      0.063308 sec (57.509 k allocations: 5.635 MB, 0.0% gc time)
tmultprefac: 0.003498 sec (0 allocations: 0 byte, 0.0% gc time)
toutfunc:    0.191887 sec (94.104 k allocations: 4.45 MB, 0.0% gc time)
Testing R=1.1 ... passed
Calculating fmax: 
  dlrec    = 4
  dlrecRg1 = -4
  q=1.1, R=1.0:	  0.001742 seconds (4.00 k allocations: 300.375 KiB)

  0.001961 seconds (4.04 k allocations: 335.062 KiB)
ℓ = 1202
Δℓ = 4
ΔℓRg1 = -4
N = 1600
q = 1.1
kmin = 1.0e-5
kmax = 100000.00000000004
χ0 = 0.023029999999999995
RR = RR.tsv
ℓmax = ℓmax.bin
f21 = f21.bin
kmin = 1.0e-5
kmax = 100000.0
dlrec    = 4
dlrecRg1 = -4
Output size: 61465536 bytes = 0.05724424123764038 GiB
Output size: 51264 bytes = 4.774332046508789e-5 GiB
Reading 'out/F21EllCache'...   0.001264 seconds (267 allocations: 84.656 KiB)
ellmax: 1202
lmaxcache: 1202
fell[:,1,1] = Complex{Float64}[809.6031528389767 - 1.9829558194077161e-13im, 0.0 + 0.0im]
ell 1202, elapsed: 2.5987625122070312e-5
ell 1201, elapsed: 0.02021622657775879
ell 1200, elapsed: 0.0006110668182373047
ell 1199, elapsed: 0.0005950927734375
ell 1198, elapsed: 0.0006899833679199219
ell 1197, elapsed: 0.00074005126953125
ell 1196, elapsed: 0.0006589889526367188
ell 1195, elapsed: 0.0007250308990478516
ell 1194, elapsed: 0.00061798095703125
ell 1193, elapsed: 0.0006909370422363281
ell 1192, elapsed: 0.0006361007690429688
ell 1191, elapsed: 0.0006940364837646484
ell 1190, elapsed: 0.0005931854248046875
ell 1189, elapsed: 0.0006899833679199219
ell 1188, elapsed: 0.0006139278411865234
ell 1187, elapsed: 0.0008227825164794922
ell 1186, elapsed: 0.0006241798400878906
ell 1185, elapsed: 0.0007109642028808594
ell 1184, elapsed: 0.0006160736083984375
ell 1183, elapsed: 0.0006909370422363281
ell 1182, elapsed: 0.0006048679351806641
ell 1181, elapsed: 0.000820159912109375
ell 1180, elapsed: 0.0006091594696044922
ell 1179, elapsed: 0.0006911754608154297
ell 1178, elapsed: 0.000759124755859375
ell 1177, elapsed: 0.0006809234619140625
ell 1176, elapsed: 0.0007469654083251953
ell 1175, elapsed: 0.0006959438323974609
ell 1174, elapsed: 0.0006060600280761719
ell 1173, elapsed: 0.0006890296936035156
ell 1172, elapsed: 0.0006220340728759766
ell 1171, elapsed: 0.0007071495056152344
ell 1170, elapsed: 0.0006048679351806641
ell 1169, elapsed: 0.00047707557678222656
ell 1168, elapsed: 0.0004010200500488281
ell 1167, elapsed: 0.0004558563232421875
ell 1166, elapsed: 0.00039386749267578125
ell 1165, elapsed: 0.0005879402160644531
ell 1164, elapsed: 0.0005290508270263672
ell 1163, elapsed: 0.0006101131439208984
ell 1162, elapsed: 0.0005049705505371094
ell 1161, elapsed: 0.00044798851013183594
ell 1160, elapsed: 0.00038504600524902344
ell 1159, elapsed: 0.0004558563232421875
ell 1158, elapsed: 0.0004620552062988281
ell 1157, elapsed: 0.0006339550018310547
ell 1156, elapsed: 0.00038695335388183594
ell 1155, elapsed: 0.00047397613525390625
ell 1154, elapsed: 0.0003879070281982422
ell 1153, elapsed: 0.0004489421844482422
ell 1152, elapsed: 0.00039196014404296875
ell 1151, elapsed: 0.000453948974609375
ell 1150, elapsed: 0.00039005279541015625
ell 1149, elapsed: 0.00044798851013183594
ell 1148, elapsed: 0.0003669261932373047
ell 1147, elapsed: 0.0004329681396484375
ell 1146, elapsed: 0.0003991127014160156
ell 1145, elapsed: 0.0005431175231933594
ell 1144, elapsed: 0.0005240440368652344
ell 1143, elapsed: 0.0004410743713378906
ell 1142, elapsed: 0.0003781318664550781
ell 1141, elapsed: 0.00043702125549316406
ell 1140, elapsed: 0.00038313865661621094
ell 1139, elapsed: 0.0006098747253417969
ell 1138, elapsed: 0.0005521774291992188
ell 1137, elapsed: 0.00045299530029296875
ell 1136, elapsed: 0.00038695335388183594
ell 1135, elapsed: 0.0004489421844482422
ell 1134, elapsed: 0.0003859996795654297
ell 1133, elapsed: 0.00044918060302734375
ell 1132, elapsed: 0.0004868507385253906
ell 1131, elapsed: 0.0005800724029541016
ell 1130, elapsed: 0.000514984130859375
ell 1129, elapsed: 0.0004508495330810547
ell 1128, elapsed: 0.00038886070251464844
ell 1127, elapsed: 0.0005991458892822266
ell 1126, elapsed: 0.0006251335144042969
ell 1125, elapsed: 0.0006330013275146484
ell 1124, elapsed: 0.0004680156707763672
ell 1123, elapsed: 0.0004570484161376953
ell 1122, elapsed: 0.0003790855407714844
ell 1121, elapsed: 0.0004398822784423828
ell 1120, elapsed: 0.0003821849822998047
ell 1119, elapsed: 0.0004451274871826172
ell 1118, elapsed: 0.0003809928894042969
ell 1117, elapsed: 0.00044798851013183594
ell 1116, elapsed: 0.0003871917724609375
ell 1115, elapsed: 0.0004458427429199219
ell 1114, elapsed: 0.0005030632019042969
ell 1113, elapsed: 0.0004458427429199219
ell 1112, elapsed: 0.0003948211669921875
ell 1111, elapsed: 0.0004489421844482422
ell 1110, elapsed: 0.00038909912109375
ell 1109, elapsed: 0.0004439353942871094
ell 1108, elapsed: 0.00038909912109375
ell 1107, elapsed: 0.0004470348358154297
ell 1106, elapsed: 0.00039887428283691406
ell 1105, elapsed: 0.00045609474182128906
ell 1104, elapsed: 0.0003879070281982422
ell 1103, elapsed: 0.00044989585876464844
ell 1102, elapsed: 0.0003840923309326172
ell 1101, elapsed: 0.000576019287109375
ell 1100, elapsed: 0.0004909038543701172
ell 1099, elapsed: 0.0004448890686035156
ell 1098, elapsed: 0.0003838539123535156
ell 1097, elapsed: 0.0005731582641601562
ell 1096, elapsed: 0.00039005279541015625
ell 1095, elapsed: 0.0004448890686035156
ell 1094, elapsed: 0.00039005279541015625
ell 1093, elapsed: 0.0004589557647705078
ell 1092, elapsed: 0.0003910064697265625
ell 1091, elapsed: 0.0004329681396484375
ell 1090, elapsed: 0.0003681182861328125
ell 1089, elapsed: 0.0004611015319824219
ell 1088, elapsed: 0.0003859996795654297
ell 1087, elapsed: 0.0004379749298095703
ell 1086, elapsed: 0.0003809928894042969
ell 1085, elapsed: 0.0004439353942871094
ell 1084, elapsed: 0.0003819465637207031
ell 1083, elapsed: 0.00044989585876464844
ell 1082, elapsed: 0.00038313865661621094
ell 1081, elapsed: 0.0004467964172363281
ell 1080, elapsed: 0.00040602684020996094
ell 1079, elapsed: 0.00045108795166015625
ell 1078, elapsed: 0.00038814544677734375
ell 1077, elapsed: 0.0004520416259765625
ell 1076, elapsed: 0.0005331039428710938
ell 1075, elapsed: 0.0006849765777587891
ell 1074, elapsed: 0.0004329681396484375
ell 1073, elapsed: 0.0004589557647705078
ell 1072, elapsed: 0.0004029273986816406
ell 1071, elapsed: 0.00045013427734375
ell 1070, elapsed: 0.0003910064697265625
ell 1069, elapsed: 0.0005731582641601562
ell 1068, elapsed: 0.0005140304565429688
ell 1067, elapsed: 0.0004451274871826172
ell 1066, elapsed: 0.0003859996795654297
ell 1065, elapsed: 0.0004508495330810547
ell 1064, elapsed: 0.00038504600524902344
ell 1063, elapsed: 0.0005769729614257812
ell 1062, elapsed: 0.0004858970642089844
ell 1061, elapsed: 0.00045299530029296875
ell 1060, elapsed: 0.00038313865661621094
ell 1059, elapsed: 0.0004439353942871094
ell 1058, elapsed: 0.0004630088806152344
ell 1057, elapsed: 0.0006008148193359375
ell 1056, elapsed: 0.0004818439483642578
ell 1055, elapsed: 0.0005929470062255859
ell 1054, elapsed: 0.0005319118499755859
ell 1053, elapsed: 0.0005300045013427734
ell 1052, elapsed: 0.0003781318664550781
ell 1051, elapsed: 0.0004458427429199219
ell 1050, elapsed: 0.0003821849822998047
ell 1049, elapsed: 0.0004379749298095703
ell 1048, elapsed: 0.0003981590270996094
ell 1047, elapsed: 0.00043892860412597656
ell 1046, elapsed: 0.00038814544677734375
ell 1045, elapsed: 0.0004410743713378906
ell 1044, elapsed: 0.000392913818359375
ell 1043, elapsed: 0.0006039142608642578
ell 1042, elapsed: 0.000453948974609375
ell 1041, elapsed: 0.0004448890686035156
ell 1040, elapsed: 0.00038313865661621094
ell 1039, elapsed: 0.00045490264892578125
ell 1038, elapsed: 0.0003898143768310547
ell 1037, elapsed: 0.0004439353942871094
ell 1036, elapsed: 0.00045299530029296875
ell 1035, elapsed: 0.0006899833679199219
ell 1034, elapsed: 0.0005049705505371094
ell 1033, elapsed: 0.0005230903625488281
ell 1032, elapsed: 0.0005340576171875
ell 1031, elapsed: 0.00043511390686035156
ell 1030, elapsed: 0.0003750324249267578
ell 1029, elapsed: 0.0005631446838378906
ell 1028, elapsed: 0.0005030632019042969
ell 1027, elapsed: 0.0004429817199707031
ell 1026, elapsed: 0.0003788471221923828
ell 1025, elapsed: 0.0004410743713378906
ell 1024, elapsed: 0.0004792213439941406
ell 1023, elapsed: 0.0004429817199707031
ell 1022, elapsed: 0.0003829002380371094
ell 1021, elapsed: 0.0004429817199707031
ell 1020, elapsed: 0.0003829002380371094
ell 1019, elapsed: 0.00044798851013183594
ell 1018, elapsed: 0.0005211830139160156
ell 1017, elapsed: 0.0006871223449707031
ell 1016, elapsed: 0.0007300376892089844
ell 1015, elapsed: 0.0007369518280029297
ell 1014, elapsed: 0.0006439685821533203
ell 1013, elapsed: 0.0006999969482421875
ell 1012, elapsed: 0.0005190372467041016
ell 1011, elapsed: 0.00043702125549316406
ell 1010, elapsed: 0.00038695335388183594
ell 1009, elapsed: 0.0004429817199707031
ell 1008, elapsed: 0.0003781318664550781
ell 1007, elapsed: 0.0005428791046142578
ell 1006, elapsed: 0.0005850791931152344
ell 1005, elapsed: 0.0005588531494140625
ell 1004, elapsed: 0.00038313865661621094
ell 1003, elapsed: 0.0004429817199707031
ell 1002, elapsed: 0.0004010200500488281
ell 1001, elapsed: 0.0004439353942871094
ell 1000, elapsed: 0.0003790855407714844
ell 999, elapsed: 0.0004429817199707031
ell 998, elapsed: 0.0003819465637207031
ell 997, elapsed: 0.0004429817199707031
ell 996, elapsed: 0.0003809928894042969
ell 995, elapsed: 0.0004429817199707031
ell 994, elapsed: 0.0003819465637207031
ell 993, elapsed: 0.0008020401000976562
ell 992, elapsed: 0.00039505958557128906
ell 991, elapsed: 0.0005619525909423828
ell 990, elapsed: 0.0004639625549316406
ell 989, elapsed: 0.00042891502380371094
ell 988, elapsed: 0.0006430149078369141
ell 987, elapsed: 0.0005941390991210938
ell 986, elapsed: 0.00039386749267578125
ell 985, elapsed: 0.0004429817199707031
ell 984, elapsed: 0.00037789344787597656
ell 983, elapsed: 0.0005481243133544922
ell 982, elapsed: 0.0005040168762207031
ell 981, elapsed: 0.0004398822784423828
ell 980, elapsed: 0.0003809928894042969
ell 979, elapsed: 0.0004439353942871094
ell 978, elapsed: 0.0003910064697265625
ell 977, elapsed: 0.0005800724029541016
ell 976, elapsed: 0.0004889965057373047
ell 975, elapsed: 0.0005769729614257812
ell 974, elapsed: 0.00047707557678222656
ell 973, elapsed: 0.00043892860412597656
ell 972, elapsed: 0.0003781318664550781
ell 971, elapsed: 0.0004401206970214844
ell 970, elapsed: 0.0004038810729980469
ell 969, elapsed: 0.0005869865417480469
ell 968, elapsed: 0.0004591941833496094
ell 967, elapsed: 0.0004429817199707031
ell 966, elapsed: 0.0003829002380371094
ell 965, elapsed: 0.0004451274871826172
ell 964, elapsed: 0.0003788471221923828
ell 963, elapsed: 0.0004620552062988281
ell 962, elapsed: 0.0004911422729492188
ell 961, elapsed: 0.00044798851013183594
ell 960, elapsed: 0.0003838539123535156
ell 959, elapsed: 0.0004260540008544922
ell 958, elapsed: 0.0003619194030761719
ell 957, elapsed: 0.0005710124969482422
ell 956, elapsed: 0.0004801750183105469
ell 955, elapsed: 0.00043201446533203125
ell 954, elapsed: 0.00037789344787597656
ell 953, elapsed: 0.0005431175231933594
ell 952, elapsed: 0.0003840923309326172
ell 951, elapsed: 0.00043487548828125
ell 950, elapsed: 0.0003771781921386719
ell 949, elapsed: 0.0004429817199707031
ell 948, elapsed: 0.0003859996795654297
ell 947, elapsed: 0.0004420280456542969
ell 946, elapsed: 0.0003838539123535156
ell 945, elapsed: 0.0007259845733642578
ell 944, elapsed: 0.0003960132598876953
ell 943, elapsed: 0.0004329681396484375
ell 942, elapsed: 0.00037598609924316406
ell 941, elapsed: 0.00043201446533203125
ell 940, elapsed: 0.0003788471221923828
ell 939, elapsed: 0.0004360675811767578
ell 938, elapsed: 0.0003809928894042969
ell 937, elapsed: 0.00043702125549316406
ell 936, elapsed: 0.0004889965057373047
ell 935, elapsed: 0.00044918060302734375
ell 934, elapsed: 0.0005688667297363281
ell 933, elapsed: 0.0005009174346923828
ell 932, elapsed: 0.0003879070281982422
ell 931, elapsed: 0.0005440711975097656
ell 930, elapsed: 0.0004868507385253906
ell 929, elapsed: 0.0004329681396484375
ell 928, elapsed: 0.0005021095275878906
ell 927, elapsed: 0.00043702125549316406
ell 926, elapsed: 0.00037598609924316406
ell 925, elapsed: 0.00044918060302734375
ell 924, elapsed: 0.0003769397735595703
ell 923, elapsed: 0.00044083595275878906
ell 922, elapsed: 0.0003819465637207031
ell 921, elapsed: 0.0004360675811767578
ell 920, elapsed: 0.0006649494171142578
ell 919, elapsed: 0.0005040168762207031
ell 918, elapsed: 0.0003871917724609375
ell 917, elapsed: 0.0005588531494140625
ell 916, elapsed: 0.0004620552062988281
ell 915, elapsed: 0.00043511390686035156
ell 914, elapsed: 0.0004661083221435547
ell 913, elapsed: 0.0005998611450195312
ell 912, elapsed: 0.0004909038543701172
ell 911, elapsed: 0.0004429817199707031
ell 910, elapsed: 0.00038886070251464844
ell 909, elapsed: 0.0006198883056640625
ell 908, elapsed: 0.00045013427734375
ell 907, elapsed: 0.0004429817199707031
ell 906, elapsed: 0.0003910064697265625
ell 905, elapsed: 0.00045180320739746094
ell 904, elapsed: 0.0003979206085205078
ell 903, elapsed: 0.0004551410675048828
ell 902, elapsed: 0.0005509853363037109
ell 901, elapsed: 0.0005860328674316406
ell 900, elapsed: 0.00038695335388183594
ell 899, elapsed: 0.00044798851013183594
ell 898, elapsed: 0.00036597251892089844
ell 897, elapsed: 0.0004181861877441406
ell 896, elapsed: 0.0004971027374267578
ell 895, elapsed: 0.0007579326629638672
ell 894, elapsed: 0.0006439685821533203
ell 893, elapsed: 0.0007419586181640625
ell 892, elapsed: 0.00061798095703125
ell 891, elapsed: 0.0005340576171875
ell 890, elapsed: 0.0005409717559814453
ell 889, elapsed: 0.0006010532379150391
ell 888, elapsed: 0.0003840923309326172
ell 887, elapsed: 0.00044417381286621094
ell 886, elapsed: 0.0003809928894042969
ell 885, elapsed: 0.0004439353942871094
ell 884, elapsed: 0.0003781318664550781
ell 883, elapsed: 0.00043892860412597656
ell 882, elapsed: 0.0004119873046875
ell 881, elapsed: 0.0006961822509765625
ell 880, elapsed: 0.00039696693420410156
ell 879, elapsed: 0.0004379749298095703
ell 878, elapsed: 0.0003781318664550781
ell 877, elapsed: 0.0006000995635986328
ell 876, elapsed: 0.0004620552062988281
ell 875, elapsed: 0.00044918060302734375
ell 874, elapsed: 0.0006098747253417969
ell 873, elapsed: 0.0006849765777587891
ell 872, elapsed: 0.0005779266357421875
ell 871, elapsed: 0.0006580352783203125
ell 870, elapsed: 0.0005979537963867188
ell 869, elapsed: 0.0006749629974365234
ell 868, elapsed: 0.0007321834564208984
ell 867, elapsed: 0.0006830692291259766
ell 866, elapsed: 0.0005800724029541016
ell 865, elapsed: 0.000659942626953125
ell 864, elapsed: 0.0006000995635986328
ell 863, elapsed: 0.0005140304565429688
ell 862, elapsed: 0.0005011558532714844
ell 861, elapsed: 0.0004489421844482422
ell 860, elapsed: 0.0005099773406982422
ell 859, elapsed: 0.0005960464477539062
ell 858, elapsed: 0.0003910064697265625
ell 857, elapsed: 0.0004448890686035156
ell 856, elapsed: 0.0003840923309326172
ell 855, elapsed: 0.00045490264892578125
ell 854, elapsed: 0.0005028247833251953
ell 853, elapsed: 0.0006031990051269531
ell 852, elapsed: 0.0003910064697265625
ell 851, elapsed: 0.0004489421844482422
ell 850, elapsed: 0.00039005279541015625
ell 849, elapsed: 0.00045299530029296875
ell 848, elapsed: 0.00038909912109375
ell 847, elapsed: 0.0004379749298095703
ell 846, elapsed: 0.0005459785461425781
ell 845, elapsed: 0.000576019287109375
ell 844, elapsed: 0.0003859996795654297
ell 843, elapsed: 0.00044417381286621094
ell 842, elapsed: 0.0003879070281982422
ell 841, elapsed: 0.0004260540008544922
ell 840, elapsed: 0.0003590583801269531
ell 839, elapsed: 0.0004439353942871094
ell 838, elapsed: 0.0005490779876708984
ell 837, elapsed: 0.0005230903625488281
ell 836, elapsed: 0.0003879070281982422
ell 835, elapsed: 0.00044608116149902344
ell 834, elapsed: 0.0003840923309326172
ell 833, elapsed: 0.0004432201385498047
ell 832, elapsed: 0.0003838539123535156
ell 831, elapsed: 0.0004420280456542969
ell 830, elapsed: 0.0003840923309326172
ell 829, elapsed: 0.0004839897155761719
ell 828, elapsed: 0.0003829002380371094
ell 827, elapsed: 0.00044918060302734375
ell 826, elapsed: 0.00038886070251464844
ell 825, elapsed: 0.00044608116149902344
ell 824, elapsed: 0.0005438327789306641
ell 823, elapsed: 0.0005981922149658203
ell 822, elapsed: 0.0003769397735595703
ell 821, elapsed: 0.0004661083221435547
ell 820, elapsed: 0.00039196014404296875
ell 819, elapsed: 0.0005462169647216797
ell 818, elapsed: 0.0005428791046142578
ell 817, elapsed: 0.00044798851013183594
ell 816, elapsed: 0.00039315223693847656
ell 815, elapsed: 0.0004401206970214844
ell 814, elapsed: 0.0005300045013427734
ell 813, elapsed: 0.0005829334259033203
ell 812, elapsed: 0.00039196014404296875
ell 811, elapsed: 0.00044798851013183594
ell 810, elapsed: 0.00038695335388183594
ell 809, elapsed: 0.00045490264892578125
ell 808, elapsed: 0.00038909912109375
ell 807, elapsed: 0.00045800209045410156
ell 806, elapsed: 0.00038814544677734375
ell 805, elapsed: 0.0005781650543212891
ell 804, elapsed: 0.00051116943359375
ell 803, elapsed: 0.0004451274871826172
ell 802, elapsed: 0.0003788471221923828
ell 801, elapsed: 0.0004470348358154297
ell 800, elapsed: 0.00039005279541015625
ell 799, elapsed: 0.0004458427429199219
ell 798, elapsed: 0.00038814544677734375
ell 797, elapsed: 0.00046515464782714844
ell 796, elapsed: 0.0004930496215820312
ell 795, elapsed: 0.000576019287109375
ell 794, elapsed: 0.00038695335388183594
ell 793, elapsed: 0.00045800209045410156
ell 792, elapsed: 0.0003898143768310547
ell 791, elapsed: 0.0004589557647705078
ell 790, elapsed: 0.0003859996795654297
ell 789, elapsed: 0.0004520416259765625
ell 788, elapsed: 0.0004367828369140625
ell 787, elapsed: 0.0005428791046142578
ell 786, elapsed: 0.0005319118499755859
ell 785, elapsed: 0.0005841255187988281
ell 784, elapsed: 0.0004589557647705078
ell 783, elapsed: 0.00043201446533203125
ell 782, elapsed: 0.0004799365997314453
ell 781, elapsed: 0.0007140636444091797
ell 780, elapsed: 0.0004329681396484375
ell 779, elapsed: 0.0004341602325439453
ell 778, elapsed: 0.0003762245178222656
ell 777, elapsed: 0.0004429817199707031
ell 776, elapsed: 0.0003781318664550781
ell 775, elapsed: 0.0004420280456542969
ell 774, elapsed: 0.00037598609924316406
ell 773, elapsed: 0.0005490779876708984
ell 772, elapsed: 0.0005199909210205078
ell 771, elapsed: 0.00044989585876464844
ell 770, elapsed: 0.00037789344787597656
ell 769, elapsed: 0.0004448890686035156
ell 768, elapsed: 0.0003838539123535156
ell 767, elapsed: 0.0004410743713378906
ell 766, elapsed: 0.00038504600524902344
ell 765, elapsed: 0.00045490264892578125
ell 764, elapsed: 0.0004069805145263672
ell 763, elapsed: 0.00044798851013183594
ell 762, elapsed: 0.00038909912109375
ell 761, elapsed: 0.00045490264892578125
ell 760, elapsed: 0.0003910064697265625
ell 759, elapsed: 0.00045800209045410156
ell 758, elapsed: 0.0003910064697265625
ell 757, elapsed: 0.0004611015319824219
ell 756, elapsed: 0.00039315223693847656
ell 755, elapsed: 0.0004658699035644531
ell 754, elapsed: 0.00039505958557128906
ell 753, elapsed: 0.0004379749298095703
ell 752, elapsed: 0.00037097930908203125
ell 751, elapsed: 0.0005431175231933594
ell 750, elapsed: 0.0005109310150146484
ell 749, elapsed: 0.0004470348358154297
ell 748, elapsed: 0.0005130767822265625
ell 747, elapsed: 0.0007390975952148438
ell 746, elapsed: 0.0003840923309326172
ell 745, elapsed: 0.0004448890686035156
ell 744, elapsed: 0.0003790855407714844
ell 743, elapsed: 0.00044608116149902344
ell 742, elapsed: 0.0003840923309326172
ell 741, elapsed: 0.00044608116149902344
ell 740, elapsed: 0.0003769397735595703
ell 739, elapsed: 0.0004680156707763672
ell 738, elapsed: 0.0004589557647705078
ell 737, elapsed: 0.0005888938903808594
ell 736, elapsed: 0.00037288665771484375
ell 735, elapsed: 0.00045299530029296875
ell 734, elapsed: 0.0003788471221923828
ell 733, elapsed: 0.00044417381286621094
ell 732, elapsed: 0.0003781318664550781
ell 731, elapsed: 0.0004570484161376953
ell 730, elapsed: 0.0003840923309326172
ell 729, elapsed: 0.0004379749298095703
ell 728, elapsed: 0.0003859996795654297
ell 727, elapsed: 0.0004451274871826172
ell 726, elapsed: 0.0003859996795654297
ell 725, elapsed: 0.0004520416259765625
ell 724, elapsed: 0.0003859996795654297
ell 723, elapsed: 0.0005650520324707031
ell 722, elapsed: 0.0005199909210205078
ell 721, elapsed: 0.00045418739318847656
ell 720, elapsed: 0.00038695335388183594
ell 719, elapsed: 0.0006189346313476562
ell 718, elapsed: 0.0006048679351806641
ell 717, elapsed: 0.0005388259887695312
ell 716, elapsed: 0.0003871917724609375
ell 715, elapsed: 0.0004642009735107422
ell 714, elapsed: 0.00038313865661621094
ell 713, elapsed: 0.0004429817199707031
ell 712, elapsed: 0.0003859996795654297
ell 711, elapsed: 0.00044989585876464844
ell 710, elapsed: 0.00038504600524902344
ell 709, elapsed: 0.0004398822784423828
ell 708, elapsed: 0.0003829002380371094
ell 707, elapsed: 0.0004451274871826172
ell 706, elapsed: 0.0004010200500488281
ell 705, elapsed: 0.0006248950958251953
ell 704, elapsed: 0.0005919933319091797
ell 703, elapsed: 0.0005948543548583984
ell 702, elapsed: 0.0003819465637207031
ell 701, elapsed: 0.000453948974609375
ell 700, elapsed: 0.0003879070281982422
ell 699, elapsed: 0.0006420612335205078
ell 698, elapsed: 0.0004589557647705078
ell 697, elapsed: 0.0004630088806152344
ell 696, elapsed: 0.0004639625549316406
ell 695, elapsed: 0.0006349086761474609
ell 694, elapsed: 0.0003859996795654297
ell 693, elapsed: 0.0004508495330810547
ell 692, elapsed: 0.0003921985626220703
ell 691, elapsed: 0.0004761219024658203
ell 690, elapsed: 0.00039505958557128906
ell 689, elapsed: 0.00045609474182128906
ell 688, elapsed: 0.0003871917724609375
ell 687, elapsed: 0.0004429817199707031
ell 686, elapsed: 0.0003879070281982422
ell 685, elapsed: 0.0004558563232421875
ell 684, elapsed: 0.00038909912109375
ell 683, elapsed: 0.00044989585876464844
ell 682, elapsed: 0.0004031658172607422
ell 681, elapsed: 0.00045490264892578125
ell 680, elapsed: 0.00038909912109375
ell 679, elapsed: 0.000453948974609375
ell 678, elapsed: 0.00038886070251464844
ell 677, elapsed: 0.00044798851013183594
ell 676, elapsed: 0.0003800392150878906
ell 675, elapsed: 0.00045990943908691406
ell 674, elapsed: 0.0004878044128417969
ell 673, elapsed: 0.0007550716400146484
ell 672, elapsed: 0.00061798095703125
ell 671, elapsed: 0.0007460117340087891
ell 670, elapsed: 0.0006289482116699219
ell 669, elapsed: 0.0006079673767089844
ell 668, elapsed: 0.0003781318664550781
ell 667, elapsed: 0.0004489421844482422
ell 666, elapsed: 0.00045800209045410156
ell 665, elapsed: 0.0005879402160644531
ell 664, elapsed: 0.00037789344787597656
ell 663, elapsed: 0.000431060791015625
ell 662, elapsed: 0.0003712177276611328
ell 661, elapsed: 0.00043392181396484375
ell 660, elapsed: 0.0003769397735595703
ell 659, elapsed: 0.00045299530029296875
ell 658, elapsed: 0.0003819465637207031
ell 657, elapsed: 0.00043487548828125
ell 656, elapsed: 0.0003750324249267578
ell 655, elapsed: 0.0004448890686035156
ell 654, elapsed: 0.00038909912109375
ell 653, elapsed: 0.0004429817199707031
ell 652, elapsed: 0.0003859996795654297
ell 651, elapsed: 0.0005958080291748047
ell 650, elapsed: 0.0004699230194091797
ell 649, elapsed: 0.0004642009735107422
ell 648, elapsed: 0.00038886070251464844
ell 647, elapsed: 0.00045490264892578125
ell 646, elapsed: 0.0003829002380371094
ell 645, elapsed: 0.0004429817199707031
ell 644, elapsed: 0.00038886070251464844
ell 643, elapsed: 0.0004520416259765625
ell 642, elapsed: 0.0003960132598876953
ell 641, elapsed: 0.0006761550903320312
ell 640, elapsed: 0.0004870891571044922
ell 639, elapsed: 0.0004520416259765625
ell 638, elapsed: 0.0003821849822998047
ell 637, elapsed: 0.0004551410675048828
ell 636, elapsed: 0.0003829002380371094
ell 635, elapsed: 0.000453948974609375
ell 634, elapsed: 0.00038695335388183594
ell 633, elapsed: 0.0004858970642089844
ell 632, elapsed: 0.0004100799560546875
ell 631, elapsed: 0.0004642009735107422
ell 630, elapsed: 0.00039005279541015625
ell 629, elapsed: 0.0004458427429199219
ell 628, elapsed: 0.0003840923309326172
ell 627, elapsed: 0.00044798851013183594
ell 626, elapsed: 0.0003829002380371094
ell 625, elapsed: 0.0005500316619873047
ell 624, elapsed: 0.00038695335388183594
ell 623, elapsed: 0.00045800209045410156
ell 622, elapsed: 0.00039005279541015625
ell 621, elapsed: 0.00045490264892578125
ell 620, elapsed: 0.00039005279541015625
ell 619, elapsed: 0.00044798851013183594
ell 618, elapsed: 0.00039315223693847656
ell 617, elapsed: 0.00044989585876464844
ell 616, elapsed: 0.00040602684020996094
ell 615, elapsed: 0.0004470348358154297
ell 614, elapsed: 0.0003859996795654297
ell 613, elapsed: 0.0006039142608642578
ell 612, elapsed: 0.0004489421844482422
ell 611, elapsed: 0.0004470348358154297
ell 610, elapsed: 0.0003910064697265625
ell 609, elapsed: 0.0006070137023925781
ell 608, elapsed: 0.0004439353942871094
ell 607, elapsed: 0.0006270408630371094
ell 606, elapsed: 0.0005900859832763672
ell 605, elapsed: 0.0006229877471923828
ell 604, elapsed: 0.0005240440368652344
ell 603, elapsed: 0.0005710124969482422
ell 602, elapsed: 0.00038814544677734375
ell 601, elapsed: 0.0004801750183105469
ell 600, elapsed: 0.0003838539123535156
ell 599, elapsed: 0.00044798851013183594
ell 598, elapsed: 0.00036716461181640625
ell 597, elapsed: 0.0004229545593261719
ell 596, elapsed: 0.00037217140197753906
ell 595, elapsed: 0.0004401206970214844
ell 594, elapsed: 0.0003769397735595703
ell 593, elapsed: 0.0004439353942871094
ell 592, elapsed: 0.0003910064697265625
ell 591, elapsed: 0.00043702125549316406
ell 590, elapsed: 0.0003809928894042969
ell 589, elapsed: 0.00044417381286621094
ell 588, elapsed: 0.0003838539123535156
ell 587, elapsed: 0.00045299530029296875
ell 586, elapsed: 0.00038909912109375
ell 585, elapsed: 0.0004482269287109375
ell 584, elapsed: 0.00038909912109375
ell 583, elapsed: 0.0004680156707763672
ell 582, elapsed: 0.00038313865661621094
ell 581, elapsed: 0.00043487548828125
ell 580, elapsed: 0.00038504600524902344
ell 579, elapsed: 0.0004489421844482422
ell 578, elapsed: 0.0003769397735595703
ell 577, elapsed: 0.00044798851013183594
ell 576, elapsed: 0.0003941059112548828
ell 575, elapsed: 0.0004489421844482422
ell 574, elapsed: 0.0004050731658935547
ell 573, elapsed: 0.0005412101745605469
ell 572, elapsed: 0.0004849433898925781
ell 571, elapsed: 0.0006210803985595703
ell 570, elapsed: 0.00045299530029296875
ell 569, elapsed: 0.0004298686981201172
ell 568, elapsed: 0.0003819465637207031
ell 567, elapsed: 0.0004420280456542969
ell 566, elapsed: 0.0004019737243652344
ell 565, elapsed: 0.00045108795166015625
ell 564, elapsed: 0.0005419254302978516
ell 563, elapsed: 0.0005819797515869141
ell 562, elapsed: 0.0005040168762207031
ell 561, elapsed: 0.0005609989166259766
ell 560, elapsed: 0.0003829002380371094
ell 559, elapsed: 0.0011000633239746094
ell 558, elapsed: 0.00039505958557128906
ell 557, elapsed: 0.00045800209045410156
ell 556, elapsed: 0.0004699230194091797
ell 555, elapsed: 0.0006210803985595703
ell 554, elapsed: 0.0003910064697265625
ell 553, elapsed: 0.0004458427429199219
ell 552, elapsed: 0.00042891502380371094
ell 551, elapsed: 0.000453948974609375
ell 550, elapsed: 0.0004999637603759766
ell 549, elapsed: 0.0006959438323974609
ell 548, elapsed: 0.0006098747253417969
ell 547, elapsed: 0.0006859302520751953
ell 546, elapsed: 0.0006060600280761719
ell 545, elapsed: 0.0006659030914306641
ell 544, elapsed: 0.0005998611450195312
ell 543, elapsed: 0.000614166259765625
ell 542, elapsed: 0.0004000663757324219
ell 541, elapsed: 0.0004489421844482422
ell 540, elapsed: 0.0003819465637207031
ell 539, elapsed: 0.00044918060302734375
ell 538, elapsed: 0.0004000663757324219
ell 537, elapsed: 0.0005388259887695312
ell 536, elapsed: 0.0005278587341308594
ell 535, elapsed: 0.00045013427734375
ell 534, elapsed: 0.00039005279541015625
ell 533, elapsed: 0.0004429817199707031
ell 532, elapsed: 0.00038909912109375
ell 531, elapsed: 0.00045299530029296875
ell 530, elapsed: 0.0004398822784423828
ell 529, elapsed: 0.00045418739318847656
ell 528, elapsed: 0.0003800392150878906
ell 527, elapsed: 0.00044989585876464844
ell 526, elapsed: 0.00039005279541015625
ell 525, elapsed: 0.00044989585876464844
ell 524, elapsed: 0.0003838539123535156
ell 523, elapsed: 0.0004410743713378906
ell 522, elapsed: 0.0003838539123535156
ell 521, elapsed: 0.0004620552062988281
ell 520, elapsed: 0.00038814544677734375
ell 519, elapsed: 0.0004401206970214844
ell 518, elapsed: 0.00038695335388183594
ell 517, elapsed: 0.0004611015319824219
ell 516, elapsed: 0.0003829002380371094
ell 515, elapsed: 0.0004489421844482422
ell 514, elapsed: 0.0003619194030761719
ell 513, elapsed: 0.0004241466522216797
ell 512, elapsed: 0.00039696693420410156
ell 511, elapsed: 0.0004467964172363281
ell 510, elapsed: 0.0003859996795654297
ell 509, elapsed: 0.0004391670227050781
ell 508, elapsed: 0.0003910064697265625
ell 507, elapsed: 0.0004467964172363281
ell 506, elapsed: 0.0003840923309326172
ell 505, elapsed: 0.00044989585876464844
ell 504, elapsed: 0.0003838539123535156
ell 503, elapsed: 0.0004601478576660156
ell 502, elapsed: 0.0003898143768310547
ell 501, elapsed: 0.0005609989166259766
ell 500, elapsed: 0.0004990100860595703
ell 499, elapsed: 0.0004489421844482422
ell 498, elapsed: 0.0003910064697265625
ell 497, elapsed: 0.00045299530029296875
ell 496, elapsed: 0.0005469322204589844
ell 495, elapsed: 0.0006330013275146484
ell 494, elapsed: 0.00039005279541015625
ell 493, elapsed: 0.0004558563232421875
ell 492, elapsed: 0.00038504600524902344
ell 491, elapsed: 0.00044798851013183594
ell 490, elapsed: 0.0003859996795654297
ell 489, elapsed: 0.0004551410675048828
ell 488, elapsed: 0.0003910064697265625
ell 487, elapsed: 0.0004649162292480469
ell 486, elapsed: 0.0003941059112548828
ell 485, elapsed: 0.00044798851013183594
ell 484, elapsed: 0.00039005279541015625
ell 483, elapsed: 0.0005171298980712891
ell 482, elapsed: 0.0005199909210205078
ell 481, elapsed: 0.0004329681396484375
ell 480, elapsed: 0.0004940032958984375
ell 479, elapsed: 0.0005900859832763672
ell 478, elapsed: 0.0003800392150878906
ell 477, elapsed: 0.00043702125549316406
ell 476, elapsed: 0.0003819465637207031
ell 475, elapsed: 0.0004451274871826172
ell 474, elapsed: 0.0003819465637207031
ell 473, elapsed: 0.0004439353942871094
ell 472, elapsed: 0.00038504600524902344
ell 471, elapsed: 0.00045299530029296875
ell 470, elapsed: 0.0004010200500488281
ell 469, elapsed: 0.0004589557647705078
ell 468, elapsed: 0.0003800392150878906
ell 467, elapsed: 0.00044417381286621094
ell 466, elapsed: 0.0003809928894042969
ell 465, elapsed: 0.0004429817199707031
ell 464, elapsed: 0.0003840923309326172
ell 463, elapsed: 0.0004410743713378906
ell 462, elapsed: 0.00038313865661621094
ell 461, elapsed: 0.0005719661712646484
ell 460, elapsed: 0.00038695335388183594
ell 459, elapsed: 0.00045013427734375
ell 458, elapsed: 0.00038504600524902344
ell 457, elapsed: 0.000453948974609375
ell 456, elapsed: 0.00038814544677734375
ell 455, elapsed: 0.0004508495330810547
ell 454, elapsed: 0.00038504600524902344
ell 453, elapsed: 0.0004589557647705078
ell 452, elapsed: 0.00055694580078125
ell 451, elapsed: 0.0005259513854980469
ell 450, elapsed: 0.00038504600524902344
ell 449, elapsed: 0.00044798851013183594
ell 448, elapsed: 0.0003859996795654297
ell 447, elapsed: 0.0004470348358154297
ell 446, elapsed: 0.0003960132598876953
ell 445, elapsed: 0.000453948974609375
ell 444, elapsed: 0.0004608631134033203
ell 443, elapsed: 0.00045490264892578125
ell 442, elapsed: 0.00038909912109375
ell 441, elapsed: 0.0006089210510253906
ell 440, elapsed: 0.00043201446533203125
ell 439, elapsed: 0.00043702125549316406
ell 438, elapsed: 0.0004620552062988281
ell 437, elapsed: 0.0006239414215087891
ell 436, elapsed: 0.0003848075866699219
ell 435, elapsed: 0.0004420280456542969
ell 434, elapsed: 0.0003769397735595703
ell 433, elapsed: 0.0004448890686035156
ell 432, elapsed: 0.0003821849822998047
ell 431, elapsed: 0.0004458427429199219
ell 430, elapsed: 0.0003838539123535156
ell 429, elapsed: 0.00045108795166015625
ell 428, elapsed: 0.00040793418884277344
ell 427, elapsed: 0.0004551410675048828
ell 426, elapsed: 0.00038886070251464844
ell 425, elapsed: 0.0004401206970214844
ell 424, elapsed: 0.00039005279541015625
ell 423, elapsed: 0.0004470348358154297
ell 422, elapsed: 0.0003809928894042969
ell 421, elapsed: 0.0004439353942871094
ell 420, elapsed: 0.0003821849822998047
ell 419, elapsed: 0.00047516822814941406
ell 418, elapsed: 0.00039386749267578125
ell 417, elapsed: 0.00045299530029296875
ell 416, elapsed: 0.00038313865661621094
ell 415, elapsed: 0.0004551410675048828
ell 414, elapsed: 0.00039196014404296875
ell 413, elapsed: 0.0006330013275146484
ell 412, elapsed: 0.00045108795166015625
ell 411, elapsed: 0.0004620552062988281
ell 410, elapsed: 0.0005161762237548828
ell 409, elapsed: 0.0005800724029541016
ell 408, elapsed: 0.0003898143768310547
ell 407, elapsed: 0.00045800209045410156
ell 406, elapsed: 0.00039196014404296875
ell 405, elapsed: 0.0004439353942871094
ell 404, elapsed: 0.00037288665771484375
ell 403, elapsed: 0.0004229545593261719
ell 402, elapsed: 0.0003859996795654297
ell 401, elapsed: 0.00044798851013183594
ell 400, elapsed: 0.0003788471221923828
ell 399, elapsed: 0.00045299530029296875
ell 398, elapsed: 0.00037598609924316406
ell 397, elapsed: 0.0004420280456542969
ell 396, elapsed: 0.0003829002380371094
ell 395, elapsed: 0.0004429817199707031
ell 394, elapsed: 0.0003819465637207031
ell 393, elapsed: 0.0004601478576660156
ell 392, elapsed: 0.0003859996795654297
ell 391, elapsed: 0.0004439353942871094
ell 390, elapsed: 0.00038909912109375
ell 389, elapsed: 0.00044798851013183594
ell 388, elapsed: 0.00038909912109375
ell 387, elapsed: 0.0004508495330810547
ell 386, elapsed: 0.00038909912109375
ell 385, elapsed: 0.0005810260772705078
ell 384, elapsed: 0.0004639625549316406
ell 383, elapsed: 0.00043582916259765625
ell 382, elapsed: 0.0005381107330322266
ell 381, elapsed: 0.0006067752838134766
ell 380, elapsed: 0.00038886070251464844
ell 379, elapsed: 0.0004489421844482422
ell 378, elapsed: 0.00038695335388183594
ell 377, elapsed: 0.0004620552062988281
ell 376, elapsed: 0.0003838539123535156
ell 375, elapsed: 0.00044798851013183594
ell 374, elapsed: 0.00038504600524902344
ell 373, elapsed: 0.0004489421844482422
ell 372, elapsed: 0.00038814544677734375
ell 371, elapsed: 0.0004458427429199219
ell 370, elapsed: 0.0003840923309326172
ell 369, elapsed: 0.00045013427734375
ell 368, elapsed: 0.00040793418884277344
ell 367, elapsed: 0.0004680156707763672
ell 366, elapsed: 0.00039196014404296875
ell 365, elapsed: 0.000453948974609375
ell 364, elapsed: 0.00038886070251464844
ell 363, elapsed: 0.0004570484161376953
ell 362, elapsed: 0.0005218982696533203
ell 361, elapsed: 0.00051116943359375
ell 360, elapsed: 0.00037789344787597656
ell 359, elapsed: 0.00045418739318847656
ell 358, elapsed: 0.0003750324249267578
ell 357, elapsed: 0.0004470348358154297
ell 356, elapsed: 0.0003809928894042969
ell 355, elapsed: 0.0004467964172363281
ell 354, elapsed: 0.0003819465637207031
ell 353, elapsed: 0.0004439353942871094
ell 352, elapsed: 0.0003819465637207031
ell 351, elapsed: 0.0004858970642089844
ell 350, elapsed: 0.0003859996795654297
ell 349, elapsed: 0.0004489421844482422
ell 348, elapsed: 0.00038695335388183594
ell 347, elapsed: 0.0004439353942871094
ell 346, elapsed: 0.0003829002380371094
ell 345, elapsed: 0.0004429817199707031
ell 344, elapsed: 0.00038504600524902344
ell 343, elapsed: 0.0004420280456542969
ell 342, elapsed: 0.00039005279541015625
ell 341, elapsed: 0.0004239082336425781
ell 340, elapsed: 0.0003790855407714844
ell 339, elapsed: 0.0005900859832763672
ell 338, elapsed: 0.000453948974609375
ell 337, elapsed: 0.0004470348358154297
ell 336, elapsed: 0.0003819465637207031
ell 335, elapsed: 0.0004410743713378906
ell 334, elapsed: 0.00038909912109375
ell 333, elapsed: 0.000453948974609375
ell 332, elapsed: 0.0005011558532714844
ell 331, elapsed: 0.0006220340728759766
ell 330, elapsed: 0.0003840923309326172
ell 329, elapsed: 0.0004367828369140625
ell 328, elapsed: 0.0003840923309326172
ell 327, elapsed: 0.0006020069122314453
ell 326, elapsed: 0.0004570484161376953
ell 325, elapsed: 0.0004570484161376953
ell 324, elapsed: 0.0003859996795654297
ell 323, elapsed: 0.0005679130554199219
ell 322, elapsed: 0.0005030632019042969
ell 321, elapsed: 0.0005769729614257812
ell 320, elapsed: 0.0005090236663818359
ell 319, elapsed: 0.00041985511779785156
ell 318, elapsed: 0.0005459785461425781
ell 317, elapsed: 0.0006802082061767578
ell 316, elapsed: 0.0004951953887939453
ell 315, elapsed: 0.00043511390686035156
ell 314, elapsed: 0.0003750324249267578
ell 313, elapsed: 0.0004398822784423828
ell 312, elapsed: 0.0003781318664550781
ell 311, elapsed: 0.00044417381286621094
ell 310, elapsed: 0.0005629062652587891
ell 309, elapsed: 0.0005578994750976562
ell 308, elapsed: 0.0003840923309326172
ell 307, elapsed: 0.0004520416259765625
ell 306, elapsed: 0.00038504600524902344
ell 305, elapsed: 0.0004439353942871094
ell 304, elapsed: 0.0003859996795654297
ell 303, elapsed: 0.0004432201385498047
ell 302, elapsed: 0.00041103363037109375
ell 301, elapsed: 0.00045180320739746094
ell 300, elapsed: 0.00048804283142089844
ell 299, elapsed: 0.0006048679351806641
ell 298, elapsed: 0.00038695335388183594
ell 297, elapsed: 0.0004520416259765625
ell 296, elapsed: 0.00038695335388183594
ell 295, elapsed: 0.0004508495330810547
ell 294, elapsed: 0.0003669261932373047
ell 293, elapsed: 0.0004391670227050781
ell 292, elapsed: 0.00037217140197753906
ell 291, elapsed: 0.0004451274871826172
ell 290, elapsed: 0.0003750324249267578
ell 289, elapsed: 0.0004489421844482422
ell 288, elapsed: 0.0003809928894042969
ell 287, elapsed: 0.0004391670227050781
ell 286, elapsed: 0.00038504600524902344
ell 285, elapsed: 0.00044083595275878906
ell 284, elapsed: 0.0003979206085205078
ell 283, elapsed: 0.0004429817199707031
ell 282, elapsed: 0.0003848075866699219
ell 281, elapsed: 0.0006029605865478516
ell 280, elapsed: 0.0004570484161376953
ell 279, elapsed: 0.0004470348358154297
ell 278, elapsed: 0.0003898143768310547
ell 277, elapsed: 0.0004470348358154297
ell 276, elapsed: 0.0003960132598876953
ell 275, elapsed: 0.0004189014434814453
ell 274, elapsed: 0.0003619194030761719
ell 273, elapsed: 0.0004439353942871094
ell 272, elapsed: 0.0003819465637207031
ell 271, elapsed: 0.0004470348358154297
ell 270, elapsed: 0.00039005279541015625
ell 269, elapsed: 0.0004458427429199219
ell 268, elapsed: 0.00038695335388183594
ell 267, elapsed: 0.0004570484161376953
ell 266, elapsed: 0.00038695335388183594
ell 265, elapsed: 0.0004429817199707031
ell 264, elapsed: 0.0003859996795654297
ell 263, elapsed: 0.0004470348358154297
ell 262, elapsed: 0.00038504600524902344
ell 261, elapsed: 0.0004458427429199219
ell 260, elapsed: 0.0005171298980712891
ell 259, elapsed: 0.0006110668182373047
ell 258, elapsed: 0.00038909912109375
ell 257, elapsed: 0.0005359649658203125
ell 256, elapsed: 0.0005350112915039062
ell 255, elapsed: 0.0005421638488769531
ell 254, elapsed: 0.0005300045013427734
ell 253, elapsed: 0.00045108795166015625
ell 252, elapsed: 0.0005199909210205078
ell 251, elapsed: 0.0005319118499755859
ell 250, elapsed: 0.0004858970642089844
ell 249, elapsed: 0.0006780624389648438
ell 248, elapsed: 0.00041985511779785156
ell 247, elapsed: 0.00043702125549316406
ell 246, elapsed: 0.0003769397735595703
ell 245, elapsed: 0.0004410743713378906
ell 244, elapsed: 0.0003829002380371094
ell 243, elapsed: 0.0004458427429199219
ell 242, elapsed: 0.0003800392150878906
ell 241, elapsed: 0.0004417896270751953
ell 240, elapsed: 0.0003819465637207031
ell 239, elapsed: 0.00044608116149902344
ell 238, elapsed: 0.0003819465637207031
ell 237, elapsed: 0.00044798851013183594
ell 236, elapsed: 0.00038695335388183594
ell 235, elapsed: 0.0004680156707763672
ell 234, elapsed: 0.00038504600524902344
ell 233, elapsed: 0.00045013427734375
ell 232, elapsed: 0.0003681182861328125
ell 231, elapsed: 0.0004181861877441406
ell 230, elapsed: 0.00037097930908203125
ell 229, elapsed: 0.0004429817199707031
ell 228, elapsed: 0.0003719329833984375
ell 227, elapsed: 0.00043892860412597656
ell 226, elapsed: 0.0003809928894042969
ell 225, elapsed: 0.000469207763671875
ell 224, elapsed: 0.00038504600524902344
ell 223, elapsed: 0.0004467964172363281
ell 222, elapsed: 0.0003838539123535156
ell 221, elapsed: 0.0004470348358154297
ell 220, elapsed: 0.00039196014404296875
ell 219, elapsed: 0.0004508495330810547
ell 218, elapsed: 0.00038695335388183594
ell 217, elapsed: 0.0006070137023925781
ell 216, elapsed: 0.00041794776916503906
ell 215, elapsed: 0.0004401206970214844
ell 214, elapsed: 0.0004909038543701172
ell 213, elapsed: 0.0005829334259033203
ell 212, elapsed: 0.0003840923309326172
ell 211, elapsed: 0.0004420280456542969
ell 210, elapsed: 0.0003819465637207031
ell 209, elapsed: 0.00045800209045410156
ell 208, elapsed: 0.0004868507385253906
ell 207, elapsed: 0.0006859302520751953
ell 206, elapsed: 0.0005998611450195312
ell 205, elapsed: 0.0005087852478027344
ell 204, elapsed: 0.0003829002380371094
ell 203, elapsed: 0.00044798851013183594
ell 202, elapsed: 0.0003859996795654297
ell 201, elapsed: 0.0005369186401367188
ell 200, elapsed: 0.0003662109375
ell 199, elapsed: 0.0004248619079589844
ell 198, elapsed: 0.0004799365997314453
ell 197, elapsed: 0.0006680488586425781
ell 196, elapsed: 0.0005650520324707031
ell 195, elapsed: 0.0005829334259033203
ell 194, elapsed: 0.0004830360412597656
ell 193, elapsed: 0.0004429817199707031
ell 192, elapsed: 0.00038814544677734375
ell 191, elapsed: 0.0004360675811767578
ell 190, elapsed: 0.000514984130859375
ell 189, elapsed: 0.0005490779876708984
ell 188, elapsed: 0.00038313865661621094
ell 187, elapsed: 0.00045180320739746094
ell 186, elapsed: 0.0004048347473144531
ell 185, elapsed: 0.0004489421844482422
ell 184, elapsed: 0.0003821849822998047
ell 183, elapsed: 0.0004451274871826172
ell 182, elapsed: 0.00038886070251464844
ell 181, elapsed: 0.0005390644073486328
ell 180, elapsed: 0.0005221366882324219
ell 179, elapsed: 0.00045299530029296875
ell 178, elapsed: 0.0003819465637207031
ell 177, elapsed: 0.000476837158203125
ell 176, elapsed: 0.00038909912109375
ell 175, elapsed: 0.0004558563232421875
ell 174, elapsed: 0.0003848075866699219
ell 173, elapsed: 0.0005941390991210938
ell 172, elapsed: 0.00046515464782714844
ell 171, elapsed: 0.0004429817199707031
ell 170, elapsed: 0.00038909912109375
ell 169, elapsed: 0.0005340576171875
ell 168, elapsed: 0.00039005279541015625
ell 167, elapsed: 0.0004329681396484375
ell 166, elapsed: 0.0003628730773925781
ell 165, elapsed: 0.000431060791015625
ell 164, elapsed: 0.0003829002380371094
ell 163, elapsed: 0.00043201446533203125
ell 162, elapsed: 0.0003800392150878906
ell 161, elapsed: 0.00044798851013183594
ell 160, elapsed: 0.0004088878631591797
ell 159, elapsed: 0.00045013427734375
ell 158, elapsed: 0.00039196014404296875
ell 157, elapsed: 0.0004451274871826172
ell 156, elapsed: 0.00038814544677734375
ell 155, elapsed: 0.0004508495330810547
ell 154, elapsed: 0.0003859996795654297
ell 153, elapsed: 0.0004520416259765625
ell 152, elapsed: 0.00038909912109375
ell 151, elapsed: 0.0006830692291259766
ell 150, elapsed: 0.00039005279541015625
ell 149, elapsed: 0.00044918060302734375
ell 148, elapsed: 0.0003609657287597656
ell 147, elapsed: 0.0004169940948486328
ell 146, elapsed: 0.00037598609924316406
ell 145, elapsed: 0.00045299530029296875
ell 144, elapsed: 0.0003769397735595703
ell 143, elapsed: 0.0004620552062988281
ell 142, elapsed: 0.0003819465637207031
ell 141, elapsed: 0.00044417381286621094
ell 140, elapsed: 0.00038695335388183594
ell 139, elapsed: 0.0004420280456542969
ell 138, elapsed: 0.0003859996795654297
ell 137, elapsed: 0.0004451274871826172
ell 136, elapsed: 0.0004558563232421875
ell 135, elapsed: 0.0008320808410644531
ell 134, elapsed: 0.00039005279541015625
ell 133, elapsed: 0.0004520416259765625
ell 132, elapsed: 0.0003859996795654297
ell 131, elapsed: 0.00045108795166015625
ell 130, elapsed: 0.0003829002380371094
ell 129, elapsed: 0.00044798851013183594
ell 128, elapsed: 0.00038695335388183594
ell 127, elapsed: 0.00045108795166015625
ell 126, elapsed: 0.0005469322204589844
ell 125, elapsed: 0.0005819797515869141
ell 124, elapsed: 0.00048804283142089844
ell 123, elapsed: 0.00045299530029296875
ell 122, elapsed: 0.00039196014404296875
ell 121, elapsed: 0.00045299530029296875
ell 120, elapsed: 0.00037407875061035156
ell 119, elapsed: 0.0004200935363769531
ell 118, elapsed: 0.0006260871887207031
ell 117, elapsed: 0.0005891323089599609
ell 116, elapsed: 0.00048804283142089844
ell 115, elapsed: 0.00045180320739746094
ell 114, elapsed: 0.0003910064697265625
ell 113, elapsed: 0.00045299530029296875
ell 112, elapsed: 0.0003859996795654297
ell 111, elapsed: 0.0007300376892089844
ell 110, elapsed: 0.00039005279541015625
ell 109, elapsed: 0.00045990943908691406
ell 108, elapsed: 0.000392913818359375
ell 107, elapsed: 0.00045299530029296875
ell 106, elapsed: 0.0003859996795654297
ell 105, elapsed: 0.0008370876312255859
ell 104, elapsed: 0.0003941059112548828
ell 103, elapsed: 0.0005459785461425781
ell 102, elapsed: 0.0006020069122314453
ell 101, elapsed: 0.0005879402160644531
ell 100, elapsed: 0.00037598609924316406
ell 99, elapsed: 0.0005838871002197266
ell 98, elapsed: 0.00046896934509277344
ell 97, elapsed: 0.0004451274871826172
ell 96, elapsed: 0.0005121231079101562
ell 95, elapsed: 0.0007390975952148438
ell 94, elapsed: 0.0005180835723876953
ell 93, elapsed: 0.00043582916259765625
ell 92, elapsed: 0.0005130767822265625
ell 91, elapsed: 0.0005350112915039062
ell 90, elapsed: 0.00037980079650878906
ell 89, elapsed: 0.0006530284881591797
ell 88, elapsed: 0.0006098747253417969
ell 87, elapsed: 0.0006930828094482422
ell 86, elapsed: 0.0004699230194091797
ell 85, elapsed: 0.0004398822784423828
ell 84, elapsed: 0.0005350112915039062
ell 83, elapsed: 0.0007059574127197266
ell 82, elapsed: 0.0006339550018310547
ell 81, elapsed: 0.0006968975067138672
ell 80, elapsed: 0.0004520416259765625
ell 79, elapsed: 0.00044083595275878906
ell 78, elapsed: 0.0003859996795654297
ell 77, elapsed: 0.0006349086761474609
ell 76, elapsed: 0.0006449222564697266
ell 75, elapsed: 0.0006880760192871094
ell 74, elapsed: 0.0006091594696044922
ell 73, elapsed: 0.0006749629974365234
ell 72, elapsed: 0.0004761219024658203
ell 71, elapsed: 0.0006270408630371094
ell 70, elapsed: 0.0006279945373535156
ell 69, elapsed: 0.0006840229034423828
ell 68, elapsed: 0.0005450248718261719
ell 67, elapsed: 0.0006451606750488281
ell 66, elapsed: 0.0005970001220703125
ell 65, elapsed: 0.00067901611328125
ell 64, elapsed: 0.000476837158203125
ell 63, elapsed: 0.0006210803985595703
ell 62, elapsed: 0.0004830360412597656
ell 61, elapsed: 0.0006420612335205078
ell 60, elapsed: 0.0006139278411865234
ell 59, elapsed: 0.0005488395690917969
ell 58, elapsed: 0.0004870891571044922
ell 57, elapsed: 0.0007100105285644531
ell 56, elapsed: 0.0005319118499755859
ell 55, elapsed: 0.0006849765777587891
ell 54, elapsed: 0.0005939006805419922
ell 53, elapsed: 0.0006799697875976562
ell 52, elapsed: 0.0005559921264648438
ell 51, elapsed: 0.0006558895111083984
ell 50, elapsed: 0.0005970001220703125
ell 49, elapsed: 0.0005879402160644531
ell 48, elapsed: 0.0003762245178222656
ell 47, elapsed: 0.0006020069122314453
ell 46, elapsed: 0.0005898475646972656
ell 45, elapsed: 0.0006330013275146484
ell 44, elapsed: 0.0005400180816650391
ell 43, elapsed: 0.0006830692291259766
ell 42, elapsed: 0.0005290508270263672
ell 41, elapsed: 0.0006129741668701172
ell 40, elapsed: 0.0005970001220703125
ell 39, elapsed: 0.0007088184356689453
ell 38, elapsed: 0.0006120204925537109
ell 37, elapsed: 0.0006921291351318359
ell 36, elapsed: 0.0006098747253417969
ell 35, elapsed: 0.0006887912750244141
ell 34, elapsed: 0.0006139278411865234
ell 33, elapsed: 0.000698089599609375
ell 32, elapsed: 0.00045609474182128906
ell 31, elapsed: 0.0005898475646972656
ell 30, elapsed: 0.0005960464477539062
ell 29, elapsed: 0.0005640983581542969
ell 28, elapsed: 0.0005469322204589844
ell 27, elapsed: 0.0007119178771972656
ell 26, elapsed: 0.0006110668182373047
ell 25, elapsed: 0.0006999969482421875
ell 24, elapsed: 0.0006000995635986328
ell 23, elapsed: 0.000701904296875
ell 22, elapsed: 0.000514984130859375
ell 21, elapsed: 0.0006871223449707031
ell 20, elapsed: 0.0004899501800537109
ell 19, elapsed: 0.0004379749298095703
ell 18, elapsed: 0.0005381107330322266
ell 17, elapsed: 0.0005660057067871094
ell 16, elapsed: 0.0004470348358154297
ell 15, elapsed: 0.0006880760192871094
ell 14, elapsed: 0.0006251335144042969
ell 13, elapsed: 0.0006890296936035156
ell 12, elapsed: 0.0005221366882324219
ell 11, elapsed: 0.0004558563232421875
ell 10, elapsed: 0.00038814544677734375
ell 9, elapsed: 0.0006158351898193359
ell 8, elapsed: 0.0006039142608642578
ell 7, elapsed: 0.0007171630859375
ell 6, elapsed: 0.0006010532379150391
ell 5, elapsed: 0.0006859302520751953
ell 4, elapsed: 0.0006020069122314453
ell 3, elapsed: 0.0007078647613525391
ell 2, elapsed: 0.0004780292510986328
ell 1, elapsed: 0.0007529258728027344
ell 0, elapsed: 0.0004432201385498047
  0.632054 seconds (41.19 k allocations: 2.939 MiB)
elapsed: 0.0007810592651367188
step:          0.065964 sec (0 allocations: 0 byte, 0.0% gc time)
swapping:      0.000762 sec (0 allocations: 0 byte, 0.0% gc time)
calc_Mellell!: 0.010821 sec (0 allocations: 0 byte, 0.0% gc time)
  t0 :  0.002415 sec (0 allocations: 0 byte, 0.0% gc time)
  tm2 : 0.099264 sec (0 allocations: 0 byte, 0.0% gc time)
  tm2s: 0.002061 sec (0 allocations: 0 byte, 0.0% gc time)
  tm4 : 0.263085 sec (0 allocations: 0 byte, 0.0% gc time)
  tp2 : 0.0 sec (0 allocations: 0 byte, 0.0% gc time)
  tp2s: 0.0 sec (0 allocations: 0 byte, 0.0% gc time)
  tp4 : 0.0 sec (0 allocations: 0 byte, 0.0% gc time)
calc_wtdll!:   0.39068 sec (9.87 k allocations: 1.043 MB, 0.0% gc time)
calc_wljj!:    0.04126 sec (689 allocations: 10.766 KB, 0.0% gc time)
mult_prefac!:  0.0 sec (0 allocations: 0 byte, 0.0% gc time)
convert:       0.0 sec (0 allocations: 0 byte, 0.0% gc time)
write:         0.046435 sec (0 allocations: 0 byte, 0.0% gc time)
test_rand_2f1: 0.0 sec (0 allocations: 0 byte, 0.0% gc time)
Closing outfile out/Ml21-cache.bin...   0.000041 seconds
  0.000579 seconds (52 allocations: 28.297 KiB)
make_phi():   0.011063 seconds (8.33 k allocations: 250.469 KiB)
  0.582342 seconds (733.29 k allocations: 63.221 MiB, 1.82% gc time)
tskip:       0.001368 sec (0 allocations: 0 byte, 0.0% gc time)
tread:       0.03033 sec (19 allocations: 10.688 KB, 0.0% gc time)
tmultphi:    0.014257 sec (0 allocations: 0 byte, 0.0% gc time)
tbrfft:      0.425224 sec (596.187 k allocations: 60.031 MB, 2.49% gc time)
tmultprefac: 0.039606 sec (0 allocations: 0 byte, 0.0% gc time)
toutfunc:    0.069045 sec (129.905 k allocations: 2.421 MB, 0.0% gc time)
Testing R=1.0 ... passed
Calculating fmax: 
  dlrec    = 4
  dlrecRg1 = -4
  q=1.1, R=0.9:	  0.459170 seconds (116.47 k allocations: 15.614 MiB)

  0.459635 seconds (116.50 k allocations: 15.647 MiB)
ℓ = 1202
Δℓ = 4
ΔℓRg1 = -4
N = 1600
q = 1.1
kmin = 1.0e-5
kmax = 100000.00000000004
χ0 = 0.023029999999999995
RR = RR.tsv
ℓmax = ℓmax.bin
f21 = f21.bin
kmin = 1.0e-5
kmax = 100000.0
dlrec    = 4
dlrecRg1 = -4
Output size: 5741568 bytes = 0.005347251892089844 GiB
Output size: 51264 bytes = 4.774332046508789e-5 GiB
Reading 'out/F21EllCache'...   0.001120 seconds (267 allocations: 84.656 KiB)
ellmax: 1202
lmaxcache: 1202
fell[:,1,1] = Complex{Float64}[1.3482014726274674e-57 - 3.302141236118086e-73im, 1.357860004724329e-57 - 3.3257978169518355e-73im]
ell 1202, elapsed: 2.193450927734375e-5
ell 1201, elapsed: 0.00041794776916503906
ell 1200, elapsed: 0.00037598609924316406
ell 1199, elapsed: 0.00037598609924316406
ell 1198, elapsed: 0.0003750324249267578
ell 1002, elapsed: 0.009830951690673828
ell 1001, elapsed: 0.0003781318664550781
ell 1000, elapsed: 0.00043201446533203125
ell 999, elapsed: 0.00036716461181640625
ell 998, elapsed: 0.00035190582275390625
ell 902, elapsed: 0.004786014556884766
ell 901, elapsed: 0.0005450248718261719
ell 900, elapsed: 0.00045490264892578125
ell 899, elapsed: 0.0004749298095703125
ell 898, elapsed: 0.0005009174346923828
ell 802, elapsed: 0.0055348873138427734
ell 801, elapsed: 0.0004680156707763672
ell 800, elapsed: 0.00037097930908203125
ell 799, elapsed: 0.0003781318664550781
ell 798, elapsed: 0.00035309791564941406
ell 702, elapsed: 0.0048711299896240234
ell 701, elapsed: 0.0003809928894042969
ell 700, elapsed: 0.00035691261291503906
ell 699, elapsed: 0.00042700767517089844
ell 698, elapsed: 0.0005609989166259766
ell 602, elapsed: 0.005612850189208984
ell 601, elapsed: 0.0005221366882324219
ell 600, elapsed: 0.0004830360412597656
ell 599, elapsed: 0.0003509521484375
ell 598, elapsed: 0.00035309791564941406
ell 502, elapsed: 0.005075931549072266
ell 501, elapsed: 0.0003960132598876953
ell 500, elapsed: 0.00037288665771484375
ell 499, elapsed: 0.0003559589385986328
ell 498, elapsed: 0.00035309791564941406
ell 402, elapsed: 0.004817008972167969
ell 401, elapsed: 0.0004680156707763672
ell 400, elapsed: 0.0005049705505371094
ell 399, elapsed: 0.00037288665771484375
ell 398, elapsed: 0.0003600120544433594
ell 302, elapsed: 0.004766941070556641
ell 301, elapsed: 0.00039005279541015625
ell 300, elapsed: 0.0003609657287597656
ell 299, elapsed: 0.0003581047058105469
ell 298, elapsed: 0.0003581047058105469
ell 202, elapsed: 0.004993915557861328
ell 201, elapsed: 0.00038504600524902344
ell 200, elapsed: 0.0004189014434814453
ell 199, elapsed: 0.0005700588226318359
ell 198, elapsed: 0.0005290508270263672
ell 152, elapsed: 0.0025048255920410156
ell 151, elapsed: 0.00037407875061035156
ell 150, elapsed: 0.0004200935363769531
ell 149, elapsed: 0.0005581378936767578
ell 148, elapsed: 0.0005669593811035156
ell 127, elapsed: 0.0015909671783447266
ell 126, elapsed: 0.0005671977996826172
ell 125, elapsed: 0.0005478858947753906
ell 124, elapsed: 0.0006511211395263672
ell 123, elapsed: 0.00057220458984375
ell 114, elapsed: 0.0011429786682128906
ell 113, elapsed: 0.0005869865417480469
ell 112, elapsed: 0.00042510032653808594
ell 111, elapsed: 0.0003559589385986328
ell 110, elapsed: 0.00035500526428222656
ell 102, elapsed: 0.0008609294891357422
ell 101, elapsed: 0.0003559589385986328
ell 100, elapsed: 0.00035309791564941406
ell 99, elapsed: 0.0004928112030029297
ell 98, elapsed: 0.0005259513854980469
ell 97, elapsed: 0.000579833984375
ell 96, elapsed: 0.0007760524749755859
ell 95, elapsed: 0.0006310939788818359
ell 94, elapsed: 0.0006351470947265625
ell 93, elapsed: 0.0004971027374267578
ell 92, elapsed: 0.0006551742553710938
ell 91, elapsed: 0.0003960132598876953
ell 90, elapsed: 0.0004642009735107422
ell 89, elapsed: 0.0005910396575927734
ell 88, elapsed: 0.0006120204925537109
ell 87, elapsed: 0.00040221214294433594
ell 86, elapsed: 0.00045299530029296875
ell 85, elapsed: 0.0003979206085205078
ell 84, elapsed: 0.0005600452423095703
ell 83, elapsed: 0.0005400180816650391
ell 82, elapsed: 0.0005970001220703125
ell 81, elapsed: 0.0005180835723876953
ell 80, elapsed: 0.0005559921264648438
ell 79, elapsed: 0.0006380081176757812
ell 78, elapsed: 0.0006530284881591797
ell 77, elapsed: 0.0004730224609375
ell 76, elapsed: 0.0006442070007324219
ell 75, elapsed: 0.00039696693420410156
ell 74, elapsed: 0.00045990943908691406
ell 73, elapsed: 0.000392913818359375
ell 72, elapsed: 0.0006291866302490234
ell 71, elapsed: 0.0005240440368652344
ell 70, elapsed: 0.0006458759307861328
ell 69, elapsed: 0.0005550384521484375
ell 68, elapsed: 0.0006098747253417969
ell 67, elapsed: 0.0003979206085205078
ell 66, elapsed: 0.000453948974609375
ell 65, elapsed: 0.0005400180816650391
ell 64, elapsed: 0.0006160736083984375
ell 63, elapsed: 0.0005548000335693359
ell 62, elapsed: 0.0007240772247314453
ell 61, elapsed: 0.0006108283996582031
ell 60, elapsed: 0.0005440711975097656
ell 59, elapsed: 0.0004780292510986328
ell 58, elapsed: 0.0007078647613525391
ell 57, elapsed: 0.0006170272827148438
ell 56, elapsed: 0.000553131103515625
ell 55, elapsed: 0.00041484832763671875
ell 54, elapsed: 0.0006349086761474609
ell 53, elapsed: 0.000514984130859375
ell 52, elapsed: 0.0006160736083984375
ell 51, elapsed: 0.0004911422729492188
ell 50, elapsed: 0.0004630088806152344
ell 49, elapsed: 0.0003979206085205078
ell 48, elapsed: 0.0007460117340087891
ell 47, elapsed: 0.00045800209045410156
ell 46, elapsed: 0.0006530284881591797
ell 45, elapsed: 0.0005438327789306641
ell 44, elapsed: 0.00061798095703125
ell 43, elapsed: 0.0003979206085205078
ell 42, elapsed: 0.0006690025329589844
ell 41, elapsed: 0.0005071163177490234
ell 40, elapsed: 0.0007081031799316406
ell 39, elapsed: 0.0004978179931640625
ell 38, elapsed: 0.0005829334259033203
ell 37, elapsed: 0.0005860328674316406
ell 36, elapsed: 0.0007240772247314453
ell 35, elapsed: 0.0005209445953369141
ell 34, elapsed: 0.0004589557647705078
ell 33, elapsed: 0.0004799365997314453
ell 32, elapsed: 0.0007090568542480469
ell 31, elapsed: 0.0005240440368652344
ell 30, elapsed: 0.0005750656127929688
ell 29, elapsed: 0.000637054443359375
ell 28, elapsed: 0.0005319118499755859
ell 27, elapsed: 0.0003979206085205078
ell 26, elapsed: 0.0006568431854248047
ell 25, elapsed: 0.0004439353942871094
ell 24, elapsed: 0.0006120204925537109
ell 23, elapsed: 0.0005700588226318359
ell 22, elapsed: 0.0004940032958984375
ell 21, elapsed: 0.0005810260772705078
ell 20, elapsed: 0.0006151199340820312
ell 19, elapsed: 0.0005481243133544922
ell 18, elapsed: 0.0007200241088867188
ell 17, elapsed: 0.0005178451538085938
ell 16, elapsed: 0.0006699562072753906
ell 15, elapsed: 0.0006251335144042969
ell 14, elapsed: 0.0007069110870361328
ell 13, elapsed: 0.0006248950958251953
ell 12, elapsed: 0.0007221698760986328
ell 11, elapsed: 0.0005240440368652344
ell 10, elapsed: 0.0007240772247314453
ell 9, elapsed: 0.0005509853363037109
ell 8, elapsed: 0.0005919933319091797
ell 7, elapsed: 0.0005009174346923828
ell 6, elapsed: 0.00045180320739746094
ell 5, elapsed: 0.000392913818359375
ell 4, elapsed: 0.0005838871002197266
ell 3, elapsed: 0.0006301403045654297
ell 2, elapsed: 0.00046896934509277344
ell 1, elapsed: 0.000576019287109375
ell 0, elapsed: 0.0005660057067871094
  0.145927 seconds (10.83 k allocations: 697.938 KiB)
elapsed: 0.0006330013275146484
step:          0.057672 sec (0 allocations: 0 byte, 0.0% gc time)
swapping:      0.000596 sec (0 allocations: 0 byte, 0.0% gc time)
calc_Mellell!: 0.00187 sec (0 allocations: 0 byte, 0.0% gc time)
  t0 :  0.000416 sec (0 allocations: 0 byte, 0.0% gc time)
  tm2 : 0.015458 sec (0 allocations: 0 byte, 0.0% gc time)
  tm2s: 0.000375 sec (0 allocations: 0 byte, 0.0% gc time)
  tm4 : 0.041102 sec (0 allocations: 0 byte, 0.0% gc time)
  tp2 : 0.0 sec (0 allocations: 0 byte, 0.0% gc time)
  tp2s: 0.0 sec (0 allocations: 0 byte, 0.0% gc time)
  tp4 : 0.0 sec (0 allocations: 0 byte, 0.0% gc time)
calc_wtdll!:   0.05804 sec (1.344 k allocations: 147.0 KB, 0.0% gc time)
calc_wljj!:    0.004936 sec (6 allocations: 96 byte, 0.0% gc time)
mult_prefac!:  0.0 sec (0 allocations: 0 byte, 0.0% gc time)
convert:       0.0 sec (0 allocations: 0 byte, 0.0% gc time)
write:         0.005022 sec (0 allocations: 0 byte, 0.0% gc time)
test_rand_2f1: 0.0 sec (0 allocations: 0 byte, 0.0% gc time)
Closing outfile out/Ml21-cache.bin...   0.000066 seconds
  0.000571 seconds (52 allocations: 28.297 KiB)
make_phi():   0.002924 seconds (8.33 k allocations: 250.500 KiB)
  0.040287 seconds (67.34 k allocations: 5.888 MiB)
tskip:       2.6e-5 sec (0 allocations: 0 byte, 0.0% gc time)
tread:       0.00265 sec (19 allocations: 2.172 KB, 0.0% gc time)
tmultphi:    0.001331 sec (0 allocations: 0 byte, 0.0% gc time)
tbrfft:      0.026221 sec (56.144 k allocations: 5.615 MB, 0.0% gc time)
tmultprefac: 0.003641 sec (0 allocations: 0 byte, 0.0% gc time)
toutfunc:    0.006299 sec (10.528 k allocations: 206.5 KB, 0.0% gc time)
Testing R=0.9 ... passed
Calculating fmax: 
  dlrec    = 4
  dlrecRg1 = -4
  q=1.1, R=0.8:	  0.358476 seconds (113.61 k allocations: 15.166 MiB)

  0.358766 seconds (113.65 k allocations: 15.200 MiB)
ℓ = 1202
Δℓ = 4
ΔℓRg1 = -4
N = 1600
q = 1.1
kmin = 1.0e-5
kmax = 100000.00000000004
χ0 = 0.023029999999999995
RR = RR.tsv
ℓmax = ℓmax.bin
f21 = f21.bin
kmin = 1.0e-5
kmax = 100000.0
dlrec    = 4
dlrecRg1 = -4
Output size: 5741568 bytes = 0.005347251892089844 GiB
Output size: 51264 bytes = 4.774332046508789e-5 GiB
Reading 'out/F21EllCache'...   0.001006 seconds (267 allocations: 84.656 KiB)
ellmax: 1202
lmaxcache: 1202
fell[:,1,1] = Complex{Float64}[7.519068145690986e-120 - 1.8416405474382574e-135im, 7.541664537386155e-120 - 1.847175067190611e-135im]
ell 1202, elapsed: 1.9073486328125e-5
ell 1201, elapsed: 0.0005278587341308594
ell 1200, elapsed: 0.0006189346313476562
ell 1199, elapsed: 0.0005078315734863281
ell 1198, elapsed: 0.0005629062652587891
ell 1002, elapsed: 0.010737180709838867
ell 1001, elapsed: 0.00047516822814941406
ell 1000, elapsed: 0.0005528926849365234
ell 999, elapsed: 0.0005559921264648438
ell 998, elapsed: 0.0005619525909423828
ell 902, elapsed: 0.005242109298706055
ell 901, elapsed: 0.0004398822784423828
ell 900, elapsed: 0.0006258487701416016
ell 899, elapsed: 0.00047707557678222656
ell 898, elapsed: 0.0004849433898925781
ell 802, elapsed: 0.005315065383911133
ell 801, elapsed: 0.00042891502380371094
ell 800, elapsed: 0.0004210472106933594
ell 799, elapsed: 0.0005028247833251953
ell 798, elapsed: 0.0005669593811035156
ell 702, elapsed: 0.005193948745727539
ell 701, elapsed: 0.0005369186401367188
ell 700, elapsed: 0.0006148815155029297
ell 699, elapsed: 0.0005159378051757812
ell 698, elapsed: 0.00047087669372558594
ell 602, elapsed: 0.0058591365814208984
ell 601, elapsed: 0.0005769729614257812
ell 600, elapsed: 0.0006110668182373047
ell 599, elapsed: 0.0005700588226318359
ell 598, elapsed: 0.00048089027404785156
ell 502, elapsed: 0.005682945251464844
ell 501, elapsed: 0.00044083595275878906
ell 500, elapsed: 0.00048613548278808594
ell 499, elapsed: 0.00048089027404785156
ell 498, elapsed: 0.00035119056701660156
ell 402, elapsed: 0.0056879520416259766
ell 401, elapsed: 0.00042891502380371094
ell 400, elapsed: 0.0004220008850097656
ell 399, elapsed: 0.00035309791564941406
ell 398, elapsed: 0.0003528594970703125
ell 302, elapsed: 0.005312919616699219
ell 301, elapsed: 0.0003578662872314453
ell 300, elapsed: 0.00034999847412109375
ell 299, elapsed: 0.0003478527069091797
ell 298, elapsed: 0.00047516822814941406
ell 202, elapsed: 0.0054168701171875
ell 201, elapsed: 0.0003650188446044922
ell 200, elapsed: 0.0004749298095703125
ell 199, elapsed: 0.0005559921264648438
ell 198, elapsed: 0.0005540847778320312
ell 152, elapsed: 0.002866983413696289
ell 151, elapsed: 0.0005090236663818359
ell 150, elapsed: 0.0005559921264648438
ell 149, elapsed: 0.0005640983581542969
ell 148, elapsed: 0.0005850791931152344
ell 127, elapsed: 0.0015859603881835938
ell 126, elapsed: 0.00074005126953125
ell 125, elapsed: 0.0004918575286865234
ell 124, elapsed: 0.000553131103515625
ell 123, elapsed: 0.0005578994750976562
ell 114, elapsed: 0.0012009143829345703
ell 113, elapsed: 0.0010008811950683594
ell 112, elapsed: 0.00035190582275390625
ell 111, elapsed: 0.00043010711669921875
ell 110, elapsed: 0.0005578994750976562
ell 102, elapsed: 0.0009670257568359375
ell 101, elapsed: 0.0004298686981201172
ell 100, elapsed: 0.0010199546813964844
ell 99, elapsed: 0.0005030632019042969
ell 98, elapsed: 0.00047397613525390625
ell 97, elapsed: 0.0004909038543701172
ell 96, elapsed: 0.0007178783416748047
ell 95, elapsed: 0.0006120204925537109
ell 94, elapsed: 0.0009801387786865234
ell 93, elapsed: 0.00039696693420410156
ell 92, elapsed: 0.00046181678771972656
ell 91, elapsed: 0.00049591064453125
ell 90, elapsed: 0.0006990432739257812
ell 89, elapsed: 0.0006051063537597656
ell 88, elapsed: 0.001087188720703125
ell 87, elapsed: 0.0006670951843261719
ell 86, elapsed: 0.0006258487701416016
ell 85, elapsed: 0.0007538795471191406
ell 84, elapsed: 0.0008139610290527344
ell 83, elapsed: 0.0007710456848144531
ell 82, elapsed: 0.0008649826049804688
ell 81, elapsed: 0.0006129741668701172
ell 80, elapsed: 0.0005810260772705078
ell 79, elapsed: 0.0006480216979980469
ell 78, elapsed: 0.0007300376892089844
ell 77, elapsed: 0.0007061958312988281
ell 76, elapsed: 0.0008068084716796875
ell 75, elapsed: 0.0007109642028808594
ell 74, elapsed: 0.0007789134979248047
ell 73, elapsed: 0.0006840229034423828
ell 72, elapsed: 0.0007147789001464844
ell 71, elapsed: 0.00045418739318847656
ell 70, elapsed: 0.0007140636444091797
ell 69, elapsed: 0.0005249977111816406
ell 68, elapsed: 0.0007100105285644531
ell 67, elapsed: 0.0005240440368652344
ell 66, elapsed: 0.0006401538848876953
ell 65, elapsed: 0.0006289482116699219
ell 64, elapsed: 0.0007300376892089844
ell 63, elapsed: 0.0006268024444580078
ell 62, elapsed: 0.000701904296875
ell 61, elapsed: 0.0006260871887207031
ell 60, elapsed: 0.0007100105285644531
ell 59, elapsed: 0.00045299530029296875
ell 58, elapsed: 0.0004820823669433594
ell 57, elapsed: 0.0005769729614257812
ell 56, elapsed: 0.0005199909210205078
ell 55, elapsed: 0.0005860328674316406
ell 54, elapsed: 0.0007150173187255859
ell 53, elapsed: 0.0006320476531982422
ell 52, elapsed: 0.0007779598236083984
ell 51, elapsed: 0.0006291866302490234
ell 50, elapsed: 0.0007178783416748047
ell 49, elapsed: 0.0006330013275146484
ell 48, elapsed: 0.0005061626434326172
ell 47, elapsed: 0.0004000663757324219
ell 46, elapsed: 0.0006301403045654297
ell 45, elapsed: 0.0005052089691162109
ell 44, elapsed: 0.0004570484161376953
ell 43, elapsed: 0.0005769729614257812
ell 42, elapsed: 0.0007059574127197266
ell 41, elapsed: 0.000637054443359375
ell 40, elapsed: 0.000698089599609375
ell 39, elapsed: 0.0006511211395263672
ell 38, elapsed: 0.0007231235504150391
ell 37, elapsed: 0.0006358623504638672
ell 36, elapsed: 0.0007259845733642578
ell 35, elapsed: 0.0006458759307861328
ell 34, elapsed: 0.0007498264312744141
ell 33, elapsed: 0.0006361007690429688
ell 32, elapsed: 0.0007059574127197266
[...]
ell 782, elapsed: 0.0019528865814208984
ell 781, elapsed: 0.0010900497436523438
ell 780, elapsed: 0.0010769367218017578
ell 779, elapsed: 0.0010640621185302734
ell 778, elapsed: 0.0010688304901123047
ell 772, elapsed: 0.001965045928955078
ell 771, elapsed: 0.0010809898376464844
ell 770, elapsed: 0.0009951591491699219
ell 769, elapsed: 0.000988006591796875
ell 768, elapsed: 0.0009999275207519531
ell 762, elapsed: 0.0020940303802490234
ell 761, elapsed: 0.000993967056274414
ell 760, elapsed: 0.0009889602661132812
ell 759, elapsed: 0.0011138916015625
ell 758, elapsed: 0.0009899139404296875
ell 752, elapsed: 0.0018770694732666016
ell 751, elapsed: 0.0011029243469238281
ell 750, elapsed: 0.0009779930114746094
ell 749, elapsed: 0.0009829998016357422
ell 748, elapsed: 0.0009999275207519531
ell 742, elapsed: 0.0020029544830322266
ell 741, elapsed: 0.0009911060333251953
ell 740, elapsed: 0.0009899139404296875
ell 739, elapsed: 0.0008089542388916016
ell 738, elapsed: 0.0006442070007324219
ell 732, elapsed: 0.0011548995971679688
ell 731, elapsed: 0.0006539821624755859
ell 730, elapsed: 0.0006339550018310547
ell 729, elapsed: 0.0009369850158691406
ell 728, elapsed: 0.0009810924530029297
ell 722, elapsed: 0.0018420219421386719
ell 721, elapsed: 0.0008940696716308594
ell 720, elapsed: 0.0008108615875244141
ell 719, elapsed: 0.0008089542388916016
ell 718, elapsed: 0.0008130073547363281
ell 712, elapsed: 0.0015349388122558594
ell 711, elapsed: 0.0008389949798583984
ell 710, elapsed: 0.00080108642578125
ell 709, elapsed: 0.0007960796356201172
ell 708, elapsed: 0.00084686279296875
ell 702, elapsed: 0.0018351078033447266
ell 701, elapsed: 0.0009839534759521484
ell 700, elapsed: 0.0009360313415527344
ell 699, elapsed: 0.000823974609375
ell 698, elapsed: 0.0008180141448974609
ell 692, elapsed: 0.0015671253204345703
ell 691, elapsed: 0.0008499622344970703
ell 690, elapsed: 0.0009279251098632812
ell 689, elapsed: 0.0009620189666748047
ell 688, elapsed: 0.0009849071502685547
ell 682, elapsed: 0.0015981197357177734
ell 681, elapsed: 0.0008070468902587891
ell 680, elapsed: 0.0008099079132080078
ell 679, elapsed: 0.0008060932159423828
ell 678, elapsed: 0.0008881092071533203
ell 672, elapsed: 0.0018360614776611328
ell 671, elapsed: 0.0009849071502685547
ell 670, elapsed: 0.0008909702301025391
ell 669, elapsed: 0.0008070468902587891
ell 668, elapsed: 0.0007998943328857422
ell 662, elapsed: 0.0014929771423339844
ell 661, elapsed: 0.000885009765625
ell 660, elapsed: 0.0009770393371582031
ell 659, elapsed: 0.0009829998016357422
ell 658, elapsed: 0.0009839534759521484
ell 652, elapsed: 0.0016009807586669922
ell 651, elapsed: 0.0007891654968261719
ell 650, elapsed: 0.0008101463317871094
ell 649, elapsed: 0.0008180141448974609
ell 648, elapsed: 0.0009059906005859375
ell 642, elapsed: 0.0018339157104492188
ell 641, elapsed: 0.000982046127319336
ell 640, elapsed: 0.0009250640869140625
ell 639, elapsed: 0.0008311271667480469
ell 638, elapsed: 0.0008230209350585938
ell 632, elapsed: 0.0015900135040283203
ell 631, elapsed: 0.0008580684661865234
ell 630, elapsed: 0.0008001327514648438
ell 629, elapsed: 0.0008111000061035156
ell 628, elapsed: 0.0007979869842529297
ell 622, elapsed: 0.0015380382537841797
ell 621, elapsed: 0.0008180141448974609
ell 620, elapsed: 0.0008189678192138672
ell 619, elapsed: 0.0008308887481689453
ell 618, elapsed: 0.0008740425109863281
ell 612, elapsed: 0.0015499591827392578
ell 611, elapsed: 0.0007910728454589844
ell 610, elapsed: 0.0008330345153808594
ell 609, elapsed: 0.001116037368774414
ell 608, elapsed: 0.0008020401000976562
ell 602, elapsed: 0.0015327930450439453
ell 601, elapsed: 0.0008320808410644531
ell 600, elapsed: 0.0008199214935302734
ell 599, elapsed: 0.0008151531219482422
ell 598, elapsed: 0.0008139610290527344
ell 592, elapsed: 0.0015828609466552734
ell 591, elapsed: 0.0008211135864257812
ell 590, elapsed: 0.0008130073547363281
ell 589, elapsed: 0.0008139610290527344
ell 588, elapsed: 0.0008180141448974609
ell 582, elapsed: 0.001560211181640625
ell 581, elapsed: 0.000823974609375
ell 580, elapsed: 0.000823974609375
ell 579, elapsed: 0.0008058547973632812
ell 578, elapsed: 0.0008418560028076172
ell 572, elapsed: 0.0015637874603271484
ell 571, elapsed: 0.0008211135864257812
ell 570, elapsed: 0.0009260177612304688
ell 569, elapsed: 0.0008180141448974609
ell 568, elapsed: 0.000820159912109375
ell 562, elapsed: 0.0015420913696289062
ell 561, elapsed: 0.000926971435546875
ell 560, elapsed: 0.0008168220520019531
ell 559, elapsed: 0.0008099079132080078
ell 558, elapsed: 0.001088857650756836
ell 552, elapsed: 0.001661062240600586
ell 551, elapsed: 0.0008139610290527344
ell 550, elapsed: 0.0008299350738525391
ell 549, elapsed: 0.0008211135864257812
ell 548, elapsed: 0.0009388923645019531
ell 542, elapsed: 0.0015308856964111328
ell 541, elapsed: 0.0008141994476318359
ell 540, elapsed: 0.0008361339569091797
ell 539, elapsed: 0.0009300708770751953
ell 538, elapsed: 0.0008070468902587891
ell 532, elapsed: 0.001538991928100586
ell 531, elapsed: 0.0009238719940185547
ell 530, elapsed: 0.0008161067962646484
ell 529, elapsed: 0.0008170604705810547
ell 528, elapsed: 0.0008280277252197266
ell 522, elapsed: 0.0018680095672607422
ell 521, elapsed: 0.0008270740509033203
ell 520, elapsed: 0.0008008480072021484
ell 519, elapsed: 0.0008080005645751953
ell 518, elapsed: 0.0010330677032470703
ell 512, elapsed: 0.0015430450439453125
ell 511, elapsed: 0.0008280277252197266
ell 510, elapsed: 0.0008151531219482422
ell 509, elapsed: 0.0009150505065917969
ell 508, elapsed: 0.000820159912109375
ell 502, elapsed: 0.0015330314636230469
ell 501, elapsed: 0.0008108615875244141
ell 500, elapsed: 0.0008418560028076172
ell 499, elapsed: 0.0007829666137695312
ell 498, elapsed: 0.0008070468902587891
ell 492, elapsed: 0.0015048980712890625
ell 491, elapsed: 0.0008721351623535156
ell 490, elapsed: 0.0008008480072021484
ell 489, elapsed: 0.0008299350738525391
ell 488, elapsed: 0.0008320808410644531
ell 482, elapsed: 0.0015468597412109375
ell 481, elapsed: 0.0007898807525634766
ell 480, elapsed: 0.0007958412170410156
ell 479, elapsed: 0.0008199214935302734
ell 478, elapsed: 0.0008211135864257812
ell 472, elapsed: 0.001550912857055664
ell 471, elapsed: 0.0007979869842529297
ell 470, elapsed: 0.000823974609375
ell 469, elapsed: 0.0008490085601806641
ell 468, elapsed: 0.0008180141448974609
ell 462, elapsed: 0.001550912857055664
ell 461, elapsed: 0.0008339881896972656
ell 460, elapsed: 0.000843048095703125
ell 459, elapsed: 0.0008299350738525391
ell 458, elapsed: 0.0008101463317871094
ell 452, elapsed: 0.0015468597412109375
ell 451, elapsed: 0.0008189678192138672
ell 450, elapsed: 0.0008170604705810547
ell 449, elapsed: 0.0008149147033691406
ell 448, elapsed: 0.0008280277252197266
ell 442, elapsed: 0.0015559196472167969
ell 441, elapsed: 0.0008289813995361328
ell 440, elapsed: 0.0008361339569091797
ell 439, elapsed: 0.0008208751678466797
ell 438, elapsed: 0.0008330345153808594
ell 432, elapsed: 0.0014879703521728516
ell 431, elapsed: 0.000820159912109375
ell 430, elapsed: 0.0008130073547363281
ell 429, elapsed: 0.0008258819580078125
ell 428, elapsed: 0.0008270740509033203
ell 422, elapsed: 0.001544952392578125
ell 421, elapsed: 0.000820159912109375
ell 420, elapsed: 0.0008361339569091797
ell 419, elapsed: 0.000823974609375
ell 418, elapsed: 0.000823974609375
ell 412, elapsed: 0.0015828609466552734
ell 411, elapsed: 0.0008199214935302734
ell 410, elapsed: 0.0008158683776855469
ell 409, elapsed: 0.0008111000061035156
ell 408, elapsed: 0.0008280277252197266
ell 402, elapsed: 0.001569986343383789
ell 401, elapsed: 0.0008261203765869141
ell 400, elapsed: 0.0010700225830078125
ell 399, elapsed: 0.0008349418640136719
ell 398, elapsed: 0.0008242130279541016
ell 392, elapsed: 0.0018291473388671875
ell 391, elapsed: 0.0008268356323242188
ell 390, elapsed: 0.0008449554443359375
ell 389, elapsed: 0.0008099079132080078
ell 388, elapsed: 0.0008299350738525391
ell 382, elapsed: 0.001544952392578125
ell 381, elapsed: 0.0008339881896972656
ell 380, elapsed: 0.0008230209350585938
ell 379, elapsed: 0.0008351802825927734
ell 378, elapsed: 0.0008149147033691406
ell 372, elapsed: 0.0016560554504394531
ell 371, elapsed: 0.0008220672607421875
ell 370, elapsed: 0.0008111000061035156
ell 369, elapsed: 0.0008161067962646484
ell 368, elapsed: 0.0008308887481689453
ell 362, elapsed: 0.0015718936920166016
ell 361, elapsed: 0.0008230209350585938
ell 360, elapsed: 0.0008249282836914062
ell 359, elapsed: 0.0008399486541748047
ell 358, elapsed: 0.0008249282836914062
ell 352, elapsed: 0.0015630722045898438
ell 351, elapsed: 0.0008208751678466797
ell 350, elapsed: 0.0008389949798583984
ell 349, elapsed: 0.0008230209350585938
ell 348, elapsed: 0.0008258819580078125
ell 342, elapsed: 0.0015759468078613281
ell 341, elapsed: 0.0008220672607421875
ell 340, elapsed: 0.0008151531219482422
ell 339, elapsed: 0.0007989406585693359
ell 338, elapsed: 0.0008120536804199219
ell 332, elapsed: 0.0015289783477783203
ell 331, elapsed: 0.0008180141448974609
ell 330, elapsed: 0.000823974609375
ell 329, elapsed: 0.0008490085601806641
ell 328, elapsed: 0.0008568763732910156
ell 322, elapsed: 0.0015461444854736328
ell 321, elapsed: 0.0008099079132080078
ell 320, elapsed: 0.0008220672607421875
ell 319, elapsed: 0.0008349418640136719
ell 318, elapsed: 0.0008399486541748047
ell 312, elapsed: 0.0015020370483398438
ell 311, elapsed: 0.0008089542388916016
ell 310, elapsed: 0.0008208751678466797
ell 309, elapsed: 0.000823974609375
ell 308, elapsed: 0.0008289813995361328
ell 302, elapsed: 0.0015380382537841797
ell 301, elapsed: 0.0007998943328857422
ell 300, elapsed: 0.0008060932159423828
ell 299, elapsed: 0.0008070468902587891
ell 298, elapsed: 0.0008180141448974609
ell 292, elapsed: 0.001550912857055664
ell 291, elapsed: 0.0008280277252197266
ell 290, elapsed: 0.0008270740509033203
ell 289, elapsed: 0.0008299350738525391
ell 288, elapsed: 0.0008609294891357422
ell 282, elapsed: 0.0015480518341064453
ell 281, elapsed: 0.0008218288421630859
ell 280, elapsed: 0.0007989406585693359
ell 279, elapsed: 0.000823974609375
ell 278, elapsed: 0.0008199214935302734
ell 272, elapsed: 0.0015339851379394531
ell 271, elapsed: 0.0008480548858642578
ell 270, elapsed: 0.0008120536804199219
ell 269, elapsed: 0.0008170604705810547
ell 268, elapsed: 0.0007948875427246094
ell 262, elapsed: 0.001561880111694336
ell 261, elapsed: 0.0008029937744140625
ell 260, elapsed: 0.0008118152618408203
ell 259, elapsed: 0.0007989406585693359
ell 258, elapsed: 0.0008080005645751953
ell 252, elapsed: 0.001558065414428711
ell 251, elapsed: 0.0007979869842529297
ell 250, elapsed: 0.0008301734924316406
ell 249, elapsed: 0.0008249282836914062
ell 248, elapsed: 0.0008180141448974609
ell 242, elapsed: 0.0015361309051513672
ell 241, elapsed: 0.0008199214935302734
ell 240, elapsed: 0.0008211135864257812
ell 239, elapsed: 0.0008862018585205078
ell 238, elapsed: 0.0008308887481689453
ell 232, elapsed: 0.0015740394592285156
ell 231, elapsed: 0.0008399486541748047
ell 230, elapsed: 0.0008029937744140625
ell 229, elapsed: 0.0007798671722412109
ell 228, elapsed: 0.0007920265197753906
ell 222, elapsed: 0.0015380382537841797
ell 221, elapsed: 0.0008118152618408203
ell 220, elapsed: 0.0008220672607421875
ell 219, elapsed: 0.00080108642578125
ell 218, elapsed: 0.0007989406585693359
ell 212, elapsed: 0.001764059066772461
ell 211, elapsed: 0.0007619857788085938
ell 210, elapsed: 0.0008361339569091797
ell 209, elapsed: 0.0008139610290527344
ell 208, elapsed: 0.0008230209350585938
ell 202, elapsed: 0.0017600059509277344
ell 201, elapsed: 0.0008158683776855469
ell 200, elapsed: 0.0008270740509033203
ell 199, elapsed: 0.0008192062377929688
ell 198, elapsed: 0.0008218288421630859
ell 192, elapsed: 0.0015680789947509766
ell 191, elapsed: 0.0008449554443359375
ell 190, elapsed: 0.0008440017700195312
ell 189, elapsed: 0.000820159912109375
ell 188, elapsed: 0.0008180141448974609
ell 182, elapsed: 0.0015840530395507812
ell 181, elapsed: 0.0008268356323242188
ell 180, elapsed: 0.0008168220520019531
ell 179, elapsed: 0.0008111000061035156
ell 178, elapsed: 0.0008320808410644531
ell 172, elapsed: 0.0015680789947509766
ell 171, elapsed: 0.0008230209350585938
ell 170, elapsed: 0.0008199214935302734
ell 169, elapsed: 0.0008478164672851562
ell 168, elapsed: 0.0008420944213867188
ell 162, elapsed: 0.0015399456024169922
ell 161, elapsed: 0.0008180141448974609
ell 160, elapsed: 0.0008399486541748047
ell 159, elapsed: 0.0008251667022705078
ell 158, elapsed: 0.000823974609375
ell 152, elapsed: 0.0015528202056884766
ell 151, elapsed: 0.000823974609375
ell 150, elapsed: 0.0008208751678466797
ell 149, elapsed: 0.0008161067962646484
ell 148, elapsed: 0.0008170604705810547
ell 142, elapsed: 0.0015401840209960938
ell 141, elapsed: 0.0008399486541748047
ell 140, elapsed: 0.0008230209350585938
ell 139, elapsed: 0.0008301734924316406
ell 138, elapsed: 0.0008308887481689453
ell 132, elapsed: 0.0015399456024169922
ell 131, elapsed: 0.0008389949798583984
ell 130, elapsed: 0.0008339881896972656
ell 129, elapsed: 0.0008370876312255859
ell 128, elapsed: 0.0008230209350585938
ell 122, elapsed: 0.0016469955444335938
ell 121, elapsed: 0.0008339881896972656
ell 120, elapsed: 0.0008537769317626953
ell 119, elapsed: 0.0008161067962646484
ell 118, elapsed: 0.0008480548858642578
ell 112, elapsed: 0.0015799999237060547
ell 111, elapsed: 0.0008451938629150391
ell 110, elapsed: 0.00086212158203125
ell 109, elapsed: 0.0008499622344970703
ell 108, elapsed: 0.0008490085601806641
ell 102, elapsed: 0.0016150474548339844
ell 101, elapsed: 0.003412961959838867
ell 100, elapsed: 0.0031499862670898438
ell 99, elapsed: 0.0031480789184570312
ell 98, elapsed: 0.003704071044921875
ell 92, elapsed: 0.0061299800872802734
ell 91, elapsed: 0.003409862518310547
ell 90, elapsed: 0.0031800270080566406
ell 89, elapsed: 0.0031709671020507812
ell 88, elapsed: 0.0032341480255126953
ell 82, elapsed: 0.006195068359375
ell 81, elapsed: 0.0036602020263671875
ell 80, elapsed: 0.003092050552368164
ell 79, elapsed: 0.0034270286560058594
ell 78, elapsed: 0.0037088394165039062
ell 72, elapsed: 0.005961894989013672
ell 71, elapsed: 0.0036230087280273438
ell 70, elapsed: 0.0031609535217285156
ell 69, elapsed: 0.0037088394165039062
ell 68, elapsed: 0.004001140594482422
ell 62, elapsed: 0.006278038024902344
ell 61, elapsed: 0.003626108169555664
ell 60, elapsed: 0.0035409927368164062
ell 59, elapsed: 0.0036118030548095703
ell 58, elapsed: 0.003133058547973633
ell 52, elapsed: 0.005806922912597656
ell 51, elapsed: 0.003178119659423828
ell 50, elapsed: 0.0031740665435791016
ell 49, elapsed: 0.004208087921142578
ell 48, elapsed: 0.004433870315551758
ell 42, elapsed: 0.0065000057220458984
ell 41, elapsed: 0.004463911056518555
ell 40, elapsed: 0.004240989685058594
ell 39, elapsed: 0.0031180381774902344
ell 38, elapsed: 0.003407001495361328
ell 32, elapsed: 0.0058209896087646484
ell 31, elapsed: 0.004205942153930664
ell 30, elapsed: 0.004273891448974609
ell 29, elapsed: 0.004418849945068359
ell 28, elapsed: 0.004509925842285156
ell 22, elapsed: 0.006520986557006836
ell 21, elapsed: 0.003976106643676758
ell 20, elapsed: 0.0038521289825439453
ell 19, elapsed: 0.003222942352294922
ell 18, elapsed: 0.0031430721282958984
ell 12, elapsed: 0.0063610076904296875
ell 11, elapsed: 0.0033910274505615234
ell 10, elapsed: 0.003262042999267578
ell 9, elapsed: 0.0038890838623046875
ell 8, elapsed: 0.003865957260131836
  0.810962 seconds (66.75 k allocations: 12.139 MiB)
elapsed: 0.004965066909790039
step:          0.076384 sec (0 allocations: 0 byte, 0.0% gc time)
swapping:      0.000835 sec (0 allocations: 0 byte, 0.0% gc time)
calc_Mellell!: 0.039058 sec (0 allocations: 0 byte, 0.0% gc time)
  t0 :  0.010545 sec (0 allocations: 0 byte, 0.0% gc time)
  tm2 : 0.079629 sec (0 allocations: 0 byte, 0.0% gc time)
  tm2s: 0.009507 sec (0 allocations: 0 byte, 0.0% gc time)
  tm4 : 0.190872 sec (0 allocations: 0 byte, 0.0% gc time)
  tp2 : 0.0 sec (0 allocations: 0 byte, 0.0% gc time)
  tp2s: 0.0 sec (0 allocations: 0 byte, 0.0% gc time)
  tp4 : 0.0 sec (0 allocations: 0 byte, 0.0% gc time)
calc_wtdll!:   0.568952 sec (49.2 k allocations: 11.133 MB, 0.0% gc time)
calc_wljj!:    0.040539 sec (69 allocations: 1.078 KB, 0.0% gc time)
mult_prefac!:  0.0 sec (0 allocations: 0 byte, 0.0% gc time)
convert:       0.0 sec (0 allocations: 0 byte, 0.0% gc time)
write:         0.034266 sec (0 allocations: 0 byte, 0.0% gc time)
test_rand_2f1: 0.0 sec (0 allocations: 0 byte, 0.0% gc time)
Closing outfile out/MlCache/MlCache.bin...   0.000009 seconds
xi, l=0, nu=0:   0.416792 seconds (552.12 k allocations: 26.869 MiB, 3.17% gc time)
xi, l=0, nu=-2:  0.003343 seconds (423 allocations: 177.078 KiB)
Created 'out/xi.tsv'.
  q=1.1, R=0.6:	  0.734431 seconds (291.08 k allocations: 38.895 MiB, 1.68% gc time)
  q=1.1, R=0.7:	  0.871928 seconds (304.75 k allocations: 40.996 MiB, 1.05% gc time)
  q=1.1, R=0.8:	  0.880689 seconds (299.14 k allocations: 40.132 MiB, 0.84% gc time)
  q=1.1, R=0.9:	  0.979756 seconds (293.57 k allocations: 39.286 MiB, 0.76% gc time)
  q=1.1, R=0.998:	 22.090839 seconds (10.67 M allocations: 823.453 MiB, 0.32% gc time)
  q=1.1, R=1.0:	  0.004566 seconds (10.24 k allocations: 768.375 KiB)

ℓ = 1000
Δℓ = 4
ΔℓRg1 = -4
N = 4096
q = 1.1
kmin = 1.0e-5
kmax = 1000.0
χ0 = 0.001
RR = RR.tsv
ℓmax = ℓmax.bin
f21 = f21.bin
kmin = 1.0e-5
kmax = 1000.0
dlrec    = 4
dlrecRg1 = -4
Output size: 1573632 bytes = 0.0014655590057373047 GiB
Output size: 786816 bytes = 0.0007327795028686523 GiB
Reading 'out/F21EllCache'...   0.001460 seconds (268 allocations: 533.531 KiB)
ellmax: 1002
lmaxcache: 1000
fell[:,1,1] = Complex{Float64}[1.7262928128202118e-224 - 4.2281979352226944e-240im, 1.7282693092099662e-224 - 4.233038955177176e-240im]
ell 1002, elapsed: 2.002716064453125e-5
ell 1001, elapsed: 0.0014281272888183594
ell 1000, elapsed: 0.0011930465698242188
ell 999, elapsed: 0.006596803665161133
ell 998, elapsed: 0.0069658756256103516
ell 44, elapsed: 0.7083730697631836
ell 43, elapsed: 0.006721973419189453
ell 42, elapsed: 0.0068149566650390625
ell 41, elapsed: 0.006422996520996094
ell 40, elapsed: 0.00716090202331543
  0.760044 seconds (4.55 k allocations: 320.359 KiB)
elapsed: 0.0075681209564208984
step:          0.705432 sec (0 allocations: 0 byte, 0.0% gc time)
swapping:      0.000514 sec (0 allocations: 0 byte, 0.0% gc time)
calc_Mellell!: 0.001508 sec (0 allocations: 0 byte, 0.0% gc time)
  t0 :  0.000883 sec (0 allocations: 0 byte, 0.0% gc time)
  tm2 : 0.012662 sec (0 allocations: 0 byte, 0.0% gc time)
  tm2s: 0.000818 sec (0 allocations: 0 byte, 0.0% gc time)
  tm4 : 0.031866 sec (0 allocations: 0 byte, 0.0% gc time)
  tp2 : 0.0 sec (0 allocations: 0 byte, 0.0% gc time)
  tp2s: 0.0 sec (0 allocations: 0 byte, 0.0% gc time)
  tp4 : 0.0 sec (0 allocations: 0 byte, 0.0% gc time)
calc_wtdll!:   0.046455 sec (480 allocations: 52.5 KB, 0.0% gc time)
calc_wljj!:    0.001724 sec (1 allocations: 16 byte, 0.0% gc time)
mult_prefac!:  0.0 sec (0 allocations: 0 byte, 0.0% gc time)
convert:       0.0 sec (0 allocations: 0 byte, 0.0% gc time)
write:         0.001025 sec (0 allocations: 0 byte, 0.0% gc time)
test_rand_2f1: 0.0 sec (0 allocations: 0 byte, 0.0% gc time)
Closing outfile out/MlCache/MlCache.bin...   0.000007 seconds
  1.744336 seconds (579.28 k allocations: 56.546 MiB, 0.49% gc time)
make_phi():   0.024784 seconds (225 allocations: 290.906 KiB)
  0.006579 seconds (6.00 k allocations: 616.844 KiB)
tskip:       1.0e-6 sec (0 allocations: 0 byte, 0.0% gc time)
tread:       0.000657 sec (19 allocations: 1.312 KB, 0.0% gc time)
tmultphi:    0.000377 sec (0 allocations: 0 byte, 0.0% gc time)
tbrfft:      0.004265 sec (5.986 k allocations: 615.531 KB, 0.0% gc time)
tmultprefac: 0.001097 sec (0 allocations: 0 byte, 0.0% gc time)
toutfunc:    0.000284 sec (0 allocations: 0 byte, 0.0% gc time)
Created 'out/wl42_jj00.tsv'.
Created 'out/wl42_jj02.tsv'.
    Testing TwoFAST tests passed 
