Julia Version 1.6.0-DEV.1175
Commit 7f7ab69fd3 (2020-10-09 21:29 UTC)
Platform Info:
  OS: Linux (x86_64-pc-linux-gnu)
  CPU: AMD EPYC 7502 32-Core Processor
  WORD_SIZE: 64
  LIBM: libopenlibm
  LLVM: libLLVM-10.0.1 (ORCJIT, znver2)
Environment:
  JULIA_DEPOT_PATH = ::/usr/local/share/julia
  JULIA_NUM_THREADS = 2
  JULIA_MAX_NUM_PRECOMPILE_FILES = 9223372036854775807

  Resolving package versions...
  Installed AbstractFFTs ───────────────── v0.5.0
  Installed GenericSVD ─────────────────── v0.3.0
  Installed CompilerSupportLibraries_jll ─ v0.3.3+0
  Installed FFTW ───────────────────────── v1.2.4
  Installed GenericSchur ───────────────── v0.4.0
  Installed SpecialFunctions ───────────── v0.10.3
  Installed ArbNumerics ────────────────── v1.2.1
  Installed IntelOpenMP_jll ────────────── v2018.0.3+0
  Installed Readables ──────────────────── v0.3.3
  Installed BinaryProvider ─────────────── v0.5.10
  Installed MKL_jll ────────────────────── v2020.2.254+0
  Installed OpenSpecFun_jll ────────────── v0.5.3+3
  Installed FFTW_jll ───────────────────── v3.3.9+5
  Installed Reexport ───────────────────── v0.2.0
  Installed TwoFAST ────────────────────── v0.1.3
Updating `~/.julia/environments/v1.6/Project.toml`
  [0dd23c3e] + TwoFAST v0.1.3
Updating `~/.julia/environments/v1.6/Manifest.toml`
  [621f4979] + AbstractFFTs v0.5.0
  [7e558dbc] + ArbNumerics v1.2.1
  [b99e7846] + BinaryProvider v0.5.10
  [e66e0078] + CompilerSupportLibraries_jll v0.3.3+0
  [7a1cc6ca] + FFTW v1.2.4
  [f5851436] + FFTW_jll v3.3.9+5
  [01680d73] + GenericSVD v0.3.0
  [c145ed77] + GenericSchur v0.4.0
  [1d5cc7b8] + IntelOpenMP_jll v2018.0.3+0
  [856f044c] + MKL_jll v2020.2.254+0
  [efe28fd5] + OpenSpecFun_jll v0.5.3+3
  [0d4725de] + Readables v0.3.3
  [189a3867] + Reexport v0.2.0
  [276daf66] + SpecialFunctions v0.10.3
  [0dd23c3e] + TwoFAST v0.1.3
  [56f22d72] + Artifacts
  [2a0f44e3] + Base64
  [ade2ca70] + Dates
  [8bb1440f] + DelimitedFiles
  [b77e0a4c] + InteractiveUtils
  [76f85450] + LibGit2
  [8f399da3] + Libdl
  [37e2e46d] + LinearAlgebra
  [56ddb016] + Logging
  [d6f4376e] + Markdown
  [a63ad114] + Mmap
  [44cfe95a] + Pkg
  [de0858da] + Printf
  [3fa0cd96] + REPL
  [9a3f8284] + Random
  [ea8e919c] + SHA
  [9e88b42a] + Serialization
  [6462fe0b] + Sockets
  [fa267f1f] + TOML
  [8dfed614] + Test
  [cf7118a7] + UUIDs
  [4ec0a83e] + Unicode
   Building FFTW ───────→ `~/.julia/scratchspaces/44cfe95a-1eb2-52ea-b672-e2afdf69b78f/8b7c16b56936047ca41bf25effa137ae0b381ae8/build.log`
   Building ArbNumerics → `~/.julia/scratchspaces/44cfe95a-1eb2-52ea-b672-e2afdf69b78f/329a81d67c64e3a51c176a243b6424fbe39213d0/build.log`
    Testing TwoFAST
Status `/tmp/jl_exW4u0/Project.toml`
  [7e558dbc] ArbNumerics v1.2.1
  [39dd38d3] Dierckx v0.5.0
  [7a1cc6ca] FFTW v1.2.4
  [276daf66] SpecialFunctions v0.10.3
  [0dd23c3e] TwoFAST v0.1.3
  [8bb1440f] DelimitedFiles
  [37e2e46d] LinearAlgebra
  [56ddb016] Logging
  [8dfed614] Test
Status `/tmp/jl_exW4u0/Manifest.toml`
  [621f4979] AbstractFFTs v0.5.0
  [7e558dbc] ArbNumerics v1.2.1
  [b99e7846] BinaryProvider v0.5.10
  [e66e0078] CompilerSupportLibraries_jll v0.3.3+0
  [39dd38d3] Dierckx v0.5.0
  [cd4c43a9] Dierckx_jll v0.0.1+0
  [7a1cc6ca] FFTW v1.2.4
  [f5851436] FFTW_jll v3.3.9+5
  [01680d73] GenericSVD v0.3.0
  [c145ed77] GenericSchur v0.4.0
  [1d5cc7b8] IntelOpenMP_jll v2018.0.3+0
  [856f044c] MKL_jll v2020.2.254+0
  [efe28fd5] OpenSpecFun_jll v0.5.3+3
  [0d4725de] Readables v0.3.3
  [189a3867] Reexport v0.2.0
  [276daf66] SpecialFunctions v0.10.3
  [0dd23c3e] TwoFAST v0.1.3
  [56f22d72] Artifacts
  [2a0f44e3] Base64
  [ade2ca70] Dates
  [8bb1440f] DelimitedFiles
  [b77e0a4c] InteractiveUtils
  [76f85450] LibGit2
  [8f399da3] Libdl
  [37e2e46d] LinearAlgebra
  [56ddb016] Logging
  [d6f4376e] Markdown
  [a63ad114] Mmap
  [44cfe95a] Pkg
  [de0858da] Printf
  [3fa0cd96] REPL
  [9a3f8284] Random
  [ea8e919c] SHA
  [9e88b42a] Serialization
  [6462fe0b] Sockets
  [fa267f1f] TOML
  [8dfed614] Test
  [cf7118a7] UUIDs
  [4ec0a83e] Unicode
    Testing Running tests...
WARNING: could not import Printf.ini_hex into ArbNumerics
WARNING: could not import Printf.ini_HEX into ArbNumerics
t = 0.0 sec (0 allocations: 0 byte, 0.0% gc time)
typeof(t) = NamedTuple{(:value, :time, :bytes, :gctime, :gcstats), Tuple{DataType, Float64, Int64, Float64, Base.GC_Diff}}
TwoFAST.PerformanceStats.TimedType = Union{NamedTuple{(:value, :time, :bytes, :gctime, :gcstats), Tuple{T, Float64, Int64, Float64, Base.GC_Diff}}, Tuple{Any, Float64, Int64, Float64, Base.GC_Diff}} where T
t = 0.0 sec (0 allocations: 0 byte, 0.0% gc time)
t: 0.0 sec (0 allocations: 0 byte, 0.0% gc time)
Testing ξ(r), ℓ=0, ν=-1 ... passed
Testing ξ(r), ℓ=0, ν=0 ... passed
Testing ξ(r), ℓ=0, ν=1 ... passed
Testing ξ(r), ℓ=0, ν=2 ... passed
Testing ξ(r), ℓ=0, ν=3 ... passed
Testing ξ(r), ℓ=1, ν=0 ... passed
Testing ξ(r), ℓ=1, ν=1 ... passed
Testing ξ(r), ℓ=1, ν=2 ... passed
Testing ξ(r), ℓ=1, ν=3 ... passed
Testing ξ(r), ℓ=2, ν=-1 ... passed
Testing ξ(r), ℓ=2, ν=0 ... passed
Testing ξ(r), ℓ=2, ν=1 ... passed
Testing ξ(r), ℓ=2, ν=2 ... passed
Testing ξ(r), ℓ=2, ν=3 ... passed
Testing ξ(r), ℓ=3, ν=-1 ... passed
Testing ξ(r), ℓ=3, ν=0 ... passed
Testing ξ(r), ℓ=3, ν=1 ... passed
Testing ξ(r), ℓ=3, ν=2 ... passed
Testing ξ(r), ℓ=3, ν=3 ... passed
Testing ξ(r), ℓ=4, ν=-1 ... passed
Testing ξ(r), ℓ=4, ν=0 ... passed
Testing ξ(r), ℓ=4, ν=1 ... passed
Testing ξ(r), ℓ=4, ν=2 ... passed
Testing ξ(r), ℓ=4, ν=3 ... passed
Testing ξ(r) ... passed
Testing ξ′(r) ... passed
Testing ξ″(r) ... passed
Calculating fmax: 
  dlrec    = 4
  dlrecRg1 = -4
  q=1.1, R=1.1:	  3.507572 seconds (849.96 k allocations: 54.244 MiB, 1.07% gc time, 91.70% compilation time)

  3.508949 seconds (850.02 k allocations: 54.279 MiB, 1.07% gc time, 91.66% compilation time)
ℓ = 1202
Δℓ = 4
ΔℓRg1 = -4
N = 1600
q = 1.1
kmin = 1.0e-5
kmax = 100000.00000000004
χ0 = 0.023029999999999995
RR = RR.tsv
ℓmax = ℓmax.bin
f21 = f21.bin
kmin = 1.0e-5
kmax = 100000.0
dlrec    = 4
dlrecRg1 = -4
Output size: 5741568 bytes = 0.005347251892089844 GiB
Output size: 51264 bytes = 4.774332046508789e-5 GiB
Reading 'out/F21EllCache'...   0.633862 seconds (426.50 k allocations: 24.992 MiB, 4.02% gc time, 99.60% compilation time)
ellmax: 1202
lmaxcache: 1202
fell[:,1,1] = ComplexF64[3.9583795592771634e-52 - 9.695233714158177e-68im, 3.990121772925759e-52 - 9.772979714843386e-68im]
ell 1202, elapsed: 3.910064697265625e-5
ell 1201, elapsed: 1.1141088008880615
ell 1200, elapsed: 0.00040602684020996094
ell 1199, elapsed: 0.00037789344787597656
ell 1198, elapsed: 0.0003991127014160156
ell 1002, elapsed: 0.008322000503540039
ell 1001, elapsed: 0.00037980079650878906
ell 1000, elapsed: 0.00037407875061035156
ell 999, elapsed: 0.00036907196044921875
ell 998, elapsed: 0.0003688335418701172
ell 902, elapsed: 0.004190921783447266
ell 901, elapsed: 0.00037097930908203125
ell 900, elapsed: 0.0004038810729980469
ell 899, elapsed: 0.00037097930908203125
ell 898, elapsed: 0.00036597251892089844
ell 802, elapsed: 0.004524946212768555
ell 801, elapsed: 0.0003790855407714844
ell 800, elapsed: 0.0003769397735595703
ell 799, elapsed: 0.00037598609924316406
ell 798, elapsed: 0.00037407875061035156
ell 702, elapsed: 0.004772186279296875
ell 701, elapsed: 0.0005400180816650391
ell 700, elapsed: 0.00038504600524902344
ell 699, elapsed: 0.0003809928894042969
ell 698, elapsed: 0.0003840923309326172
ell 602, elapsed: 0.00505518913269043
ell 601, elapsed: 0.00038504600524902344
ell 600, elapsed: 0.0003819465637207031
ell 599, elapsed: 0.0004718303680419922
ell 598, elapsed: 0.0003910064697265625
ell 502, elapsed: 0.004251003265380859
ell 501, elapsed: 0.00038909912109375
ell 500, elapsed: 0.0003800392150878906
ell 499, elapsed: 0.0010311603546142578
ell 498, elapsed: 0.0003800392150878906
ell 402, elapsed: 0.004892110824584961
ell 401, elapsed: 0.0003788471221923828
ell 400, elapsed: 0.0003650188446044922
ell 399, elapsed: 0.0003650188446044922
ell 398, elapsed: 0.00036406517028808594
ell 302, elapsed: 0.004328012466430664
ell 301, elapsed: 0.0003769397735595703
ell 300, elapsed: 0.0003790855407714844
ell 299, elapsed: 0.00036907196044921875
ell 298, elapsed: 0.0004169940948486328
ell 202, elapsed: 0.004765987396240234
ell 201, elapsed: 0.0003879070281982422
ell 200, elapsed: 0.00037789344787597656
ell 199, elapsed: 0.00037598609924316406
ell 198, elapsed: 0.00037479400634765625
ell 152, elapsed: 0.0023250579833984375
ell 151, elapsed: 0.0003848075866699219
ell 150, elapsed: 0.0003771781921386719
ell 149, elapsed: 0.0003719329833984375
ell 148, elapsed: 0.0003819465637207031
ell 127, elapsed: 0.0012450218200683594
ell 126, elapsed: 0.0003809928894042969
ell 125, elapsed: 0.0003848075866699219
ell 124, elapsed: 0.0011701583862304688
ell 123, elapsed: 0.0003838539123535156
ell 114, elapsed: 0.0007600784301757812
ell 113, elapsed: 0.0003800392150878906
ell 112, elapsed: 0.0003788471221923828
ell 111, elapsed: 0.0003800392150878906
ell 110, elapsed: 0.00038909912109375
ell 102, elapsed: 0.0008029937744140625
ell 101, elapsed: 0.0004010200500488281
ell 100, elapsed: 0.0003809928894042969
ell 99, elapsed: 0.0003819465637207031
ell 98, elapsed: 0.0003821849822998047
ell 97, elapsed: 0.00043582916259765625
ell 96, elapsed: 0.0004220008850097656
ell 95, elapsed: 0.0004191398620605469
ell 94, elapsed: 0.00055694580078125
ell 93, elapsed: 0.00041794776916503906
ell 92, elapsed: 0.0004210472106933594
ell 91, elapsed: 0.0004420280456542969
ell 90, elapsed: 0.0004229545593261719
ell 89, elapsed: 0.0004239082336425781
ell 88, elapsed: 0.0004229545593261719
ell 87, elapsed: 0.0004191398620605469
ell 86, elapsed: 0.00042819976806640625
ell 85, elapsed: 0.00055694580078125
ell 84, elapsed: 0.0004360675811767578
ell 83, elapsed: 0.0004169940948486328
ell 82, elapsed: 0.0004489421844482422
ell 81, elapsed: 0.0004360675811767578
ell 80, elapsed: 0.00041985511779785156
ell 79, elapsed: 0.00042319297790527344
ell 78, elapsed: 0.0004189014434814453
ell 77, elapsed: 0.00043201446533203125
ell 76, elapsed: 0.0005400180816650391
ell 75, elapsed: 0.00044798851013183594
ell 74, elapsed: 0.0012230873107910156
ell 73, elapsed: 0.0004279613494873047
ell 72, elapsed: 0.0004248619079589844
ell 71, elapsed: 0.0004258155822753906
ell 70, elapsed: 0.00043487548828125
ell 69, elapsed: 0.0004911422729492188
ell 68, elapsed: 0.00042700767517089844
ell 67, elapsed: 0.0004241466522216797
ell 66, elapsed: 0.0004260540008544922
ell 65, elapsed: 0.0004138946533203125
ell 64, elapsed: 0.0007281303405761719
ell 63, elapsed: 0.0004260540008544922
ell 62, elapsed: 0.00041985511779785156
ell 61, elapsed: 0.00045990943908691406
ell 60, elapsed: 0.00041794776916503906
ell 59, elapsed: 0.0004239082336425781
ell 58, elapsed: 0.0004229545593261719
ell 57, elapsed: 0.0004258155822753906
ell 56, elapsed: 0.0004420280456542969
ell 55, elapsed: 0.0012650489807128906
ell 54, elapsed: 0.0005381107330322266
ell 53, elapsed: 0.0004467964172363281
ell 52, elapsed: 0.00043392181396484375
ell 51, elapsed: 0.0007190704345703125
ell 50, elapsed: 0.0004329681396484375
ell 49, elapsed: 0.0009348392486572266
ell 48, elapsed: 0.00043201446533203125
ell 47, elapsed: 0.0004711151123046875
ell 46, elapsed: 0.00043082237243652344
ell 45, elapsed: 0.00044608116149902344
ell 44, elapsed: 0.00043201446533203125
ell 43, elapsed: 0.0004291534423828125
ell 42, elapsed: 0.0004520416259765625
ell 41, elapsed: 0.00043511390686035156
ell 40, elapsed: 0.00045609474182128906
ell 39, elapsed: 0.0005099773406982422
ell 38, elapsed: 0.0004291534423828125
ell 37, elapsed: 0.0004398822784423828
ell 36, elapsed: 0.000431060791015625
ell 35, elapsed: 0.0004391670227050781
ell 34, elapsed: 0.00043511390686035156
ell 33, elapsed: 0.00043201446533203125
ell 32, elapsed: 0.0004439353942871094
ell 31, elapsed: 0.0004439353942871094
ell 30, elapsed: 0.0005478858947753906
ell 29, elapsed: 0.00044989585876464844
ell 28, elapsed: 0.00043487548828125
ell 27, elapsed: 0.0004448890686035156
ell 26, elapsed: 0.00043702125549316406
ell 25, elapsed: 0.0004470348358154297
ell 24, elapsed: 0.0004489421844482422
ell 23, elapsed: 0.000431060791015625
ell 22, elapsed: 0.0006089210510253906
ell 21, elapsed: 0.0004570484161376953
ell 20, elapsed: 0.00045108795166015625
ell 19, elapsed: 0.0004360675811767578
ell 18, elapsed: 0.00043702125549316406
ell 17, elapsed: 0.0004489421844482422
ell 16, elapsed: 0.00043702125549316406
ell 15, elapsed: 0.0004410743713378906
ell 14, elapsed: 0.0004341602325439453
ell 13, elapsed: 0.0005679130554199219
ell 12, elapsed: 0.0004730224609375
ell 11, elapsed: 0.00043892860412597656
ell 10, elapsed: 0.0004482269287109375
ell 9, elapsed: 0.00043511390686035156
ell 8, elapsed: 0.0004451274871826172
ell 7, elapsed: 0.00043892860412597656
ell 6, elapsed: 0.0004429817199707031
ell 5, elapsed: 0.0004799365997314453
ell 4, elapsed: 0.0004448890686035156
ell 3, elapsed: 0.00043201446533203125
ell 2, elapsed: 0.00043511390686035156
ell 1, elapsed: 0.0006577968597412109
ell 0, elapsed: 0.0004448890686035156
  1.600136 seconds (1.38 M allocations: 74.544 MiB, 2.73% gc time, 92.25% compilation time)
elapsed: 0.0005180835723876953
step:          0.336465 sec (311.15 k allocations: 16.965 MB, 6.44% gc time)
swapping:      0.000674 sec (0 allocations: 0 byte, 0.0% gc time)
calc_Mellell!: 0.120725 sec (135.745 k allocations: 7.433 MB, 0.0% gc time)
  t0 :  0.0 sec (0 allocations: 0 byte, 0.0% gc time)
  tm2 : 0.0 sec (0 allocations: 0 byte, 0.0% gc time)
  tm2s: 0.0 sec (0 allocations: 0 byte, 0.0% gc time)
  tm4 : 0.0 sec (0 allocations: 0 byte, 0.0% gc time)
  tp2 : 0.0 sec (0 allocations: 0 byte, 0.0% gc time)
  tp2s: 0.0 sec (0 allocations: 0 byte, 0.0% gc time)
  tp4 : 0.0 sec (0 allocations: 0 byte, 0.0% gc time)
calc_wtdll!:   0.766333 sec (509.624 k allocations: 28.198 MB, 0.0% gc time)
calc_wljj!:    0.002336 sec (6 allocations: 96 byte, 0.0% gc time)
mult_prefac!:  0.0 sec (0 allocations: 0 byte, 0.0% gc time)
convert:       0.0 sec (0 allocations: 0 byte, 0.0% gc time)
write:         0.003703 sec (0 allocations: 0 byte, 0.0% gc time)
test_rand_2f1: 0.0 sec (0 allocations: 0 byte, 0.0% gc time)
Closing outfile out/Ml21-cache.bin...   0.000009 seconds
  0.903103 seconds (246.23 k allocations: 14.208 MiB, 37.65% compilation time)
make_phi():   0.008099 seconds (8.18 k allocations: 237.844 KiB)
  0.215890 seconds (87.57 k allocations: 4.749 MiB, 94.40% compilation time)
tskip:       1.5e-5 sec (0 allocations: 0 byte, 0.0% gc time)
tread:       0.00194 sec (17 allocations: 2.125 KB, 0.0% gc time)
tmultphi:    0.044019 sec (21.425 k allocations: 1.287 MB, 0.0% gc time)
tbrfft:      0.003167 sec (0 allocations: 0 byte, 0.0% gc time)
tmultprefac: 0.001795 sec (0 allocations: 0 byte, 0.0% gc time)
toutfunc:    0.136821 sec (64.484 k allocations: 3.331 MB, 0.0% gc time)
Testing R=1.1 ... passed
Calculating fmax: 
  dlrec    = 4
  dlrecRg1 = -4
  q=1.1, R=1.0:	  0.001138 seconds (3.20 k allocations: 275.344 KiB)

  0.001262 seconds (3.25 k allocations: 309.922 KiB)
ℓ = 1202
Δℓ = 4
ΔℓRg1 = -4
N = 1600
q = 1.1
kmin = 1.0e-5
kmax = 100000.00000000004
χ0 = 0.023029999999999995
RR = RR.tsv
ℓmax = ℓmax.bin
f21 = f21.bin
kmin = 1.0e-5
kmax = 100000.0
dlrec    = 4
dlrecRg1 = -4
Output size: 61465536 bytes = 0.05724424123764038 GiB
Output size: 51264 bytes = 4.774332046508789e-5 GiB
Reading 'out/F21EllCache'...   0.000738 seconds (197 allocations: 84.203 KiB)
ellmax: 1202
lmaxcache: 1202
fell[:,1,1] = ComplexF64[809.6031528389767 - 1.9829558194077161e-13im, 0.0 + 0.0im]
ell 1202, elapsed: 1.9073486328125e-5
ell 1201, elapsed: 0.012343883514404297
ell 1200, elapsed: 0.01782393455505371
ell 1199, elapsed: 0.00025177001953125
ell 1198, elapsed: 0.00024509429931640625
ell 1197, elapsed: 0.0003199577331542969
ell 1196, elapsed: 0.0002830028533935547
ell 1195, elapsed: 0.0002789497375488281
ell 1194, elapsed: 0.00041222572326660156
ell 1193, elapsed: 0.0002799034118652344
ell 1192, elapsed: 0.0002760887145996094
ell 1191, elapsed: 0.00027489662170410156
ell 1190, elapsed: 0.0002779960632324219
ell 1189, elapsed: 0.00027298927307128906
ell 1188, elapsed: 0.0002779960632324219
ell 1187, elapsed: 0.00027108192443847656
ell 1186, elapsed: 0.00027298927307128906
ell 1185, elapsed: 0.0002760887145996094
ell 1184, elapsed: 0.00026988983154296875
ell 1183, elapsed: 0.0002789497375488281
ell 1182, elapsed: 0.0002720355987548828
ell 1181, elapsed: 0.00040984153747558594
ell 1180, elapsed: 0.0002849102020263672
ell 1179, elapsed: 0.0002739429473876953
ell 1178, elapsed: 0.0002810955047607422
ell 1177, elapsed: 0.0002739429473876953
ell 1176, elapsed: 0.0002739429473876953
ell 1175, elapsed: 0.0002799034118652344
ell 1174, elapsed: 0.0002758502960205078
ell 1173, elapsed: 0.0002789497375488281
ell 1172, elapsed: 0.0002720355987548828
ell 1171, elapsed: 0.0002758502960205078
ell 1170, elapsed: 0.0002849102020263672
ell 1169, elapsed: 0.00028514862060546875
ell 1168, elapsed: 0.0005631446838378906
ell 1167, elapsed: 0.0003590583801269531
ell 1166, elapsed: 0.00028014183044433594
ell 1165, elapsed: 0.0002830028533935547
ell 1164, elapsed: 0.00028204917907714844
ell 1163, elapsed: 0.00028896331787109375
ell 1162, elapsed: 0.00028014183044433594
ell 1161, elapsed: 0.00028014183044433594
ell 1160, elapsed: 0.00029015541076660156
ell 1159, elapsed: 0.0002779960632324219
ell 1158, elapsed: 0.00028514862060546875
ell 1157, elapsed: 0.0002892017364501953
ell 1156, elapsed: 0.0003979206085205078
ell 1155, elapsed: 0.00028514862060546875
ell 1154, elapsed: 0.0002810955047607422
ell 1153, elapsed: 0.0002789497375488281
ell 1152, elapsed: 0.00027680397033691406
ell 1151, elapsed: 0.0002880096435546875
ell 1150, elapsed: 0.0002779960632324219
ell 1149, elapsed: 0.0002830028533935547
ell 1148, elapsed: 0.0002880096435546875
ell 1147, elapsed: 0.0002808570861816406
ell 1146, elapsed: 0.0002989768981933594
ell 1145, elapsed: 0.0002830028533935547
ell 1144, elapsed: 0.00028896331787109375
ell 1143, elapsed: 0.0004608631134033203
ell 1142, elapsed: 0.0002989768981933594
ell 1141, elapsed: 0.0002980232238769531
ell 1140, elapsed: 0.00028896331787109375
ell 1139, elapsed: 0.00028896331787109375
ell 1138, elapsed: 0.00029206275939941406
ell 1137, elapsed: 0.00028586387634277344
ell 1136, elapsed: 0.00029397010803222656
ell 1135, elapsed: 0.00029397010803222656
ell 1134, elapsed: 0.0002899169921875
ell 1133, elapsed: 0.0002980232238769531
ell 1132, elapsed: 0.00029206275939941406
ell 1131, elapsed: 0.0002970695495605469
ell 1130, elapsed: 0.004438161849975586
ell 1129, elapsed: 0.0003120899200439453
ell 1128, elapsed: 0.0002970695495605469
ell 1127, elapsed: 0.00029397010803222656
ell 1126, elapsed: 0.0003211498260498047
ell 1125, elapsed: 0.00029087066650390625
ell 1124, elapsed: 0.00029206275939941406
ell 1123, elapsed: 0.0002961158752441406
ell 1122, elapsed: 0.00029206275939941406
ell 1121, elapsed: 0.0002999305725097656
ell 1120, elapsed: 0.00028896331787109375
ell 1119, elapsed: 0.00029206275939941406
ell 1118, elapsed: 0.00047206878662109375
ell 1117, elapsed: 0.0003020763397216797
ell 1116, elapsed: 0.0002949237823486328
ell 1115, elapsed: 0.0002899169921875
ell 1114, elapsed: 0.0002880096435546875
ell 1113, elapsed: 0.0002961158752441406
ell 1112, elapsed: 0.0002808570861816406
ell 1111, elapsed: 0.00028705596923828125
ell 1110, elapsed: 0.0002880096435546875
ell 1109, elapsed: 0.0002899169921875
ell 1108, elapsed: 0.00028896331787109375
ell 1107, elapsed: 0.0002970695495605469
ell 1106, elapsed: 0.0004010200500488281
ell 1105, elapsed: 0.0002999305725097656
ell 1104, elapsed: 0.00029397010803222656
ell 1103, elapsed: 0.00030612945556640625
ell 1102, elapsed: 0.00028896331787109375
ell 1101, elapsed: 0.0002961158752441406
ell 1100, elapsed: 0.0002808570861816406
ell 1099, elapsed: 0.00028705596923828125
ell 1098, elapsed: 0.00029087066650390625
ell 1097, elapsed: 0.0002880096435546875
ell 1096, elapsed: 0.0002880096435546875
ell 1095, elapsed: 0.0002810955047607422
ell 1094, elapsed: 0.0002951622009277344
ell 1093, elapsed: 0.00036406517028808594
ell 1092, elapsed: 0.0002830028533935547
ell 1091, elapsed: 0.00028705596923828125
ell 1090, elapsed: 0.0002830028533935547
ell 1089, elapsed: 0.0002830028533935547
ell 1088, elapsed: 0.00028514862060546875
ell 1087, elapsed: 0.0002760887145996094
ell 1086, elapsed: 0.0002899169921875
ell 1085, elapsed: 0.00028586387634277344
ell 1084, elapsed: 0.0002961158752441406
ell 1083, elapsed: 0.00029206275939941406
ell 1082, elapsed: 0.00029397010803222656
ell 1081, elapsed: 0.0003039836883544922
ell 1080, elapsed: 0.0004429817199707031
ell 1079, elapsed: 0.0002930164337158203
ell 1078, elapsed: 0.00028705596923828125
ell 1077, elapsed: 0.00028395652770996094
ell 1076, elapsed: 0.0002911090850830078
ell 1075, elapsed: 0.00029587745666503906
ell 1074, elapsed: 0.00029397010803222656
ell 1073, elapsed: 0.0002880096435546875
ell 1072, elapsed: 0.00028896331787109375
ell 1071, elapsed: 0.0002951622009277344
ell 1070, elapsed: 0.00028896331787109375
ell 1069, elapsed: 0.0002899169921875
ell 1068, elapsed: 0.00029397010803222656
ell 1067, elapsed: 0.00044989585876464844
ell 1066, elapsed: 0.0002970695495605469
ell 1065, elapsed: 0.00028586387634277344
ell 1064, elapsed: 0.0002949237823486328
ell 1063, elapsed: 0.0002951622009277344
ell 1062, elapsed: 0.0002880096435546875
ell 1061, elapsed: 0.00029087066650390625
ell 1060, elapsed: 0.00028896331787109375
ell 1059, elapsed: 0.0002951622009277344
ell 1058, elapsed: 0.0002899169921875
ell 1057, elapsed: 0.0002949237823486328
ell 1056, elapsed: 0.00030493736267089844
ell 1055, elapsed: 0.000453948974609375
ell 1054, elapsed: 0.0003151893615722656
ell 1053, elapsed: 0.00029087066650390625
ell 1052, elapsed: 0.0002849102020263672
ell 1051, elapsed: 0.00030303001403808594
ell 1050, elapsed: 0.000286102294921875
ell 1049, elapsed: 0.0002999305725097656
ell 1048, elapsed: 0.0003159046173095703
ell 1047, elapsed: 0.00032210350036621094
ell 1046, elapsed: 0.0002810955047607422
ell 1045, elapsed: 0.0002741813659667969
ell 1044, elapsed: 0.0002810955047607422
ell 1043, elapsed: 0.00034499168395996094
ell 1042, elapsed: 0.00026488304138183594
ell 1041, elapsed: 0.000247955322265625
ell 1040, elapsed: 0.00024580955505371094
ell 1039, elapsed: 0.0002589225769042969
ell 1038, elapsed: 0.000247955322265625
ell 1037, elapsed: 0.00025582313537597656
ell 1036, elapsed: 0.00024890899658203125
ell 1035, elapsed: 0.0002491474151611328
ell 1034, elapsed: 0.0002551078796386719
ell 1033, elapsed: 0.00025010108947753906
ell 1032, elapsed: 0.0002529621124267578
ell 1031, elapsed: 0.0002498626708984375
ell 1030, elapsed: 0.00024890899658203125
ell 1029, elapsed: 0.0002541542053222656
ell 1028, elapsed: 0.00033402442932128906
ell 1027, elapsed: 0.0002601146697998047
ell 1026, elapsed: 0.0002529621124267578
ell 1025, elapsed: 0.00025582313537597656
ell 1024, elapsed: 0.0002639293670654297
ell 1023, elapsed: 0.0002541542053222656
ell 1022, elapsed: 0.0002589225769042969
ell 1021, elapsed: 0.00025200843811035156
ell 1020, elapsed: 0.0002491474151611328
ell 1019, elapsed: 0.0002579689025878906
ell 1018, elapsed: 0.000247955322265625
ell 1017, elapsed: 0.0002582073211669922
ell 1016, elapsed: 0.00025081634521484375
ell 1015, elapsed: 0.0002460479736328125
ell 1014, elapsed: 0.00027489662170410156
ell 1013, elapsed: 0.0002510547637939453
ell 1012, elapsed: 0.0002548694610595703
ell 1011, elapsed: 0.00024700164794921875
ell 1010, elapsed: 0.000247955322265625
ell 1009, elapsed: 0.0002548694610595703
ell 1008, elapsed: 0.00025582313537597656
ell 1007, elapsed: 0.000270843505859375
ell 1006, elapsed: 0.00024509429931640625
ell 1005, elapsed: 0.00024080276489257812
ell 1004, elapsed: 0.00025200843811035156
ell 1003, elapsed: 0.00024008750915527344
ell 1002, elapsed: 0.00025200843811035156
ell 1001, elapsed: 0.00024509429931640625
ell 1000, elapsed: 0.00024390220642089844
ell 999, elapsed: 0.0003311634063720703
ell 998, elapsed: 0.0002560615539550781
ell 997, elapsed: 0.00025200843811035156
ell 996, elapsed: 0.0002410411834716797
ell 995, elapsed: 0.0002460479736328125
ell 994, elapsed: 0.0002429485321044922
ell 993, elapsed: 0.0002491474151611328
ell 992, elapsed: 0.0002460479736328125
ell 991, elapsed: 0.00024390220642089844
ell 990, elapsed: 0.00024700164794921875
ell 989, elapsed: 0.0002429485321044922
ell 988, elapsed: 0.0002391338348388672
ell 987, elapsed: 0.00024700164794921875
ell 986, elapsed: 0.0002391338348388672
ell 985, elapsed: 0.0002448558807373047
ell 984, elapsed: 0.0002391338348388672
ell 983, elapsed: 0.00029587745666503906
ell 982, elapsed: 0.0002918243408203125
ell 981, elapsed: 0.0002701282501220703
ell 980, elapsed: 0.0002830028533935547
ell 979, elapsed: 0.00031113624572753906
ell 978, elapsed: 0.0003070831298828125
ell 977, elapsed: 0.00030922889709472656
ell 976, elapsed: 0.0003039836883544922
ell 975, elapsed: 0.0003120899200439453
ell 974, elapsed: 0.00030303001403808594
ell 973, elapsed: 0.0003070831298828125
ell 972, elapsed: 0.00031495094299316406
ell 971, elapsed: 0.0003387928009033203
ell 970, elapsed: 0.00028014183044433594
ell 969, elapsed: 0.00026798248291015625
ell 968, elapsed: 0.0002689361572265625
ell 967, elapsed: 0.0002818107604980469
ell 966, elapsed: 0.00026988983154296875
ell 965, elapsed: 0.00027179718017578125
ell 964, elapsed: 0.00026988983154296875
ell 963, elapsed: 0.00026679039001464844
ell 962, elapsed: 0.0002739429473876953
ell 961, elapsed: 0.00026702880859375
ell 960, elapsed: 0.0002779960632324219
ell 959, elapsed: 0.0002689361572265625
ell 958, elapsed: 0.00027108192443847656
ell 957, elapsed: 0.0003590583801269531
ell 956, elapsed: 0.00031495094299316406
ell 955, elapsed: 0.0002999305725097656
ell 954, elapsed: 0.00028586387634277344
ell 953, elapsed: 0.000286102294921875
ell 952, elapsed: 0.000244140625
ell 951, elapsed: 0.0002598762512207031
ell 950, elapsed: 0.0002560615539550781
ell 949, elapsed: 0.00023889541625976562
ell 948, elapsed: 0.00023889541625976562
ell 947, elapsed: 0.0002770423889160156
ell 946, elapsed: 0.0002989768981933594
ell 945, elapsed: 0.00029015541076660156
ell 944, elapsed: 0.0003268718719482422
ell 943, elapsed: 0.00029206275939941406
ell 942, elapsed: 0.00028014183044433594
ell 941, elapsed: 0.0002751350402832031
ell 940, elapsed: 0.00028705596923828125
ell 939, elapsed: 0.0002760887145996094
ell 938, elapsed: 0.00028514862060546875
ell 937, elapsed: 0.0002949237823486328
ell 936, elapsed: 0.0002770423889160156
ell 935, elapsed: 0.0002827644348144531
ell 934, elapsed: 0.00028014183044433594
ell 933, elapsed: 0.00028395652770996094
ell 932, elapsed: 0.0002911090850830078
ell 931, elapsed: 0.0003781318664550781
ell 930, elapsed: 0.0002899169921875
ell 929, elapsed: 0.0002818107604980469
ell 928, elapsed: 0.0002880096435546875
ell 927, elapsed: 0.0002799034118652344
ell 926, elapsed: 0.0002999305725097656
ell 925, elapsed: 0.00029397010803222656
ell 924, elapsed: 0.0002510547637939453
ell 923, elapsed: 0.00025391578674316406
ell 922, elapsed: 0.00024700164794921875
ell 921, elapsed: 0.00025010108947753906
ell 920, elapsed: 0.00025391578674316406
ell 919, elapsed: 0.00025200843811035156
ell 918, elapsed: 0.0002560615539550781
ell 917, elapsed: 0.0002830028533935547
ell 916, elapsed: 0.0002498626708984375
ell 915, elapsed: 0.00024509429931640625
ell 914, elapsed: 0.00023698806762695312
ell 913, elapsed: 0.00024199485778808594
ell 912, elapsed: 0.00023698806762695312
ell 911, elapsed: 0.00023889541625976562
ell 910, elapsed: 0.00023984909057617188
ell 909, elapsed: 0.0002357959747314453
ell 908, elapsed: 0.00023984909057617188
ell 907, elapsed: 0.00023698806762695312
ell 906, elapsed: 0.00023818016052246094
ell 905, elapsed: 0.000247955322265625
ell 904, elapsed: 0.00023794174194335938
ell 903, elapsed: 0.000244140625
ell 902, elapsed: 0.00023603439331054688
ell 901, elapsed: 0.0003249645233154297
ell 900, elapsed: 0.0003020763397216797
ell 899, elapsed: 0.0002830028533935547
ell 898, elapsed: 0.0002880096435546875
ell 897, elapsed: 0.0002810955047607422
ell 896, elapsed: 0.00028514862060546875
ell 895, elapsed: 0.000286102294921875
ell 894, elapsed: 0.0002830028533935547
ell 893, elapsed: 0.00029087066650390625
ell 892, elapsed: 0.0002789497375488281
ell 891, elapsed: 0.00028204917907714844
ell 890, elapsed: 0.0002868175506591797
ell 889, elapsed: 0.0002770423889160156
ell 888, elapsed: 0.00035500526428222656
ell 887, elapsed: 0.0002980232238769531
ell 886, elapsed: 0.00029397010803222656
ell 885, elapsed: 0.0002791881561279297
ell 884, elapsed: 0.00028014183044433594
ell 883, elapsed: 0.0002841949462890625
ell 882, elapsed: 0.0002779960632324219
ell 881, elapsed: 0.00028204917907714844
ell 880, elapsed: 0.00027489662170410156
ell 879, elapsed: 0.0002760887145996094
ell 878, elapsed: 0.00028014183044433594
ell 877, elapsed: 0.0002741813659667969
ell 876, elapsed: 0.0003020763397216797
ell 875, elapsed: 0.00035500526428222656
ell 874, elapsed: 0.00028204917907714844
ell 873, elapsed: 0.00028014183044433594
ell 872, elapsed: 0.0002751350402832031
ell 871, elapsed: 0.0002791881561279297
ell 870, elapsed: 0.00028514862060546875
ell 869, elapsed: 0.00030112266540527344
ell 868, elapsed: 0.00030303001403808594
ell 867, elapsed: 0.0002961158752441406
ell 866, elapsed: 0.0002918243408203125
ell 865, elapsed: 0.00026488304138183594
ell 864, elapsed: 0.00026106834411621094
ell 863, elapsed: 0.0002701282501220703
ell 862, elapsed: 0.00030517578125
ell 861, elapsed: 0.0003039836883544922
ell 860, elapsed: 0.00030112266540527344
ell 859, elapsed: 0.0003020763397216797
ell 858, elapsed: 0.00030303001403808594
ell 857, elapsed: 0.000308990478515625
ell 856, elapsed: 0.000308990478515625
ell 855, elapsed: 0.00030112266540527344
ell 854, elapsed: 0.0002999305725097656
ell 853, elapsed: 0.00030803680419921875
ell 852, elapsed: 0.0002980232238769531
ell 851, elapsed: 0.0002880096435546875
ell 850, elapsed: 0.00032901763916015625
ell 849, elapsed: 0.0002999305725097656
ell 848, elapsed: 0.00030994415283203125
ell 847, elapsed: 0.00030303001403808594
ell 846, elapsed: 0.00030493736267089844
ell 845, elapsed: 0.0003077983856201172
ell 844, elapsed: 0.0003020763397216797
ell 843, elapsed: 0.0003120899200439453
ell 842, elapsed: 0.0003139972686767578
ell 841, elapsed: 0.0003139972686767578
ell 840, elapsed: 0.00030493736267089844
ell 839, elapsed: 0.00030303001403808594
ell 838, elapsed: 0.0003139972686767578
ell 837, elapsed: 0.0002868175506591797
ell 836, elapsed: 0.0002930164337158203
ell 835, elapsed: 0.0003070831298828125
ell 834, elapsed: 0.00031685829162597656
ell 833, elapsed: 0.0003058910369873047
ell 832, elapsed: 0.00031185150146484375
ell 831, elapsed: 0.000308990478515625
ell 830, elapsed: 0.0003070831298828125
ell 829, elapsed: 0.0003108978271484375
ell 828, elapsed: 0.000308990478515625
ell 827, elapsed: 0.00030303001403808594
ell 826, elapsed: 0.0003368854522705078
ell 825, elapsed: 0.0002849102020263672
ell 824, elapsed: 0.00029206275939941406
ell 823, elapsed: 0.0002841949462890625
ell 822, elapsed: 0.00028514862060546875
ell 821, elapsed: 0.0003008842468261719
ell 820, elapsed: 0.0002880096435546875
ell 819, elapsed: 0.0002918243408203125
ell 818, elapsed: 0.00030612945556640625
ell 817, elapsed: 0.0002830028533935547
ell 816, elapsed: 0.0002961158752441406
ell 815, elapsed: 0.00030684471130371094
ell 814, elapsed: 0.00031495094299316406
ell 813, elapsed: 0.00034308433532714844
ell 812, elapsed: 0.0003070831298828125
ell 811, elapsed: 0.0003120899200439453
ell 810, elapsed: 0.0003070831298828125
ell 809, elapsed: 0.00030803680419921875
ell 808, elapsed: 0.0003039836883544922
ell 807, elapsed: 0.0003008842468261719
ell 806, elapsed: 0.000308990478515625
ell 805, elapsed: 0.0002999305725097656
ell 804, elapsed: 0.000308990478515625
ell 803, elapsed: 0.0003058910369873047
ell 802, elapsed: 0.0003008842468261719
ell 801, elapsed: 0.00036907196044921875
ell 800, elapsed: 0.0002999305725097656
ell 799, elapsed: 0.00030994415283203125
ell 798, elapsed: 0.0003020763397216797
ell 797, elapsed: 0.0002989768981933594
ell 796, elapsed: 0.00030303001403808594
ell 795, elapsed: 0.00029778480529785156
ell 794, elapsed: 0.00030684471130371094
ell 793, elapsed: 0.0002989768981933594
ell 792, elapsed: 0.0002980232238769531
ell 791, elapsed: 0.00030303001403808594
ell 790, elapsed: 0.00030112266540527344
ell 789, elapsed: 0.0003528594970703125
ell 788, elapsed: 0.00030303001403808594
ell 787, elapsed: 0.00030303001403808594
ell 786, elapsed: 0.0003039836883544922
ell 785, elapsed: 0.0002999305725097656
ell 784, elapsed: 0.00030684471130371094
ell 783, elapsed: 0.00030303001403808594
ell 782, elapsed: 0.0003020763397216797
ell 781, elapsed: 0.000308990478515625
ell 780, elapsed: 0.0002989768981933594
ell 779, elapsed: 0.00029206275939941406
ell 778, elapsed: 0.00030994415283203125
ell 777, elapsed: 0.00032901763916015625
ell 776, elapsed: 0.00028514862060546875
ell 775, elapsed: 0.00029015541076660156
ell 774, elapsed: 0.0002930164337158203
ell 773, elapsed: 0.00028514862060546875
ell 772, elapsed: 0.00029277801513671875
ell 771, elapsed: 0.00028514862060546875
ell 770, elapsed: 0.00028705596923828125
ell 769, elapsed: 0.00029087066650390625
ell 768, elapsed: 0.00028204917907714844
ell 767, elapsed: 0.00028586387634277344
ell 766, elapsed: 0.0002970695495605469
ell 765, elapsed: 0.00030612945556640625
ell 764, elapsed: 0.00033092498779296875
ell 763, elapsed: 0.0002999305725097656
ell 762, elapsed: 0.00029397010803222656
ell 761, elapsed: 0.0002830028533935547
ell 760, elapsed: 0.00028705596923828125
ell 759, elapsed: 0.00028896331787109375
ell 758, elapsed: 0.0002830028533935547
ell 757, elapsed: 0.00028395652770996094
ell 756, elapsed: 0.0002892017364501953
ell 755, elapsed: 0.00028395652770996094
ell 754, elapsed: 0.00029206275939941406
ell 753, elapsed: 0.00028705596923828125
ell 752, elapsed: 0.0002930164337158203
ell 751, elapsed: 0.0003261566162109375
ell 750, elapsed: 0.0002880096435546875
ell 749, elapsed: 0.00029397010803222656
ell 748, elapsed: 0.00028705596923828125
ell 747, elapsed: 0.00029206275939941406
ell 746, elapsed: 0.00029397010803222656
ell 745, elapsed: 0.00028896331787109375
ell 744, elapsed: 0.0002989768981933594
ell 743, elapsed: 0.00030803680419921875
ell 742, elapsed: 0.0002999305725097656
ell 741, elapsed: 0.0002880096435546875
ell 740, elapsed: 0.00028705596923828125
ell 739, elapsed: 0.0002620220184326172
ell 738, elapsed: 0.00033783912658691406
ell 737, elapsed: 0.00028014183044433594
ell 736, elapsed: 0.00026988983154296875
ell 735, elapsed: 0.0002689361572265625
ell 734, elapsed: 0.0002760887145996094
ell 733, elapsed: 0.00026988983154296875
ell 732, elapsed: 0.0002770423889160156
ell 731, elapsed: 0.000270843505859375
ell 730, elapsed: 0.00026798248291015625
ell 729, elapsed: 0.0002770423889160156
ell 728, elapsed: 0.00026917457580566406
ell 727, elapsed: 0.0002779960632324219
ell 726, elapsed: 0.00026798248291015625
ell 725, elapsed: 0.0002770423889160156
ell 724, elapsed: 0.0003180503845214844
ell 723, elapsed: 0.0002968311309814453
ell 722, elapsed: 0.0002779960632324219
ell 721, elapsed: 0.0002689361572265625
ell 720, elapsed: 0.0002760887145996094
ell 719, elapsed: 0.0002789497375488281
ell 718, elapsed: 0.000270843505859375
ell 717, elapsed: 0.00028014183044433594
ell 716, elapsed: 0.00027298927307128906
ell 715, elapsed: 0.0002789497375488281
ell 714, elapsed: 0.0002751350402832031
ell 713, elapsed: 0.00027108192443847656
ell 712, elapsed: 0.0002770423889160156
ell 711, elapsed: 0.0003218650817871094
ell 710, elapsed: 0.00030922889709472656
ell 709, elapsed: 0.00028586387634277344
ell 708, elapsed: 0.0002751350402832031
ell 707, elapsed: 0.0002789497375488281
ell 706, elapsed: 0.0002760887145996094
ell 705, elapsed: 0.0002758502960205078
ell 704, elapsed: 0.00027108192443847656
ell 703, elapsed: 0.0002682209014892578
ell 702, elapsed: 0.00028204917907714844
ell 701, elapsed: 0.0002689361572265625
ell 700, elapsed: 0.0002770423889160156
ell 699, elapsed: 0.00026798248291015625
ell 698, elapsed: 0.0002808570861816406
ell 697, elapsed: 0.00030922889709472656
ell 696, elapsed: 0.0002911090850830078
ell 695, elapsed: 0.00025081634521484375
ell 694, elapsed: 0.00027108192443847656
ell 693, elapsed: 0.0002491474151611328
ell 692, elapsed: 0.00024199485778808594
ell 691, elapsed: 0.0002429485321044922
ell 690, elapsed: 0.00026702880859375
ell 689, elapsed: 0.0002460479736328125
ell 688, elapsed: 0.0002560615539550781
ell 687, elapsed: 0.0002448558807373047
ell 686, elapsed: 0.0002601146697998047
ell 685, elapsed: 0.0002770423889160156
ell 684, elapsed: 0.00026297569274902344
ell 683, elapsed: 0.00029397010803222656
ell 682, elapsed: 0.0002689361572265625
ell 681, elapsed: 0.00024890899658203125
ell 680, elapsed: 0.0002529621124267578
ell 679, elapsed: 0.0002491474151611328
ell 678, elapsed: 0.0002529621124267578
ell 677, elapsed: 0.00024700164794921875
ell 676, elapsed: 0.000247955322265625
ell 675, elapsed: 0.00025200843811035156
ell 674, elapsed: 0.00024700164794921875
ell 673, elapsed: 0.00026702880859375
ell 672, elapsed: 0.00024509429931640625
ell 671, elapsed: 0.00025200843811035156
ell 670, elapsed: 0.00024700164794921875
ell 669, elapsed: 0.0002760887145996094
ell 668, elapsed: 0.00030803680419921875
ell 667, elapsed: 0.0003077983856201172
ell 666, elapsed: 0.000308990478515625
ell 665, elapsed: 0.00030994415283203125
ell 664, elapsed: 0.0002968311309814453
ell 663, elapsed: 0.0003018379211425781
ell 662, elapsed: 0.0002930164337158203
ell 661, elapsed: 0.0003180503845214844
ell 660, elapsed: 0.0002918243408203125
ell 659, elapsed: 0.00029277801513671875
ell 658, elapsed: 0.0002989768981933594
ell 657, elapsed: 0.0002989768981933594
ell 656, elapsed: 0.0002999305725097656
ell 655, elapsed: 0.0003650188446044922
ell 654, elapsed: 0.0002961158752441406
ell 653, elapsed: 0.0002970695495605469
ell 652, elapsed: 0.00029206275939941406
ell 651, elapsed: 0.0002968311309814453
ell 650, elapsed: 0.00029087066650390625
ell 649, elapsed: 0.00029087066650390625
ell 648, elapsed: 0.0002970695495605469
ell 647, elapsed: 0.0003018379211425781
ell 646, elapsed: 0.0003001689910888672
ell 645, elapsed: 0.0002949237823486328
ell 644, elapsed: 0.0002961158752441406
ell 643, elapsed: 0.0003609657287597656
ell 642, elapsed: 0.00029921531677246094
ell 641, elapsed: 0.00030422210693359375
ell 640, elapsed: 0.0002949237823486328
ell 639, elapsed: 0.0002989768981933594
ell 638, elapsed: 0.0002930164337158203
ell 637, elapsed: 0.0002930164337158203
ell 636, elapsed: 0.00029778480529785156
ell 635, elapsed: 0.0003018379211425781
ell 634, elapsed: 0.0003039836883544922
ell 633, elapsed: 0.00029397010803222656
ell 632, elapsed: 0.0002999305725097656
ell 631, elapsed: 0.0002989768981933594
ell 630, elapsed: 0.0003120899200439453
ell 629, elapsed: 0.0002579689025878906
ell 628, elapsed: 0.0002529621124267578
ell 627, elapsed: 0.00024390220642089844
ell 626, elapsed: 0.00025200843811035156
ell 625, elapsed: 0.00025081634521484375
ell 624, elapsed: 0.0002529621124267578
ell 623, elapsed: 0.00024700164794921875
ell 622, elapsed: 0.0002460479736328125
ell 621, elapsed: 0.0002551078796386719
ell 620, elapsed: 0.0002460479736328125
ell 619, elapsed: 0.0002529621124267578
ell 618, elapsed: 0.00024390220642089844
ell 617, elapsed: 0.00024700164794921875
ell 616, elapsed: 0.0002510547637939453
ell 615, elapsed: 0.0003161430358886719
ell 614, elapsed: 0.000286102294921875
ell 613, elapsed: 0.0002460479736328125
ell 612, elapsed: 0.00024509429931640625
ell 611, elapsed: 0.00025081634521484375
ell 610, elapsed: 0.0002448558807373047
ell 609, elapsed: 0.0002510547637939453
ell 608, elapsed: 0.00024199485778808594
ell 607, elapsed: 0.0002510547637939453
ell 606, elapsed: 0.00024700164794921875
ell 605, elapsed: 0.00024700164794921875
ell 604, elapsed: 0.00026917457580566406
ell 603, elapsed: 0.0002598762512207031
ell 602, elapsed: 0.0002567768096923828
ell 601, elapsed: 0.0002429485321044922
ell 600, elapsed: 0.0002760887145996094
ell 599, elapsed: 0.00028896331787109375
ell 598, elapsed: 0.0002799034118652344
ell 597, elapsed: 0.0002658367156982422
ell 596, elapsed: 0.00024008750915527344
ell 595, elapsed: 0.00028395652770996094
ell 594, elapsed: 0.00029015541076660156
ell 593, elapsed: 0.0002779960632324219
ell 592, elapsed: 0.0002510547637939453
ell 591, elapsed: 0.0002810955047607422
ell 590, elapsed: 0.00026416778564453125
ell 589, elapsed: 0.000247955322265625
ell 588, elapsed: 0.0002532005310058594
ell 587, elapsed: 0.0003108978271484375
ell 586, elapsed: 0.0003409385681152344
ell 585, elapsed: 0.0002741813659667969
ell 584, elapsed: 0.0002510547637939453
ell 583, elapsed: 0.00030112266540527344
ell 582, elapsed: 0.0002951622009277344
ell 581, elapsed: 0.0002911090850830078
ell 580, elapsed: 0.00031495094299316406
ell 579, elapsed: 0.0002942085266113281
ell 578, elapsed: 0.00028586387634277344
ell 577, elapsed: 0.00029397010803222656
ell 576, elapsed: 0.00030493736267089844
ell 575, elapsed: 0.0002970695495605469
ell 574, elapsed: 0.0003337860107421875
ell 573, elapsed: 0.0002980232238769531
ell 572, elapsed: 0.0002949237823486328
ell 571, elapsed: 0.00028705596923828125
ell 570, elapsed: 0.0002930164337158203
ell 569, elapsed: 0.0002899169921875
ell 568, elapsed: 0.0002880096435546875
ell 567, elapsed: 0.00029397010803222656
ell 566, elapsed: 0.00028705596923828125
ell 565, elapsed: 0.0002942085266113281
ell 564, elapsed: 0.00028705596923828125
ell 563, elapsed: 0.0002841949462890625
ell 562, elapsed: 0.00029397010803222656
ell 561, elapsed: 0.0003669261932373047
ell 560, elapsed: 0.0002968311309814453
ell 559, elapsed: 0.0002849102020263672
ell 558, elapsed: 0.0002849102020263672
ell 557, elapsed: 0.0002899169921875
ell 556, elapsed: 0.0002880096435546875
ell 555, elapsed: 0.0002880096435546875
ell 554, elapsed: 0.0002880096435546875
ell 553, elapsed: 0.0002880096435546875
ell 552, elapsed: 0.0002949237823486328
ell 551, elapsed: 0.00028705596923828125
ell 550, elapsed: 0.0002930164337158203
ell 549, elapsed: 0.00028705596923828125
ell 548, elapsed: 0.0003600120544433594
ell 547, elapsed: 0.0002951622009277344
ell 546, elapsed: 0.00028705596923828125
ell 545, elapsed: 0.0002930164337158203
ell 544, elapsed: 0.0002868175506591797
ell 543, elapsed: 0.0002999305725097656
ell 542, elapsed: 0.000286102294921875
ell 541, elapsed: 0.0002880096435546875
ell 540, elapsed: 0.0002930164337158203
ell 539, elapsed: 0.00028705596923828125
ell 538, elapsed: 0.00029087066650390625
ell 537, elapsed: 0.00028705596923828125
ell 536, elapsed: 0.0002849102020263672
ell 535, elapsed: 0.0003349781036376953
ell 534, elapsed: 0.00029206275939941406
ell 533, elapsed: 0.00030684471130371094
ell 532, elapsed: 0.00028896331787109375
ell 531, elapsed: 0.00029015541076660156
ell 530, elapsed: 0.00029397010803222656
ell 529, elapsed: 0.0002880096435546875
ell 528, elapsed: 0.0002930164337158203
ell 527, elapsed: 0.00029206275939941406
ell 526, elapsed: 0.00028586387634277344
ell 525, elapsed: 0.0002930164337158203
ell 524, elapsed: 0.0002849102020263672
ell 523, elapsed: 0.00029397010803222656
ell 522, elapsed: 0.00032591819763183594
ell 521, elapsed: 0.0002930164337158203
ell 520, elapsed: 0.0003070831298828125
ell 519, elapsed: 0.0002930164337158203
ell 518, elapsed: 0.00029397010803222656
ell 517, elapsed: 0.0002899169921875
ell 516, elapsed: 0.00029397010803222656
ell 515, elapsed: 0.00028896331787109375
ell 514, elapsed: 0.0002911090850830078
ell 513, elapsed: 0.0002942085266113281
ell 512, elapsed: 0.0003628730773925781
ell 511, elapsed: 0.0003199577331542969
ell 510, elapsed: 0.00029206275939941406
ell 509, elapsed: 0.00030493736267089844
ell 508, elapsed: 0.0003008842468261719
ell 507, elapsed: 0.0002880096435546875
ell 506, elapsed: 0.0002918243408203125
ell 505, elapsed: 0.000286102294921875
ell 504, elapsed: 0.00028705596923828125
ell 503, elapsed: 0.00029206275939941406
ell 502, elapsed: 0.0002880096435546875
ell 501, elapsed: 0.0002949237823486328
ell 500, elapsed: 0.00028896331787109375
ell 499, elapsed: 0.00028705596923828125
ell 498, elapsed: 0.0002930164337158203
ell 497, elapsed: 0.0003719329833984375
ell 496, elapsed: 0.00030303001403808594
ell 495, elapsed: 0.00028896331787109375
ell 494, elapsed: 0.0002880096435546875
ell 493, elapsed: 0.0002930164337158203
ell 492, elapsed: 0.0002980232238769531
ell 491, elapsed: 0.0002949237823486328
ell 490, elapsed: 0.0002899169921875
ell 489, elapsed: 0.00028896331787109375
ell 488, elapsed: 0.0002980232238769531
ell 487, elapsed: 0.0002930164337158203
ell 486, elapsed: 0.00029587745666503906
ell 485, elapsed: 0.00029015541076660156
ell 484, elapsed: 0.00039505958557128906
ell 483, elapsed: 0.0002930164337158203
ell 482, elapsed: 0.0002930164337158203
ell 481, elapsed: 0.0002961158752441406
ell 480, elapsed: 0.00029087066650390625
ell 479, elapsed: 0.0002980232238769531
ell 478, elapsed: 0.00028896331787109375
ell 477, elapsed: 0.00029087066650390625
ell 476, elapsed: 0.0002970695495605469
ell 475, elapsed: 0.00029087066650390625
ell 474, elapsed: 0.0002970695495605469
ell 473, elapsed: 0.0002968311309814453
ell 472, elapsed: 0.0002930164337158203
ell 471, elapsed: 0.0003819465637207031
ell 470, elapsed: 0.0003001689910888672
ell 469, elapsed: 0.0002989768981933594
ell 468, elapsed: 0.00029015541076660156
ell 467, elapsed: 0.0002930164337158203
ell 466, elapsed: 0.0002980232238769531
ell 465, elapsed: 0.0002949237823486328
ell 464, elapsed: 0.0002980232238769531
ell 463, elapsed: 0.0002961158752441406
ell 462, elapsed: 0.0002892017364501953
ell 461, elapsed: 0.0002961158752441406
ell 460, elapsed: 0.0002999305725097656
ell 459, elapsed: 0.0004019737243652344
ell 458, elapsed: 0.0002949237823486328
ell 457, elapsed: 0.00030112266540527344
ell 456, elapsed: 0.00028896331787109375
ell 455, elapsed: 0.0002911090850830078
ell 454, elapsed: 0.0002961158752441406
ell 453, elapsed: 0.00029015541076660156
ell 452, elapsed: 0.0002961158752441406
ell 451, elapsed: 0.0003008842468261719
ell 450, elapsed: 0.0002930164337158203
ell 449, elapsed: 0.0002951622009277344
ell 448, elapsed: 0.00029778480529785156
ell 447, elapsed: 0.0003070831298828125
ell 446, elapsed: 0.0003829002380371094
ell 445, elapsed: 0.0002961158752441406
ell 444, elapsed: 0.0003001689910888672
ell 443, elapsed: 0.00029206275939941406
ell 442, elapsed: 0.0003008842468261719
ell 441, elapsed: 0.0002980232238769531
ell 440, elapsed: 0.0002930164337158203
ell 439, elapsed: 0.0002961158752441406
ell 438, elapsed: 0.0002930164337158203
ell 437, elapsed: 0.0002970695495605469
ell 436, elapsed: 0.0002930164337158203
ell 435, elapsed: 0.0002930164337158203
ell 434, elapsed: 0.0003819465637207031
ell 433, elapsed: 0.0002999305725097656
ell 432, elapsed: 0.00029587745666503906
ell 431, elapsed: 0.00029087066650390625
ell 430, elapsed: 0.0003020763397216797
ell 429, elapsed: 0.00029921531677246094
ell 428, elapsed: 0.0002930164337158203
ell 427, elapsed: 0.0002970695495605469
ell 426, elapsed: 0.0002918243408203125
ell 425, elapsed: 0.0002980232238769531
ell 424, elapsed: 0.0002930164337158203
ell 423, elapsed: 0.00029206275939941406
ell 422, elapsed: 0.0002989768981933594
ell 421, elapsed: 0.0004429817199707031
ell 420, elapsed: 0.00030112266540527344
ell 419, elapsed: 0.00029397010803222656
ell 418, elapsed: 0.0002930164337158203
ell 417, elapsed: 0.0002970695495605469
ell 416, elapsed: 0.0002930164337158203
ell 415, elapsed: 0.0002980232238769531
ell 414, elapsed: 0.00029206275939941406
ell 413, elapsed: 0.00029397010803222656
ell 412, elapsed: 0.0002989768981933594
ell 411, elapsed: 0.00029277801513671875
ell 410, elapsed: 0.00030612945556640625
ell 409, elapsed: 0.0003731250762939453
ell 408, elapsed: 0.0002980232238769531
ell 407, elapsed: 0.0003039836883544922
ell 406, elapsed: 0.0002918243408203125
ell 405, elapsed: 0.0003001689910888672
ell 404, elapsed: 0.00029397010803222656
ell 403, elapsed: 0.0002951622009277344
ell 402, elapsed: 0.0002989768981933594
ell 401, elapsed: 0.0002980232238769531
ell 400, elapsed: 0.0002968311309814453
ell 399, elapsed: 0.0002949237823486328
ell 398, elapsed: 0.0002970695495605469
ell 397, elapsed: 0.00029087066650390625
ell 396, elapsed: 0.0003769397735595703
ell 395, elapsed: 0.0003020763397216797
ell 394, elapsed: 0.00029277801513671875
ell 393, elapsed: 0.0003070831298828125
ell 392, elapsed: 0.0002918243408203125
ell 391, elapsed: 0.00029397010803222656
ell 390, elapsed: 0.0002980232238769531
ell 389, elapsed: 0.0002951622009277344
ell 388, elapsed: 0.0002999305725097656
ell 387, elapsed: 0.00029206275939941406
ell 386, elapsed: 0.0002918243408203125
ell 385, elapsed: 0.0002980232238769531
ell 384, elapsed: 0.00037097930908203125
ell 383, elapsed: 0.0003058910369873047
ell 382, elapsed: 0.0002949237823486328
ell 381, elapsed: 0.00029206275939941406
ell 380, elapsed: 0.0003209114074707031
ell 379, elapsed: 0.0002930164337158203
ell 378, elapsed: 0.0003008842468261719
ell 377, elapsed: 0.00029087066650390625
ell 376, elapsed: 0.0002949237823486328
ell 375, elapsed: 0.0002989768981933594
ell 374, elapsed: 0.0002949237823486328
ell 373, elapsed: 0.0002999305725097656
ell 372, elapsed: 0.0002930164337158203
ell 371, elapsed: 0.00039505958557128906
ell 370, elapsed: 0.0002999305725097656
ell 369, elapsed: 0.00029397010803222656
ell 368, elapsed: 0.00029587745666503906
ell 367, elapsed: 0.0002899169921875
ell 366, elapsed: 0.0003070831298828125
ell 365, elapsed: 0.00029206275939941406
ell 364, elapsed: 0.00029397010803222656
ell 363, elapsed: 0.0003020763397216797
ell 362, elapsed: 0.0002942085266113281
ell 361, elapsed: 0.0002989768981933594
ell 360, elapsed: 0.00029397010803222656
ell 359, elapsed: 0.0003819465637207031
ell 358, elapsed: 0.00031495094299316406
ell 357, elapsed: 0.00029206275939941406
ell 356, elapsed: 0.0002989768981933594
ell 355, elapsed: 0.00029397010803222656
ell 354, elapsed: 0.0002930164337158203
ell 353, elapsed: 0.00030684471130371094
ell 352, elapsed: 0.00029206275939941406
ell 351, elapsed: 0.0002980232238769531
ell 350, elapsed: 0.0002911090850830078
ell 349, elapsed: 0.00029397010803222656
ell 348, elapsed: 0.00029778480529785156
ell 347, elapsed: 0.00029206275939941406
ell 346, elapsed: 0.00039005279541015625
ell 345, elapsed: 0.0002961158752441406
ell 344, elapsed: 0.00029397010803222656
ell 343, elapsed: 0.00030112266540527344
ell 342, elapsed: 0.0002949237823486328
ell 341, elapsed: 0.0002999305725097656
ell 340, elapsed: 0.00029206275939941406
ell 339, elapsed: 0.0003001689910888672
ell 338, elapsed: 0.0002930164337158203
ell 337, elapsed: 0.0002899169921875
ell 336, elapsed: 0.00029587745666503906
ell 335, elapsed: 0.00029206275939941406
ell 334, elapsed: 0.00029587745666503906
ell 333, elapsed: 0.00031185150146484375
ell 332, elapsed: 0.0002608299255371094
ell 331, elapsed: 0.0002720355987548828
ell 330, elapsed: 0.0002529621124267578
ell 329, elapsed: 0.00026106834411621094
ell 328, elapsed: 0.0002799034118652344
ell 327, elapsed: 0.00025916099548339844
ell 326, elapsed: 0.0002579689025878906
ell 325, elapsed: 0.0002570152282714844
ell 324, elapsed: 0.0002827644348144531
ell 323, elapsed: 0.0002560615539550781
ell 322, elapsed: 0.0002560615539550781
ell 321, elapsed: 0.00027298927307128906
ell 320, elapsed: 0.00031113624572753906
ell 319, elapsed: 0.0002701282501220703
ell 318, elapsed: 0.00026488304138183594
ell 317, elapsed: 0.0002510547637939453
ell 316, elapsed: 0.0002739429473876953
ell 315, elapsed: 0.0002548694610595703
ell 314, elapsed: 0.0002601146697998047
ell 313, elapsed: 0.00025081634521484375
ell 312, elapsed: 0.0002651214599609375
ell 311, elapsed: 0.0002529621124267578
ell 310, elapsed: 0.0002579689025878906
ell 309, elapsed: 0.00026106834411621094
ell 308, elapsed: 0.0002529621124267578
ell 307, elapsed: 0.00025916099548339844
ell 306, elapsed: 0.0002491474151611328
ell 305, elapsed: 0.0002639293670654297
ell 304, elapsed: 0.0002608299255371094
ell 303, elapsed: 0.00026798248291015625
ell 302, elapsed: 0.00026106834411621094
ell 301, elapsed: 0.0002529621124267578
ell 300, elapsed: 0.0002651214599609375
ell 299, elapsed: 0.0002510547637939453
ell 298, elapsed: 0.0002498626708984375
ell 297, elapsed: 0.0002651214599609375
ell 296, elapsed: 0.0002491474151611328
ell 295, elapsed: 0.00025010108947753906
ell 294, elapsed: 0.00026702880859375
ell 293, elapsed: 0.0002491474151611328
ell 292, elapsed: 0.0002551078796386719
ell 291, elapsed: 0.0002830028533935547
ell 290, elapsed: 0.0002579689025878906
ell 289, elapsed: 0.0002529621124267578
ell 288, elapsed: 0.00025391578674316406
ell 287, elapsed: 0.0002651214599609375
ell 286, elapsed: 0.0002601146697998047
ell 285, elapsed: 0.00025200843811035156
ell 284, elapsed: 0.00026702880859375
ell 283, elapsed: 0.00026798248291015625
ell 282, elapsed: 0.00025391578674316406
ell 281, elapsed: 0.00025010108947753906
ell 280, elapsed: 0.00025391578674316406
ell 279, elapsed: 0.0002689361572265625
ell 278, elapsed: 0.0002560615539550781
ell 277, elapsed: 0.0002651214599609375
ell 276, elapsed: 0.0002570152282714844
ell 275, elapsed: 0.00028014183044433594
ell 274, elapsed: 0.00025200843811035156
ell 273, elapsed: 0.00024890899658203125
ell 272, elapsed: 0.0002560615539550781
ell 271, elapsed: 0.00026798248291015625
ell 270, elapsed: 0.0002548694610595703
ell 269, elapsed: 0.00025081634521484375
ell 268, elapsed: 0.000247955322265625
ell 267, elapsed: 0.0002808570861816406
ell 266, elapsed: 0.0002448558807373047
ell 265, elapsed: 0.0002532005310058594
ell 264, elapsed: 0.0002548694610595703
ell 263, elapsed: 0.00027680397033691406
ell 262, elapsed: 0.0002918243408203125
ell 261, elapsed: 0.0002510547637939453
ell 260, elapsed: 0.00025391578674316406
ell 259, elapsed: 0.00027108192443847656
ell 258, elapsed: 0.00024080276489257812
ell 257, elapsed: 0.00025081634521484375
ell 256, elapsed: 0.00024199485778808594
ell 255, elapsed: 0.0002579689025878906
ell 254, elapsed: 0.00024700164794921875
ell 253, elapsed: 0.0002410411834716797
ell 252, elapsed: 0.0002529621124267578
ell 251, elapsed: 0.00023984909057617188
ell 250, elapsed: 0.0002608299255371094
ell 249, elapsed: 0.00024819374084472656
ell 248, elapsed: 0.00025081634521484375
ell 247, elapsed: 0.00033402442932128906
ell 246, elapsed: 0.00029087066650390625
ell 245, elapsed: 0.0002970695495605469
ell 244, elapsed: 0.00028896331787109375
ell 243, elapsed: 0.0002961158752441406
ell 242, elapsed: 0.0002999305725097656
ell 241, elapsed: 0.00028586387634277344
ell 240, elapsed: 0.0002951622009277344
ell 239, elapsed: 0.00028896331787109375
ell 238, elapsed: 0.00029206275939941406
ell 237, elapsed: 0.0002849102020263672
ell 236, elapsed: 0.00029587745666503906
ell 235, elapsed: 0.0002930164337158203
ell 234, elapsed: 0.0003209114074707031
ell 233, elapsed: 0.00031280517578125
ell 232, elapsed: 0.00029397010803222656
ell 231, elapsed: 0.00028896331787109375
ell 230, elapsed: 0.0003108978271484375
ell 229, elapsed: 0.00028705596923828125
ell 228, elapsed: 0.0003039836883544922
ell 227, elapsed: 0.0003058910369873047
ell 226, elapsed: 0.00028586387634277344
ell 225, elapsed: 0.00031685829162597656
ell 224, elapsed: 0.0003039836883544922
ell 223, elapsed: 0.0002949237823486328
ell 222, elapsed: 0.00032401084899902344
ell 221, elapsed: 0.00031113624572753906
ell 220, elapsed: 0.00030493736267089844
ell 219, elapsed: 0.0002930164337158203
ell 218, elapsed: 0.000308990478515625
ell 217, elapsed: 0.0003139972686767578
ell 216, elapsed: 0.00029397010803222656
ell 215, elapsed: 0.00030612945556640625
ell 214, elapsed: 0.0002899169921875
ell 213, elapsed: 0.00030303001403808594
ell 212, elapsed: 0.0003039836883544922
ell 211, elapsed: 0.0002961158752441406
ell 210, elapsed: 0.0002930164337158203
ell 209, elapsed: 0.00035190582275390625
ell 208, elapsed: 0.0003108978271484375
ell 207, elapsed: 0.0002880096435546875
ell 206, elapsed: 0.0002930164337158203
ell 205, elapsed: 0.0002899169921875
ell 204, elapsed: 0.00028395652770996094
ell 203, elapsed: 0.00029087066650390625
ell 202, elapsed: 0.000286102294921875
ell 201, elapsed: 0.0003039836883544922
ell 200, elapsed: 0.0002892017364501953
ell 199, elapsed: 0.00028896331787109375
ell 198, elapsed: 0.00029397010803222656
ell 197, elapsed: 0.0002892017364501953
ell 196, elapsed: 0.0003349781036376953
ell 195, elapsed: 0.000308990478515625
ell 194, elapsed: 0.0002911090850830078
ell 193, elapsed: 0.00029587745666503906
ell 192, elapsed: 0.00028896331787109375
ell 191, elapsed: 0.00029397010803222656
ell 190, elapsed: 0.00029087066650390625
ell 189, elapsed: 0.0002989768981933594
ell 188, elapsed: 0.00029087066650390625
ell 187, elapsed: 0.00028705596923828125
ell 186, elapsed: 0.0002930164337158203
ell 185, elapsed: 0.00028896331787109375
ell 184, elapsed: 0.0003349781036376953
ell 183, elapsed: 0.00030803680419921875
ell 182, elapsed: 0.0002970695495605469
ell 181, elapsed: 0.0002968311309814453
ell 180, elapsed: 0.0003070831298828125
ell 179, elapsed: 0.0003070831298828125
ell 178, elapsed: 0.0002961158752441406
ell 177, elapsed: 0.00029087066650390625
ell 176, elapsed: 0.0002980232238769531
ell 175, elapsed: 0.0002951622009277344
ell 174, elapsed: 0.00030517578125
ell 173, elapsed: 0.0003020763397216797
ell 172, elapsed: 0.00029397010803222656
ell 171, elapsed: 0.0003581047058105469
ell 170, elapsed: 0.0002980232238769531
ell 169, elapsed: 0.00030303001403808594
ell 168, elapsed: 0.0003058910369873047
ell 167, elapsed: 0.0003151893615722656
ell 166, elapsed: 0.0003058910369873047
ell 165, elapsed: 0.0002930164337158203
ell 164, elapsed: 0.0002999305725097656
ell 163, elapsed: 0.00029397010803222656
ell 162, elapsed: 0.00029587745666503906
ell 161, elapsed: 0.0003020763397216797
ell 160, elapsed: 0.00029397010803222656
ell 159, elapsed: 0.00032401084899902344
ell 158, elapsed: 0.000308990478515625
ell 157, elapsed: 0.0003020763397216797
ell 156, elapsed: 0.0002892017364501953
ell 155, elapsed: 0.0002951622009277344
ell 154, elapsed: 0.0003108978271484375
ell 153, elapsed: 0.00029397010803222656
ell 152, elapsed: 0.000308990478515625
ell 151, elapsed: 0.0002961158752441406
ell 150, elapsed: 0.0002899169921875
ell 149, elapsed: 0.00030493736267089844
ell 148, elapsed: 0.00029397010803222656
ell 147, elapsed: 0.00030303001403808594
ell 146, elapsed: 0.0003180503845214844
ell 145, elapsed: 0.0003120899200439453
ell 144, elapsed: 0.00031280517578125
ell 143, elapsed: 0.00029397010803222656
ell 142, elapsed: 0.0002999305725097656
ell 141, elapsed: 0.0002930164337158203
ell 140, elapsed: 0.0002930164337158203
ell 139, elapsed: 0.00030303001403808594
ell 138, elapsed: 0.0002980232238769531
ell 137, elapsed: 0.0003020763397216797
ell 136, elapsed: 0.0002911090850830078
ell 135, elapsed: 0.0002980232238769531
ell 134, elapsed: 0.00030303001403808594
ell 133, elapsed: 0.0003941059112548828
ell 132, elapsed: 0.0003161430358886719
ell 131, elapsed: 0.0002899169921875
ell 130, elapsed: 0.0002970695495605469
ell 129, elapsed: 0.00029397010803222656
ell 128, elapsed: 0.0002911090850830078
ell 127, elapsed: 0.0002968311309814453
ell 126, elapsed: 0.0002961158752441406
ell 125, elapsed: 0.00029778480529785156
ell 124, elapsed: 0.00029206275939941406
ell 123, elapsed: 0.0002899169921875
ell 122, elapsed: 0.00030803680419921875
ell 121, elapsed: 0.00033402442932128906
ell 120, elapsed: 0.0003070831298828125
ell 119, elapsed: 0.00030684471130371094
ell 118, elapsed: 0.00030493736267089844
ell 117, elapsed: 0.00032591819763183594
ell 116, elapsed: 0.0003018379211425781
ell 115, elapsed: 0.00032806396484375
ell 114, elapsed: 0.00030303001403808594
ell 113, elapsed: 0.0002951622009277344
ell 112, elapsed: 0.0003039836883544922
ell 111, elapsed: 0.0002968311309814453
ell 110, elapsed: 0.0003101825714111328
ell 109, elapsed: 0.00033402442932128906
ell 108, elapsed: 0.0003108978271484375
ell 107, elapsed: 0.00030922889709472656
ell 106, elapsed: 0.0002949237823486328
ell 105, elapsed: 0.0003108978271484375
ell 104, elapsed: 0.0003120899200439453
ell 103, elapsed: 0.0002970695495605469
ell 102, elapsed: 0.0003108978271484375
ell 101, elapsed: 0.0003108978271484375
ell 100, elapsed: 0.00031113624572753906
ell 99, elapsed: 0.00029587745666503906
ell 98, elapsed: 0.0003418922424316406
ell 97, elapsed: 0.00029277801513671875
ell 96, elapsed: 0.0003330707550048828
ell 95, elapsed: 0.00030803680419921875
ell 94, elapsed: 0.0002930164337158203
ell 93, elapsed: 0.000308990478515625
ell 92, elapsed: 0.00027298927307128906
ell 91, elapsed: 0.0002739429473876953
ell 90, elapsed: 0.0002830028533935547
ell 89, elapsed: 0.00027489662170410156
ell 88, elapsed: 0.00028705596923828125
ell 87, elapsed: 0.00027108192443847656
ell 86, elapsed: 0.0002701282501220703
ell 85, elapsed: 0.00028014183044433594
ell 84, elapsed: 0.00027298927307128906
ell 83, elapsed: 0.0003161430358886719
ell 82, elapsed: 0.00030493736267089844
ell 81, elapsed: 0.0002892017364501953
ell 80, elapsed: 0.00029397010803222656
ell 79, elapsed: 0.0002880096435546875
ell 78, elapsed: 0.0002951622009277344
ell 77, elapsed: 0.00028514862060546875
ell 76, elapsed: 0.0002830028533935547
ell 75, elapsed: 0.0002951622009277344
ell 74, elapsed: 0.0002830028533935547
ell 73, elapsed: 0.00029587745666503906
ell 72, elapsed: 0.000286102294921875
ell 71, elapsed: 0.000286102294921875
ell 70, elapsed: 0.0003421306610107422
ell 69, elapsed: 0.0002999305725097656
ell 68, elapsed: 0.0002899169921875
ell 67, elapsed: 0.00028014183044433594
ell 66, elapsed: 0.0002880096435546875
ell 65, elapsed: 0.00028204917907714844
ell 64, elapsed: 0.0002810955047607422
ell 63, elapsed: 0.0002880096435546875
ell 62, elapsed: 0.00028204917907714844
ell 61, elapsed: 0.0002880096435546875
ell 60, elapsed: 0.0002830028533935547
ell 59, elapsed: 0.0002799034118652344
ell 58, elapsed: 0.0002880096435546875
ell 57, elapsed: 0.0002989768981933594
ell 56, elapsed: 0.00027108192443847656
ell 55, elapsed: 0.0002601146697998047
ell 54, elapsed: 0.00026297569274902344
ell 53, elapsed: 0.0002701282501220703
ell 52, elapsed: 0.0002639293670654297
ell 51, elapsed: 0.00026798248291015625
ell 50, elapsed: 0.0002639293670654297
ell 49, elapsed: 0.0002601146697998047
ell 48, elapsed: 0.00026798248291015625
ell 47, elapsed: 0.0002620220184326172
ell 46, elapsed: 0.00026702880859375
ell 45, elapsed: 0.0002598762512207031
ell 44, elapsed: 0.00026607513427734375
ell 43, elapsed: 0.0002989768981933594
ell 42, elapsed: 0.00027489662170410156
ell 41, elapsed: 0.00026297569274902344
ell 40, elapsed: 0.00024199485778808594
ell 39, elapsed: 0.00024199485778808594
ell 38, elapsed: 0.00026106834411621094
ell 37, elapsed: 0.00025010108947753906
ell 36, elapsed: 0.000247955322265625
ell 35, elapsed: 0.00023794174194335938
ell 34, elapsed: 0.0002460479736328125
ell 33, elapsed: 0.00024890899658203125
ell 32, elapsed: 0.0002491474151611328
ell 31, elapsed: 0.00024890899658203125
ell 30, elapsed: 0.0002570152282714844
ell 29, elapsed: 0.0002560615539550781
ell 28, elapsed: 0.0002899169921875
ell 27, elapsed: 0.0002448558807373047
ell 26, elapsed: 0.00025081634521484375
ell 25, elapsed: 0.00024199485778808594
ell 24, elapsed: 0.00025200843811035156
ell 23, elapsed: 0.00024700164794921875
ell 22, elapsed: 0.00024008750915527344
ell 21, elapsed: 0.00025200843811035156
ell 20, elapsed: 0.00024008750915527344
ell 19, elapsed: 0.0002510547637939453
ell 18, elapsed: 0.00024008750915527344
ell 17, elapsed: 0.0002429485321044922
ell 16, elapsed: 0.0002460479736328125
ell 15, elapsed: 0.000244140625
ell 14, elapsed: 0.00025391578674316406
ell 13, elapsed: 0.000247955322265625
ell 12, elapsed: 0.00026798248291015625
ell 11, elapsed: 0.0002620220184326172
ell 10, elapsed: 0.00024700164794921875
ell 9, elapsed: 0.0002560615539550781
ell 8, elapsed: 0.0002460479736328125
ell 7, elapsed: 0.00024890899658203125
ell 6, elapsed: 0.0002429485321044922
ell 5, elapsed: 0.00024199485778808594
ell 4, elapsed: 0.0002529621124267578
ell 3, elapsed: 0.00024199485778808594
ell 2, elapsed: 0.00024580955505371094
ell 1, elapsed: 0.00023984909057617188
ell 0, elapsed: 0.00025081634521484375
  0.399487 seconds (46.03 k allocations: 3.091 MiB, 7.38% compilation time)
elapsed: 0.0003249645233154297
step:          0.047064 sec (0 allocations: 0 byte, 0.0% gc time)
swapping:      0.000379 sec (0 allocations: 0 byte, 0.0% gc time)
calc_Mellell!: 0.005558 sec (0 allocations: 0 byte, 0.0% gc time)
  t0 :  0.001227 sec (0 allocations: 0 byte, 0.0% gc time)
  tm2 : 0.073284 sec (0 allocations: 0 byte, 0.0% gc time)
  tm2s: 0.000852 sec (0 allocations: 0 byte, 0.0% gc time)
  tm4 : 0.159065 sec (0 allocations: 0 byte, 0.0% gc time)
  tp2 : 0.0 sec (0 allocations: 0 byte, 0.0% gc time)
  tp2s: 0.0 sec (0 allocations: 0 byte, 0.0% gc time)
  tp4 : 0.0 sec (0 allocations: 0 byte, 0.0% gc time)
calc_wtdll!:   0.265842 sec (9.9 k allocations: 1.047 MB, 0.0% gc time)
calc_wljj!:    0.019819 sec (689 allocations: 10.766 KB, 0.0% gc time)
mult_prefac!:  0.0 sec (0 allocations: 0 byte, 0.0% gc time)
convert:       0.0 sec (0 allocations: 0 byte, 0.0% gc time)
write:         0.027509 sec (0 allocations: 0 byte, 0.0% gc time)
test_rand_2f1: 0.0 sec (0 allocations: 0 byte, 0.0% gc time)
Closing outfile out/Ml21-cache.bin...   0.000009 seconds
  0.000374 seconds (36 allocations: 27.953 KiB)
make_phi():   0.001146 seconds (8.18 k allocations: 237.844 KiB)
  0.115186 seconds (141.90 k allocations: 3.483 MiB)
tskip:       0.000584 sec (0 allocations: 0 byte, 0.0% gc time)
tread:       0.021016 sec (17 allocations: 10.641 KB, 0.0% gc time)
tmultphi:    0.009085 sec (0 allocations: 0 byte, 0.0% gc time)
tbrfft:      0.030911 sec (0 allocations: 0 byte, 0.0% gc time)
tmultprefac: 0.017601 sec (0 allocations: 0 byte, 0.0% gc time)
toutfunc:    0.032816 sec (127.507 k allocations: 2.312 MB, 0.0% gc time)
Testing R=1.0 ... passed
Calculating fmax: 
  dlrec    = 4
  dlrecRg1 = -4
  q=1.1, R=0.9:	  0.253800 seconds (105.72 k allocations: 15.273 MiB, 6.90% gc time)

  0.253949 seconds (105.78 k allocations: 15.307 MiB, 6.90% gc time)
ℓ = 1202
Δℓ = 4
ΔℓRg1 = -4
N = 1600
q = 1.1
kmin = 1.0e-5
kmax = 100000.00000000004
χ0 = 0.023029999999999995
RR = RR.tsv
ℓmax = ℓmax.bin
f21 = f21.bin
kmin = 1.0e-5
kmax = 100000.0
dlrec    = 4
dlrecRg1 = -4
Output size: 5741568 bytes = 0.005347251892089844 GiB
Output size: 51264 bytes = 4.774332046508789e-5 GiB
Reading 'out/F21EllCache'...   0.000816 seconds (197 allocations: 84.203 KiB)
ellmax: 1202
lmaxcache: 1202
fell[:,1,1] = ComplexF64[1.3482014726274674e-57 - 3.302141236118086e-73im, 1.357860004724329e-57 - 3.3257978169518355e-73im]
ell 1202, elapsed: 1.0967254638671875e-5
ell 1201, elapsed: 0.00025916099548339844
ell 1200, elapsed: 0.0002911090850830078
ell 1199, elapsed: 0.0002460479736328125
ell 1198, elapsed: 0.00024580955505371094
ell 1002, elapsed: 0.007915019989013672
ell 1001, elapsed: 0.0002570152282714844
ell 1000, elapsed: 0.000247955322265625
ell 999, elapsed: 0.000247955322265625
ell 998, elapsed: 0.0002598762512207031
ell 902, elapsed: 0.0042111873626708984
ell 901, elapsed: 0.0002570152282714844
ell 900, elapsed: 0.0002551078796386719
ell 899, elapsed: 0.0002541542053222656
ell 898, elapsed: 0.0002570152282714844
ell 802, elapsed: 0.004171848297119141
ell 801, elapsed: 0.00025916099548339844
ell 800, elapsed: 0.00025582313537597656
ell 799, elapsed: 0.00029397010803222656
ell 798, elapsed: 0.0002570152282714844
ell 702, elapsed: 0.004189014434814453
ell 701, elapsed: 0.00025916099548339844
ell 700, elapsed: 0.00025582313537597656
ell 699, elapsed: 0.0002560615539550781
ell 698, elapsed: 0.0002579689025878906
ell 602, elapsed: 0.004179954528808594
ell 601, elapsed: 0.00025916099548339844
ell 600, elapsed: 0.0002548694610595703
ell 599, elapsed: 0.0002551078796386719
ell 598, elapsed: 0.0002598762512207031
ell 502, elapsed: 0.004235982894897461
ell 501, elapsed: 0.0002639293670654297
ell 500, elapsed: 0.00026297569274902344
ell 499, elapsed: 0.0004589557647705078
ell 498, elapsed: 0.0002608299255371094
ell 402, elapsed: 0.004232168197631836
ell 401, elapsed: 0.00026798248291015625
ell 400, elapsed: 0.0002570152282714844
ell 399, elapsed: 0.0002639293670654297
ell 398, elapsed: 0.0002601146697998047
ell 302, elapsed: 0.00423884391784668
ell 301, elapsed: 0.0002651214599609375
ell 300, elapsed: 0.0002601146697998047
ell 299, elapsed: 0.0002570152282714844
ell 298, elapsed: 0.0002579689025878906
ell 202, elapsed: 0.004291057586669922
ell 201, elapsed: 0.00026297569274902344
ell 200, elapsed: 0.00030303001403808594
ell 199, elapsed: 0.0002689361572265625
ell 198, elapsed: 0.0002589225769042969
ell 152, elapsed: 0.0021228790283203125
ell 151, elapsed: 0.0002651214599609375
ell 150, elapsed: 0.0002570152282714844
ell 149, elapsed: 0.00026702880859375
ell 148, elapsed: 0.0002608299255371094
ell 127, elapsed: 0.0011289119720458984
ell 126, elapsed: 0.0002570152282714844
ell 125, elapsed: 0.0002620220184326172
ell 124, elapsed: 0.0002560615539550781
ell 123, elapsed: 0.00025582313537597656
ell 114, elapsed: 0.0006358623504638672
ell 113, elapsed: 0.0002601146697998047
ell 112, elapsed: 0.0002548694610595703
ell 111, elapsed: 0.0002579689025878906
ell 110, elapsed: 0.0002570152282714844
ell 102, elapsed: 0.0005910396575927734
ell 101, elapsed: 0.0002541542053222656
ell 100, elapsed: 0.0002548694610595703
ell 99, elapsed: 0.0002529621124267578
ell 98, elapsed: 0.0002560615539550781
ell 97, elapsed: 0.0003008842468261719
ell 96, elapsed: 0.0002980232238769531
ell 95, elapsed: 0.0002999305725097656
ell 94, elapsed: 0.00030303001403808594
ell 93, elapsed: 0.0003001689910888672
ell 92, elapsed: 0.0002989768981933594
ell 91, elapsed: 0.0002999305725097656
ell 90, elapsed: 0.0003921985626220703
ell 89, elapsed: 0.0003108978271484375
ell 88, elapsed: 0.00029397010803222656
ell 87, elapsed: 0.00029778480529785156
ell 86, elapsed: 0.00032019615173339844
ell 85, elapsed: 0.00028204917907714844
ell 84, elapsed: 0.0002810955047607422
ell 83, elapsed: 0.0002751350402832031
ell 82, elapsed: 0.00031113624572753906
ell 81, elapsed: 0.00030612945556640625
ell 80, elapsed: 0.00029587745666503906
ell 79, elapsed: 0.0002970695495605469
ell 78, elapsed: 0.0003178119659423828
ell 77, elapsed: 0.0002899169921875
ell 76, elapsed: 0.0002970695495605469
ell 75, elapsed: 0.0002930164337158203
ell 74, elapsed: 0.0003020763397216797
ell 73, elapsed: 0.0002911090850830078
ell 72, elapsed: 0.00028777122497558594
ell 71, elapsed: 0.00030303001403808594
ell 70, elapsed: 0.0002970695495605469
ell 69, elapsed: 0.0002989768981933594
ell 68, elapsed: 0.00028395652770996094
ell 67, elapsed: 0.00028896331787109375
ell 66, elapsed: 0.0003020763397216797
ell 65, elapsed: 0.0003020763397216797
ell 64, elapsed: 0.00030684471130371094
ell 63, elapsed: 0.000286102294921875
ell 62, elapsed: 0.0002951622009277344
ell 61, elapsed: 0.00028395652770996094
ell 60, elapsed: 0.00028705596923828125
ell 59, elapsed: 0.0003008842468261719
ell 58, elapsed: 0.00028586387634277344
ell 57, elapsed: 0.00030112266540527344
ell 56, elapsed: 0.0002880096435546875
ell 55, elapsed: 0.00028586387634277344
ell 54, elapsed: 0.00030112266540527344
ell 53, elapsed: 0.00029397010803222656
ell 52, elapsed: 0.00037288665771484375
ell 51, elapsed: 0.0002658367156982422
ell 50, elapsed: 0.00026679039001464844
ell 49, elapsed: 0.0002849102020263672
ell 48, elapsed: 0.00026988983154296875
ell 47, elapsed: 0.0002770423889160156
ell 46, elapsed: 0.0002682209014892578
ell 45, elapsed: 0.0002651214599609375
ell 44, elapsed: 0.0002760887145996094
ell 43, elapsed: 0.00026798248291015625
ell 42, elapsed: 0.0002751350402832031
ell 41, elapsed: 0.00026607513427734375
ell 40, elapsed: 0.0002658367156982422
ell 39, elapsed: 0.0002758502960205078
ell 38, elapsed: 0.0003218650817871094
ell 37, elapsed: 0.00030493736267089844
ell 36, elapsed: 0.0002880096435546875
ell 35, elapsed: 0.0002911090850830078
ell 34, elapsed: 0.00030517578125
ell 33, elapsed: 0.0003008842468261719
ell 32, elapsed: 0.00030612945556640625
ell 31, elapsed: 0.0002918243408203125
ell 30, elapsed: 0.0002930164337158203
ell 29, elapsed: 0.0002989768981933594
ell 28, elapsed: 0.0002949237823486328
ell 27, elapsed: 0.0003001689910888672
ell 26, elapsed: 0.00033092498779296875
ell 25, elapsed: 0.0002980232238769531
ell 24, elapsed: 0.00030493736267089844
ell 23, elapsed: 0.00029397010803222656
ell 22, elapsed: 0.00030803680419921875
ell 21, elapsed: 0.0002911090850830078
ell 20, elapsed: 0.0002951622009277344
ell 19, elapsed: 0.00030303001403808594
ell 18, elapsed: 0.00029206275939941406
ell 17, elapsed: 0.0002989768981933594
ell 16, elapsed: 0.00029087066650390625
ell 15, elapsed: 0.00028896331787109375
ell 14, elapsed: 0.00026106834411621094
ell 13, elapsed: 0.0002739429473876953
ell 12, elapsed: 0.0002639293670654297
ell 11, elapsed: 0.000244140625
ell 10, elapsed: 0.00025200843811035156
ell 9, elapsed: 0.0002410411834716797
ell 8, elapsed: 0.0002429485321044922
ell 7, elapsed: 0.00025200843811035156
ell 6, elapsed: 0.0002892017364501953
ell 5, elapsed: 0.0002930164337158203
ell 4, elapsed: 0.00029397010803222656
ell 3, elapsed: 0.00028586387634277344
ell 2, elapsed: 0.00029206275939941406
ell 1, elapsed: 0.00028395652770996094
ell 0, elapsed: 0.0003039836883544922
  0.092618 seconds (11.51 k allocations: 719.594 KiB)
elapsed: 0.00041413307189941406
step:          0.047583 sec (0 allocations: 0 byte, 0.0% gc time)
swapping:      0.000309 sec (0 allocations: 0 byte, 0.0% gc time)
calc_Mellell!: 0.000813 sec (0 allocations: 0 byte, 0.0% gc time)
  t0 :  0.000199 sec (0 allocations: 0 byte, 0.0% gc time)
  tm2 : 0.009633 sec (0 allocations: 0 byte, 0.0% gc time)
  tm2s: 0.000162 sec (0 allocations: 0 byte, 0.0% gc time)
  tm4 : 0.023288 sec (0 allocations: 0 byte, 0.0% gc time)
  tp2 : 0.0 sec (0 allocations: 0 byte, 0.0% gc time)
  tp2s: 0.0 sec (0 allocations: 0 byte, 0.0% gc time)
  tp4 : 0.0 sec (0 allocations: 0 byte, 0.0% gc time)
calc_wtdll!:   0.033574 sec (1.344 k allocations: 147.0 KB, 0.0% gc time)
calc_wljj!:    0.001961 sec (6 allocations: 96 byte, 0.0% gc time)
mult_prefac!:  0.0 sec (0 allocations: 0 byte, 0.0% gc time)
convert:       0.0 sec (0 allocations: 0 byte, 0.0% gc time)
write:         0.002799 sec (0 allocations: 0 byte, 0.0% gc time)
test_rand_2f1: 0.0 sec (0 allocations: 0 byte, 0.0% gc time)
Closing outfile out/Ml21-cache.bin...   0.000008 seconds
  0.000389 seconds (36 allocations: 27.953 KiB)
make_phi():   0.009427 seconds (8.18 k allocations: 237.844 KiB)
  0.012647 seconds (11.65 k allocations: 308.688 KiB)
tskip:       1.7e-5 sec (0 allocations: 0 byte, 0.0% gc time)
tread:       0.001955 sec (17 allocations: 2.125 KB, 0.0% gc time)
tmultphi:    0.000952 sec (0 allocations: 0 byte, 0.0% gc time)
tbrfft:      0.00303 sec (0 allocations: 0 byte, 0.0% gc time)
tmultprefac: 0.001803 sec (0 allocations: 0 byte, 0.0% gc time)
toutfunc:    0.004587 sec (10.304 k allocations: 196.0 KB, 0.0% gc time)
Testing R=0.9 ... passed
Calculating fmax: 
  dlrec    = 4
  dlrecRg1 = -4
  q=1.1, R=0.8:	  0.193007 seconds (103.21 k allocations: 14.840 MiB)

  0.193123 seconds (103.26 k allocations: 14.874 MiB)
ℓ = 1202
Δℓ = 4
ΔℓRg1 = -4
N = 1600
q = 1.1
kmin = 1.0e-5
kmax = 100000.00000000004
χ0 = 0.023029999999999995
RR = RR.tsv
ℓmax = ℓmax.bin
f21 = f21.bin
kmin = 1.0e-5
kmax = 100000.0
dlrec    = 4
dlrecRg1 = -4
Output size: 5741568 bytes = 0.005347251892089844 GiB
Output size: 51264 bytes = 4.774332046508789e-5 GiB
Reading 'out/F21EllCache'...   0.001235 seconds (197 allocations: 84.203 KiB)
ellmax: 1202
lmaxcache: 1202
fell[:,1,1] = ComplexF64[7.519068145690986e-120 - 1.8416405474382574e-135im, 7.541664537386155e-120 - 1.847175067190611e-135im]
ell 1202, elapsed: 1.5020370483398438e-5
ell 1201, elapsed: 0.00032401084899902344
ell 1200, elapsed: 0.0002799034118652344
ell 1199, elapsed: 0.0002779960632324219
ell 1198, elapsed: 0.0002779960632324219
ell 1002, elapsed: 0.008236885070800781
ell 1001, elapsed: 0.00026416778564453125
ell 1000, elapsed: 0.00025582313537597656
ell 999, elapsed: 0.0002560615539550781
ell 998, elapsed: 0.0002548694610595703
ell 902, elapsed: 0.004192829132080078
ell 901, elapsed: 0.0002570152282714844
ell 900, elapsed: 0.00027108192443847656
ell 899, elapsed: 0.0002548694610595703
ell 898, elapsed: 0.0002570152282714844
ell 802, elapsed: 0.004124879837036133
ell 801, elapsed: 0.000244140625
ell 800, elapsed: 0.000244140625
ell 799, elapsed: 0.0002410411834716797
ell 798, elapsed: 0.00024318695068359375
ell 702, elapsed: 0.004071950912475586
ell 701, elapsed: 0.0002579689025878906
ell 700, elapsed: 0.00026297569274902344
ell 699, elapsed: 0.0002570152282714844
ell 698, elapsed: 0.0002560615539550781
ell 602, elapsed: 0.004225969314575195
ell 601, elapsed: 0.0002620220184326172
ell 600, elapsed: 0.0002570152282714844
ell 599, elapsed: 0.0002980232238769531
ell 598, elapsed: 0.00026416778564453125
ell 502, elapsed: 0.004313945770263672
ell 501, elapsed: 0.00026607513427734375
ell 500, elapsed: 0.0002620220184326172
ell 499, elapsed: 0.0002570152282714844
ell 498, elapsed: 0.0002570152282714844
ell 402, elapsed: 0.004241943359375
ell 401, elapsed: 0.0002601146697998047
ell 400, elapsed: 0.0002601146697998047
ell 399, elapsed: 0.0002570152282714844
ell 398, elapsed: 0.0002570152282714844
ell 302, elapsed: 0.004174947738647461
ell 301, elapsed: 0.0002651214599609375
ell 300, elapsed: 0.0002701282501220703
ell 299, elapsed: 0.0002620220184326172
ell 298, elapsed: 0.0002548694610595703
ell 202, elapsed: 0.004263877868652344
ell 201, elapsed: 0.0002598762512207031
ell 200, elapsed: 0.0002570152282714844
ell 199, elapsed: 0.0002548694610595703
ell 198, elapsed: 0.0002570152282714844
ell 152, elapsed: 0.002084970474243164
ell 151, elapsed: 0.0002570152282714844
ell 150, elapsed: 0.0002560615539550781
ell 149, elapsed: 0.0002551078796386719
ell 148, elapsed: 0.00025391578674316406
ell 127, elapsed: 0.0010919570922851562
ell 126, elapsed: 0.0002529621124267578
ell 125, elapsed: 0.0002529621124267578
ell 124, elapsed: 0.0002548694610595703
ell 123, elapsed: 0.0002529621124267578
ell 114, elapsed: 0.0006580352783203125
ell 113, elapsed: 0.0002529621124267578
ell 112, elapsed: 0.00025916099548339844
ell 111, elapsed: 0.0002532005310058594
ell 110, elapsed: 0.00025391578674316406
ell 102, elapsed: 0.000576019287109375
ell 101, elapsed: 0.0002510547637939453
ell 100, elapsed: 0.00025200843811035156
ell 99, elapsed: 0.0002589225769042969
ell 98, elapsed: 0.0002532005310058594
ell 97, elapsed: 0.00029921531677246094
ell 96, elapsed: 0.0002911090850830078
ell 95, elapsed: 0.00030612945556640625
ell 94, elapsed: 0.0003228187561035156
ell 93, elapsed: 0.0002918243408203125
ell 92, elapsed: 0.0002980232238769531
ell 91, elapsed: 0.00029397010803222656
ell 90, elapsed: 0.00030112266540527344
ell 89, elapsed: 0.0002951622009277344
ell 88, elapsed: 0.0002951622009277344
ell 87, elapsed: 0.00029587745666503906
ell 86, elapsed: 0.00030612945556640625
ell 85, elapsed: 0.00030803680419921875
ell 84, elapsed: 0.0002961158752441406
ell 83, elapsed: 0.0002949237823486328
ell 82, elapsed: 0.0003190040588378906
ell 81, elapsed: 0.00030303001403808594
ell 80, elapsed: 0.00030493736267089844
ell 79, elapsed: 0.00029206275939941406
ell 78, elapsed: 0.00028395652770996094
ell 77, elapsed: 0.00030493736267089844
ell 76, elapsed: 0.0002899169921875
ell 75, elapsed: 0.0002980232238769531
ell 74, elapsed: 0.00029087066650390625
ell 73, elapsed: 0.0002930164337158203
ell 72, elapsed: 0.0002961158752441406
ell 71, elapsed: 0.00029587745666503906
ell 70, elapsed: 0.0002961158752441406
ell 69, elapsed: 0.0003719329833984375
ell 68, elapsed: 0.00027298927307128906
ell 67, elapsed: 0.0002758502960205078
ell 66, elapsed: 0.00026988983154296875
ell 65, elapsed: 0.0002741813659667969
ell 64, elapsed: 0.0002701282501220703
ell 63, elapsed: 0.00026702880859375
ell 62, elapsed: 0.000270843505859375
ell 61, elapsed: 0.00026702880859375
ell 60, elapsed: 0.0002789497375488281
ell 59, elapsed: 0.0002689361572265625
ell 58, elapsed: 0.0002980232238769531
[...]
ell 782, elapsed: 0.0008640289306640625
ell 781, elapsed: 0.0005640983581542969
ell 780, elapsed: 0.0005369186401367188
ell 779, elapsed: 0.0005309581756591797
ell 778, elapsed: 0.0005311965942382812
ell 772, elapsed: 0.0009088516235351562
ell 771, elapsed: 0.0005300045013427734
ell 770, elapsed: 0.0005261898040771484
ell 769, elapsed: 0.0005397796630859375
ell 768, elapsed: 0.0005309581756591797
ell 762, elapsed: 0.0009639263153076172
ell 761, elapsed: 0.0005331039428710938
ell 760, elapsed: 0.0005319118499755859
ell 759, elapsed: 0.0005381107330322266
ell 758, elapsed: 0.0005791187286376953
ell 752, elapsed: 0.0008289813995361328
ell 751, elapsed: 0.0004680156707763672
ell 750, elapsed: 0.0004711151123046875
ell 749, elapsed: 0.00047016143798828125
ell 748, elapsed: 0.0004661083221435547
ell 742, elapsed: 0.0008070468902587891
ell 741, elapsed: 0.0005068778991699219
ell 740, elapsed: 0.0004761219024658203
ell 739, elapsed: 0.0004589557647705078
ell 738, elapsed: 0.0004611015319824219
ell 732, elapsed: 0.0007860660552978516
ell 731, elapsed: 0.0004589557647705078
ell 730, elapsed: 0.0004589557647705078
ell 729, elapsed: 0.0004870891571044922
ell 728, elapsed: 0.0004820823669433594
ell 722, elapsed: 0.0008080005645751953
ell 721, elapsed: 0.0004608631134033203
ell 720, elapsed: 0.0004661083221435547
ell 719, elapsed: 0.00048613548278808594
ell 718, elapsed: 0.0004699230194091797
ell 712, elapsed: 0.0008280277252197266
ell 711, elapsed: 0.0005440711975097656
ell 710, elapsed: 0.0004489421844482422
ell 709, elapsed: 0.0005061626434326172
ell 708, elapsed: 0.0005419254302978516
ell 702, elapsed: 0.0009298324584960938
ell 701, elapsed: 0.000514984130859375
ell 700, elapsed: 0.0005772113800048828
ell 699, elapsed: 0.0005459785461425781
ell 698, elapsed: 0.0005290508270263672
ell 692, elapsed: 0.0009279251098632812
ell 691, elapsed: 0.0005238056182861328
ell 690, elapsed: 0.0005369186401367188
ell 689, elapsed: 0.0005970001220703125
ell 688, elapsed: 0.0005669593811035156
ell 682, elapsed: 0.0010068416595458984
ell 681, elapsed: 0.0005209445953369141
ell 680, elapsed: 0.0005478858947753906
ell 679, elapsed: 0.0005269050598144531
ell 678, elapsed: 0.0005381107330322266
ell 672, elapsed: 0.008445024490356445
ell 671, elapsed: 0.0005230903625488281
ell 670, elapsed: 0.0005428791046142578
ell 669, elapsed: 0.0005290508270263672
ell 668, elapsed: 0.0005359649658203125
ell 662, elapsed: 0.0009241104125976562
ell 661, elapsed: 0.0017628669738769531
ell 660, elapsed: 0.0005559921264648438
ell 659, elapsed: 0.0005450248718261719
ell 658, elapsed: 0.000553131103515625
ell 652, elapsed: 0.0009770393371582031
ell 651, elapsed: 0.0005540847778320312
ell 650, elapsed: 0.00055694580078125
ell 649, elapsed: 0.0005578994750976562
ell 648, elapsed: 0.0005631446838378906
ell 642, elapsed: 0.0009808540344238281
ell 641, elapsed: 0.0005338191986083984
ell 640, elapsed: 0.0006551742553710938
ell 639, elapsed: 0.0005288124084472656
ell 638, elapsed: 0.0005509853363037109
ell 632, elapsed: 0.0009241104125976562
ell 631, elapsed: 0.0005400180816650391
ell 630, elapsed: 0.0005550384521484375
ell 629, elapsed: 0.0006399154663085938
ell 628, elapsed: 0.0005500316619873047
ell 622, elapsed: 0.0009469985961914062
ell 621, elapsed: 0.0005211830139160156
ell 620, elapsed: 0.0005278587341308594
ell 619, elapsed: 0.0005428791046142578
ell 618, elapsed: 0.0006320476531982422
ell 612, elapsed: 0.0009679794311523438
ell 611, elapsed: 0.0005321502685546875
ell 610, elapsed: 0.0005431175231933594
ell 609, elapsed: 0.0005388259887695312
ell 608, elapsed: 0.0005488395690917969
ell 602, elapsed: 0.001096963882446289
ell 601, elapsed: 0.0005390644073486328
ell 600, elapsed: 0.0005528926849365234
ell 599, elapsed: 0.0005438327789306641
ell 598, elapsed: 0.0005619525909423828
ell 592, elapsed: 0.0009720325469970703
ell 591, elapsed: 0.0005588531494140625
ell 590, elapsed: 0.0005481243133544922
ell 589, elapsed: 0.0005400180816650391
ell 588, elapsed: 0.0005509853363037109
ell 582, elapsed: 0.0009541511535644531
ell 581, elapsed: 0.0005390644073486328
ell 580, elapsed: 0.0006158351898193359
ell 579, elapsed: 0.0005390644073486328
ell 578, elapsed: 0.0005471706390380859
ell 572, elapsed: 0.00096893310546875
ell 571, elapsed: 0.0005328655242919922
ell 570, elapsed: 0.0005559921264648438
ell 569, elapsed: 0.0006151199340820312
ell 568, elapsed: 0.0005459785461425781
ell 562, elapsed: 0.0009701251983642578
ell 561, elapsed: 0.0005340576171875
ell 560, elapsed: 0.0005440711975097656
ell 559, elapsed: 0.0005331039428710938
ell 558, elapsed: 0.0005459785461425781
ell 552, elapsed: 0.0009801387786865234
ell 551, elapsed: 0.0005371570587158203
ell 550, elapsed: 0.0005428791046142578
ell 549, elapsed: 0.0005350112915039062
ell 548, elapsed: 0.0005450248718261719
ell 542, elapsed: 0.0010349750518798828
ell 541, elapsed: 0.0005331039428710938
ell 540, elapsed: 0.0005500316619873047
ell 539, elapsed: 0.0005421638488769531
ell 538, elapsed: 0.0005469322204589844
ell 532, elapsed: 0.0009620189666748047
ell 531, elapsed: 0.0005331039428710938
ell 530, elapsed: 0.0005910396575927734
ell 529, elapsed: 0.0005450248718261719
ell 528, elapsed: 0.0005559921264648438
ell 522, elapsed: 0.0009829998016357422
ell 521, elapsed: 0.0005409717559814453
ell 520, elapsed: 0.0005590915679931641
ell 519, elapsed: 0.0006010532379150391
ell 518, elapsed: 0.0005619525909423828
ell 512, elapsed: 0.001001119613647461
ell 511, elapsed: 0.0005350112915039062
ell 510, elapsed: 0.0005500316619873047
ell 509, elapsed: 0.0005428791046142578
ell 508, elapsed: 0.0005872249603271484
ell 502, elapsed: 0.0010030269622802734
ell 501, elapsed: 0.0005428791046142578
ell 500, elapsed: 0.0005540847778320312
ell 499, elapsed: 0.0005459785461425781
ell 498, elapsed: 0.0005609989166259766
ell 492, elapsed: 0.0010390281677246094
ell 491, elapsed: 0.0005519390106201172
ell 490, elapsed: 0.0005559921264648438
ell 489, elapsed: 0.0005490779876708984
ell 488, elapsed: 0.0005700588226318359
ell 482, elapsed: 0.0009799003601074219
ell 481, elapsed: 0.0005459785461425781
ell 480, elapsed: 0.0005528926849365234
ell 479, elapsed: 0.00055694580078125
ell 478, elapsed: 0.0005600452423095703
ell 472, elapsed: 0.0009801387786865234
ell 471, elapsed: 0.0005400180816650391
ell 470, elapsed: 0.0005879402160644531
ell 469, elapsed: 0.0005509853363037109
ell 468, elapsed: 0.0005629062652587891
ell 462, elapsed: 0.0009870529174804688
ell 461, elapsed: 0.0005428791046142578
ell 460, elapsed: 0.0005729198455810547
ell 459, elapsed: 0.0006041526794433594
ell 458, elapsed: 0.0005481243133544922
ell 452, elapsed: 0.0009698867797851562
ell 451, elapsed: 0.0005338191986083984
ell 450, elapsed: 0.0005431175231933594
ell 449, elapsed: 0.0005438327789306641
ell 448, elapsed: 0.0005841255187988281
ell 442, elapsed: 0.000982046127319336
ell 441, elapsed: 0.0005450248718261719
ell 440, elapsed: 0.0005500316619873047
ell 439, elapsed: 0.0005419254302978516
ell 438, elapsed: 0.0005450248718261719
ell 432, elapsed: 0.0010089874267578125
ell 431, elapsed: 0.0007050037384033203
ell 430, elapsed: 0.0005540847778320312
ell 429, elapsed: 0.0005719661712646484
ell 428, elapsed: 0.0005779266357421875
ell 422, elapsed: 0.0010991096496582031
ell 421, elapsed: 0.0005609989166259766
ell 420, elapsed: 0.0005431175231933594
ell 419, elapsed: 0.0005440711975097656
ell 418, elapsed: 0.0005509853363037109
ell 412, elapsed: 0.0009810924530029297
ell 411, elapsed: 0.0005671977996826172
ell 410, elapsed: 0.0005450248718261719
ell 409, elapsed: 0.0005409717559814453
ell 408, elapsed: 0.0005469322204589844
ell 402, elapsed: 0.0009930133819580078
ell 401, elapsed: 0.0005331039428710938
ell 400, elapsed: 0.0005459785461425781
ell 399, elapsed: 0.0006020069122314453
ell 398, elapsed: 0.0005478858947753906
ell 392, elapsed: 0.0009379386901855469
ell 391, elapsed: 0.0005300045013427734
ell 390, elapsed: 0.0005388259887695312
ell 389, elapsed: 0.0005249977111816406
ell 388, elapsed: 0.0005738735198974609
ell 382, elapsed: 0.0009291172027587891
ell 381, elapsed: 0.0005180835723876953
ell 380, elapsed: 0.0005269050598144531
ell 379, elapsed: 0.0005130767822265625
ell 378, elapsed: 0.0005230903625488281
ell 372, elapsed: 0.0009200572967529297
ell 371, elapsed: 0.0005080699920654297
ell 370, elapsed: 0.0005259513854980469
ell 369, elapsed: 0.0005121231079101562
ell 368, elapsed: 0.0005199909210205078
ell 362, elapsed: 0.0009050369262695312
ell 361, elapsed: 0.0005271434783935547
ell 360, elapsed: 0.0005829334259033203
ell 359, elapsed: 0.0005199909210205078
ell 358, elapsed: 0.0005390644073486328
ell 352, elapsed: 0.0009160041809082031
ell 351, elapsed: 0.0005362033843994141
ell 350, elapsed: 0.0005447864532470703
ell 349, elapsed: 0.0006449222564697266
ell 348, elapsed: 0.0005559921264648438
ell 342, elapsed: 0.0009238719940185547
ell 341, elapsed: 0.0005371570587158203
ell 340, elapsed: 0.0005500316619873047
ell 339, elapsed: 0.0005381107330322266
ell 338, elapsed: 0.00067901611328125
ell 332, elapsed: 0.0009369850158691406
ell 331, elapsed: 0.0005331039428710938
ell 330, elapsed: 0.0005550384521484375
ell 329, elapsed: 0.0005409717559814453
ell 328, elapsed: 0.0006358623504638672
ell 322, elapsed: 0.0009980201721191406
ell 321, elapsed: 0.0005400180816650391
ell 320, elapsed: 0.00055694580078125
ell 319, elapsed: 0.0005509853363037109
ell 318, elapsed: 0.0005500316619873047
ell 312, elapsed: 0.0009582042694091797
ell 311, elapsed: 0.0006470680236816406
ell 310, elapsed: 0.0005600452423095703
ell 309, elapsed: 0.0005459785461425781
ell 308, elapsed: 0.0005459785461425781
ell 302, elapsed: 0.0010020732879638672
ell 301, elapsed: 0.0005381107330322266
ell 300, elapsed: 0.0006809234619140625
ell 299, elapsed: 0.0005550384521484375
ell 298, elapsed: 0.0005609989166259766
ell 292, elapsed: 0.0009610652923583984
ell 291, elapsed: 0.0005369186401367188
ell 290, elapsed: 0.0006310939788818359
ell 289, elapsed: 0.0005638599395751953
ell 288, elapsed: 0.000553131103515625
ell 282, elapsed: 0.0009589195251464844
ell 281, elapsed: 0.0005369186401367188
ell 280, elapsed: 0.0005509853363037109
ell 279, elapsed: 0.0005381107330322266
ell 278, elapsed: 0.0006349086761474609
ell 272, elapsed: 0.0009281635284423828
ell 271, elapsed: 0.0005459785461425781
ell 270, elapsed: 0.0005550384521484375
ell 269, elapsed: 0.0005362033843994141
ell 268, elapsed: 0.0005512237548828125
ell 262, elapsed: 0.0009849071502685547
ell 261, elapsed: 0.000537872314453125
ell 260, elapsed: 0.0005500316619873047
ell 259, elapsed: 0.0005371570587158203
ell 258, elapsed: 0.0005478858947753906
ell 252, elapsed: 0.0009648799896240234
ell 251, elapsed: 0.0005710124969482422
ell 250, elapsed: 0.0005509853363037109
ell 249, elapsed: 0.0005419254302978516
ell 248, elapsed: 0.0005559921264648438
ell 242, elapsed: 0.0009648799896240234
ell 241, elapsed: 0.0005528926849365234
ell 240, elapsed: 0.0005528926849365234
ell 239, elapsed: 0.0005331039428710938
ell 238, elapsed: 0.0005538463592529297
ell 232, elapsed: 0.0009431838989257812
ell 231, elapsed: 0.0005490779876708984
ell 230, elapsed: 0.0005459785461425781
ell 229, elapsed: 0.0005390644073486328
ell 228, elapsed: 0.0005769729614257812
ell 222, elapsed: 0.0009510517120361328
ell 221, elapsed: 0.0005218982696533203
ell 220, elapsed: 0.0005359649658203125
ell 219, elapsed: 0.0005190372467041016
ell 218, elapsed: 0.0005280971527099609
ell 212, elapsed: 0.0009398460388183594
ell 211, elapsed: 0.0005161762237548828
ell 210, elapsed: 0.0005218982696533203
ell 209, elapsed: 0.0005130767822265625
ell 208, elapsed: 0.0005202293395996094
ell 202, elapsed: 0.0009100437164306641
ell 201, elapsed: 0.0005500316619873047
ell 200, elapsed: 0.0005259513854980469
ell 199, elapsed: 0.0005228519439697266
ell 198, elapsed: 0.0005359649658203125
ell 192, elapsed: 0.0009379386901855469
ell 191, elapsed: 0.0005209445953369141
ell 190, elapsed: 0.0005350112915039062
ell 189, elapsed: 0.0005590915679931641
ell 188, elapsed: 0.0005309581756591797
ell 182, elapsed: 0.0009219646453857422
ell 181, elapsed: 0.000514984130859375
ell 180, elapsed: 0.0005269050598144531
ell 179, elapsed: 0.0005190372467041016
ell 178, elapsed: 0.0005669593811035156
ell 172, elapsed: 0.00092315673828125
ell 171, elapsed: 0.00051116943359375
ell 170, elapsed: 0.0005209445953369141
ell 169, elapsed: 0.0005159378051757812
ell 168, elapsed: 0.0005288124084472656
ell 162, elapsed: 0.0010211467742919922
ell 161, elapsed: 0.0005240440368652344
ell 160, elapsed: 0.0005290508270263672
ell 159, elapsed: 0.0005369186401367188
ell 158, elapsed: 0.0005369186401367188
ell 152, elapsed: 0.0010228157043457031
ell 151, elapsed: 0.0006730556488037109
ell 150, elapsed: 0.000553131103515625
ell 149, elapsed: 0.0005381107330322266
ell 148, elapsed: 0.0005481243133544922
ell 142, elapsed: 0.0009720325469970703
ell 141, elapsed: 0.0005221366882324219
ell 140, elapsed: 0.0005419254302978516
ell 139, elapsed: 0.0005581378936767578
ell 138, elapsed: 0.0005350112915039062
ell 132, elapsed: 0.0009548664093017578
ell 131, elapsed: 0.0005230903625488281
ell 130, elapsed: 0.000537872314453125
ell 129, elapsed: 0.0005261898040771484
ell 128, elapsed: 0.0005929470062255859
ell 122, elapsed: 0.0009391307830810547
ell 121, elapsed: 0.0005199909210205078
ell 120, elapsed: 0.0005319118499755859
ell 119, elapsed: 0.0005350112915039062
ell 118, elapsed: 0.0005400180816650391
ell 112, elapsed: 0.0009641647338867188
ell 111, elapsed: 0.0005259513854980469
ell 110, elapsed: 0.0005369186401367188
ell 109, elapsed: 0.0005199909210205078
ell 108, elapsed: 0.0005328655242919922
ell 102, elapsed: 0.0009169578552246094
ell 101, elapsed: 0.0022449493408203125
ell 100, elapsed: 0.002259969711303711
ell 99, elapsed: 0.0022220611572265625
ell 98, elapsed: 0.002215147018432617
ell 92, elapsed: 0.0042040348052978516
ell 91, elapsed: 0.002167940139770508
ell 90, elapsed: 0.0022089481353759766
ell 89, elapsed: 0.002196073532104492
ell 88, elapsed: 0.0022459030151367188
ell 82, elapsed: 0.004309177398681641
ell 81, elapsed: 0.0022521018981933594
ell 80, elapsed: 0.002254962921142578
ell 79, elapsed: 0.002270936965942383
ell 78, elapsed: 0.002232074737548828
ell 72, elapsed: 0.004212856292724609
ell 71, elapsed: 0.002154827117919922
ell 70, elapsed: 0.0021550655364990234
ell 69, elapsed: 0.00625300407409668
ell 68, elapsed: 0.002275228500366211
ell 62, elapsed: 0.00439906120300293
ell 61, elapsed: 0.002321004867553711
ell 60, elapsed: 0.0023050308227539062
ell 59, elapsed: 0.002248048782348633
ell 58, elapsed: 0.0022690296173095703
ell 52, elapsed: 0.004353046417236328
ell 51, elapsed: 0.0022950172424316406
ell 50, elapsed: 0.002244234085083008
ell 49, elapsed: 0.0023169517517089844
ell 48, elapsed: 0.002279996871948242
ell 42, elapsed: 0.004236936569213867
ell 41, elapsed: 0.002057790756225586
ell 40, elapsed: 0.0019681453704833984
ell 39, elapsed: 0.002190113067626953
ell 38, elapsed: 0.0021538734436035156
ell 32, elapsed: 0.004168987274169922
ell 31, elapsed: 0.0022208690643310547
ell 30, elapsed: 0.0022678375244140625
ell 29, elapsed: 0.0021920204162597656
ell 28, elapsed: 0.002234935760498047
ell 22, elapsed: 0.004124164581298828
ell 21, elapsed: 0.0021119117736816406
ell 20, elapsed: 0.002203226089477539
ell 19, elapsed: 0.0022640228271484375
ell 18, elapsed: 0.0050508975982666016
ell 12, elapsed: 0.00435185432434082
ell 11, elapsed: 0.0022699832916259766
ell 10, elapsed: 0.0023000240325927734
ell 9, elapsed: 0.002309083938598633
ell 8, elapsed: 0.0022771358489990234
  0.509495 seconds (68.56 k allocations: 12.176 MiB)
elapsed: 0.002766847610473633
step:          0.043739 sec (0 allocations: 0 byte, 0.0% gc time)
swapping:      0.000366 sec (0 allocations: 0 byte, 0.0% gc time)
calc_Mellell!: 0.019882 sec (0 allocations: 0 byte, 0.0% gc time)
  t0 :  0.00649 sec (0 allocations: 0 byte, 0.0% gc time)
  tm2 : 0.053943 sec (0 allocations: 0 byte, 0.0% gc time)
  tm2s: 0.005512 sec (0 allocations: 0 byte, 0.0% gc time)
  tm4 : 0.114995 sec (0 allocations: 0 byte, 0.0% gc time)
  tp2 : 0.0 sec (0 allocations: 0 byte, 0.0% gc time)
  tp2s: 0.0 sec (0 allocations: 0 byte, 0.0% gc time)
  tp4 : 0.0 sec (0 allocations: 0 byte, 0.0% gc time)
calc_wtdll!:   0.37677 sec (48.6 k allocations: 11.096 MB, 0.0% gc time)
calc_wljj!:    0.018508 sec (69 allocations: 1.078 KB, 0.0% gc time)
mult_prefac!:  0.0 sec (0 allocations: 0 byte, 0.0% gc time)
convert:       0.0 sec (0 allocations: 0 byte, 0.0% gc time)
write:         0.025953 sec (0 allocations: 0 byte, 0.0% gc time)
test_rand_2f1: 0.0 sec (0 allocations: 0 byte, 0.0% gc time)
Closing outfile out/MlCache/MlCache.bin...   0.000010 seconds
xi, l=0, nu=0:   0.301833 seconds (602.97 k allocations: 32.980 MiB, 99.42% compilation time)
xi, l=0, nu=-2:  0.001507 seconds (114 allocations: 148.969 KiB)
Created 'out/xi.tsv'.
  q=1.1, R=0.6:	  0.402764 seconds (264.58 k allocations: 38.109 MiB, 3.12% gc time)
  q=1.1, R=0.7:	  0.479677 seconds (276.43 k allocations: 40.113 MiB, 2.03% gc time)
  q=1.1, R=0.8:	  0.501919 seconds (271.87 k allocations: 39.334 MiB, 1.67% gc time)
  q=1.1, R=0.9:	  0.545322 seconds (266.68 k allocations: 38.464 MiB, 1.09% gc time)
  q=1.1, R=0.998:	 13.926871 seconds (114.96 k allocations: 7.588 MiB)
  q=1.1, R=1.0:	  0.003265 seconds (8.20 k allocations: 704.344 KiB)

ℓ = 1000
Δℓ = 4
ΔℓRg1 = -4
N = 4096
q = 1.1
kmin = 1.0e-5
kmax = 1000.0
χ0 = 0.001
RR = RR.tsv
ℓmax = ℓmax.bin
f21 = f21.bin
kmin = 1.0e-5
kmax = 1000.0
dlrec    = 4
dlrecRg1 = -4
Output size: 1573632 bytes = 0.0014655590057373047 GiB
Output size: 786816 bytes = 0.0007327795028686523 GiB
Reading 'out/F21EllCache'...   0.001085 seconds (198 allocations: 533.078 KiB)
ellmax: 1002
lmaxcache: 1000
fell[:,1,1] = ComplexF64[1.726292812820208e-224 - 4.2281979352226965e-240im, 1.7282693092099638e-224 - 4.233038955177178e-240im]
ell 1002, elapsed: 1.5974044799804688e-5
ell 1001, elapsed: 0.0005848407745361328
ell 1000, elapsed: 0.0007700920104980469
ell 999, elapsed: 0.004004001617431641
ell 998, elapsed: 0.004091024398803711
ell 44, elapsed: 0.5657918453216553
ell 43, elapsed: 0.003929853439331055
ell 42, elapsed: 0.00386810302734375
ell 41, elapsed: 0.003835916519165039
ell 40, elapsed: 0.003838062286376953
  0.595522 seconds (4.59 k allocations: 321.938 KiB)
elapsed: 0.004561901092529297
step:          0.563864 sec (0 allocations: 0 byte, 0.0% gc time)
swapping:      0.000311 sec (0 allocations: 0 byte, 0.0% gc time)
calc_Mellell!: 0.000792 sec (0 allocations: 0 byte, 0.0% gc time)
  t0 :  0.000504 sec (0 allocations: 0 byte, 0.0% gc time)
  tm2 : 0.007275 sec (0 allocations: 0 byte, 0.0% gc time)
  tm2s: 0.000464 sec (0 allocations: 0 byte, 0.0% gc time)
  tm4 : 0.018058 sec (0 allocations: 0 byte, 0.0% gc time)
  tp2 : 0.0 sec (0 allocations: 0 byte, 0.0% gc time)
  tp2s: 0.0 sec (0 allocations: 0 byte, 0.0% gc time)
  tp4 : 0.0 sec (0 allocations: 0 byte, 0.0% gc time)
calc_wtdll!:   0.026463 sec (480 allocations: 52.5 KB, 0.0% gc time)
calc_wljj!:    0.000952 sec (1 allocations: 16 byte, 0.0% gc time)
mult_prefac!:  0.0 sec (0 allocations: 0 byte, 0.0% gc time)
convert:       0.0 sec (0 allocations: 0 byte, 0.0% gc time)
write:         0.000834 sec (0 allocations: 0 byte, 0.0% gc time)
test_rand_2f1: 0.0 sec (0 allocations: 0 byte, 0.0% gc time)
Closing outfile out/MlCache/MlCache.bin...   0.000005 seconds
  0.380401 seconds (38 allocations: 66.859 KiB)
make_phi():   0.006528 seconds (65 allocations: 275.984 KiB)
  0.042492 seconds (11.42 k allocations: 711.960 KiB, 91.59% compilation time)
tskip:       0.0 sec (0 allocations: 0 byte, 0.0% gc time)
tread:       0.000654 sec (17 allocations: 1.266 KB, 0.0% gc time)
tmultphi:    0.000215 sec (0 allocations: 0 byte, 0.0% gc time)
tbrfft:      0.000989 sec (0 allocations: 0 byte, 0.0% gc time)
tmultprefac: 0.000567 sec (0 allocations: 0 byte, 0.0% gc time)
toutfunc:    0.000176 sec (0 allocations: 0 byte, 0.0% gc time)
Created 'out/wl42_jj00.tsv'.
Created 'out/wl42_jj02.tsv'.
    Testing TwoFAST tests passed 
