Julia Version 1.6.0-DEV.1069
Commit 22b5d93b2b (2020-09-28 17:33 UTC)
Platform Info:
  OS: Linux (x86_64-linux-gnu)
  CPU: Intel(R) Xeon(R) Silver 4114 CPU @ 2.20GHz
  WORD_SIZE: 64
  LIBM: libopenlibm
  LLVM: libLLVM-10.0.1 (ORCJIT, skylake-avx512)
Environment:
  JULIA_DEPOT_PATH = ::/usr/local/share/julia
  JULIA_NUM_THREADS = 2

  Resolving package versions...
  Installed Reexport ───────────────────── v0.2.0
  Installed BinaryProvider ─────────────── v0.5.10
  Installed GenericSchur ───────────────── v0.4.0
  Installed IntelOpenMP_jll ────────────── v2018.0.3+0
  Installed FFTW_jll ───────────────────── v3.3.9+5
  Installed ArbNumerics ────────────────── v1.2.1
  Installed CompilerSupportLibraries_jll ─ v0.3.3+0
  Installed OpenSpecFun_jll ────────────── v0.5.3+3
  Installed AbstractFFTs ───────────────── v0.5.0
  Installed FFTW ───────────────────────── v1.2.4
  Installed SpecialFunctions ───────────── v0.10.3
  Installed TwoFAST ────────────────────── v0.1.3
  Installed GenericSVD ─────────────────── v0.3.0
  Installed MKL_jll ────────────────────── v2020.2.254+0
  Installed Readables ──────────────────── v0.3.3
Updating `~/.julia/environments/v1.6/Project.toml`
  [0dd23c3e] + TwoFAST v0.1.3
Updating `~/.julia/environments/v1.6/Manifest.toml`
  [621f4979] + AbstractFFTs v0.5.0
  [7e558dbc] + ArbNumerics v1.2.1
  [b99e7846] + BinaryProvider v0.5.10
  [e66e0078] + CompilerSupportLibraries_jll v0.3.3+0
  [7a1cc6ca] + FFTW v1.2.4
  [f5851436] + FFTW_jll v3.3.9+5
  [01680d73] + GenericSVD v0.3.0
  [c145ed77] + GenericSchur v0.4.0
  [1d5cc7b8] + IntelOpenMP_jll v2018.0.3+0
  [856f044c] + MKL_jll v2020.2.254+0
  [efe28fd5] + OpenSpecFun_jll v0.5.3+3
  [0d4725de] + Readables v0.3.3
  [189a3867] + Reexport v0.2.0
  [276daf66] + SpecialFunctions v0.10.3
  [0dd23c3e] + TwoFAST v0.1.3
  [56f22d72] + Artifacts
  [2a0f44e3] + Base64
  [ade2ca70] + Dates
  [8bb1440f] + DelimitedFiles
  [8ba89e20] + Distributed
  [b77e0a4c] + InteractiveUtils
  [76f85450] + LibGit2
  [8f399da3] + Libdl
  [37e2e46d] + LinearAlgebra
  [56ddb016] + Logging
  [d6f4376e] + Markdown
  [a63ad114] + Mmap
  [44cfe95a] + Pkg
  [de0858da] + Printf
  [3fa0cd96] + REPL
  [9a3f8284] + Random
  [ea8e919c] + SHA
  [9e88b42a] + Serialization
  [6462fe0b] + Sockets
  [fa267f1f] + TOML
  [8dfed614] + Test
  [cf7118a7] + UUIDs
  [4ec0a83e] + Unicode
   Building ArbNumerics → `~/.julia/scratchspaces/44cfe95a-1eb2-52ea-b672-e2afdf69b78f/329a81d67c64e3a51c176a243b6424fbe39213d0/build.log`
   Building FFTW ───────→ `~/.julia/scratchspaces/44cfe95a-1eb2-52ea-b672-e2afdf69b78f/8b7c16b56936047ca41bf25effa137ae0b381ae8/build.log`
    Testing TwoFAST
Status `/tmp/jl_AVEUGF/Project.toml`
  [7e558dbc] ArbNumerics v1.2.1
  [39dd38d3] Dierckx v0.5.0
  [7a1cc6ca] FFTW v1.2.4
  [276daf66] SpecialFunctions v0.10.3
  [0dd23c3e] TwoFAST v0.1.3
  [8bb1440f] DelimitedFiles
  [37e2e46d] LinearAlgebra
  [56ddb016] Logging
  [8dfed614] Test
Status `/tmp/jl_AVEUGF/Manifest.toml`
  [621f4979] AbstractFFTs v0.5.0
  [7e558dbc] ArbNumerics v1.2.1
  [b99e7846] BinaryProvider v0.5.10
  [e66e0078] CompilerSupportLibraries_jll v0.3.3+0
  [39dd38d3] Dierckx v0.5.0
  [cd4c43a9] Dierckx_jll v0.0.1+0
  [7a1cc6ca] FFTW v1.2.4
  [f5851436] FFTW_jll v3.3.9+5
  [01680d73] GenericSVD v0.3.0
  [c145ed77] GenericSchur v0.4.0
  [1d5cc7b8] IntelOpenMP_jll v2018.0.3+0
  [856f044c] MKL_jll v2020.2.254+0
  [efe28fd5] OpenSpecFun_jll v0.5.3+3
  [0d4725de] Readables v0.3.3
  [189a3867] Reexport v0.2.0
  [276daf66] SpecialFunctions v0.10.3
  [0dd23c3e] TwoFAST v0.1.3
  [56f22d72] Artifacts
  [2a0f44e3] Base64
  [ade2ca70] Dates
  [8bb1440f] DelimitedFiles
  [8ba89e20] Distributed
  [b77e0a4c] InteractiveUtils
  [76f85450] LibGit2
  [8f399da3] Libdl
  [37e2e46d] LinearAlgebra
  [56ddb016] Logging
  [d6f4376e] Markdown
  [a63ad114] Mmap
  [44cfe95a] Pkg
  [de0858da] Printf
  [3fa0cd96] REPL
  [9a3f8284] Random
  [ea8e919c] SHA
  [9e88b42a] Serialization
  [6462fe0b] Sockets
  [fa267f1f] TOML
  [8dfed614] Test
  [cf7118a7] UUIDs
  [4ec0a83e] Unicode
    Testing Running tests...
WARNING: could not import Printf.ini_hex into ArbNumerics
WARNING: could not import Printf.ini_HEX into ArbNumerics
t = 0.0 sec (0 allocations: 0 byte, 0.0% gc time)
typeof(t) = NamedTuple{(:value, :time, :bytes, :gctime, :gcstats), Tuple{DataType, Float64, Int64, Float64, Base.GC_Diff}}
TwoFAST.PerformanceStats.TimedType = Union{NamedTuple{(:value, :time, :bytes, :gctime, :gcstats), Tuple{T, Float64, Int64, Float64, Base.GC_Diff}}, Tuple{Any, Float64, Int64, Float64, Base.GC_Diff}} where T
t = 0.0 sec (0 allocations: 0 byte, 0.0% gc time)
t: 0.0 sec (0 allocations: 0 byte, 0.0% gc time)
Testing ξ(r), ℓ=0, ν=-1 ... passed
Testing ξ(r), ℓ=0, ν=0 ... passed
Testing ξ(r), ℓ=0, ν=1 ... passed
Testing ξ(r), ℓ=0, ν=2 ... passed
Testing ξ(r), ℓ=0, ν=3 ... passed
Testing ξ(r), ℓ=1, ν=0 ... passed
Testing ξ(r), ℓ=1, ν=1 ... passed
Testing ξ(r), ℓ=1, ν=2 ... passed
Testing ξ(r), ℓ=1, ν=3 ... passed
Testing ξ(r), ℓ=2, ν=-1 ... passed
Testing ξ(r), ℓ=2, ν=0 ... passed
Testing ξ(r), ℓ=2, ν=1 ... passed
Testing ξ(r), ℓ=2, ν=2 ... passed
Testing ξ(r), ℓ=2, ν=3 ... passed
Testing ξ(r), ℓ=3, ν=-1 ... passed
Testing ξ(r), ℓ=3, ν=0 ... passed
Testing ξ(r), ℓ=3, ν=1 ... passed
Testing ξ(r), ℓ=3, ν=2 ... passed
Testing ξ(r), ℓ=3, ν=3 ... passed
Testing ξ(r), ℓ=4, ν=-1 ... passed
Testing ξ(r), ℓ=4, ν=0 ... passed
Testing ξ(r), ℓ=4, ν=1 ... passed
Testing ξ(r), ℓ=4, ν=2 ... passed
Testing ξ(r), ℓ=4, ν=3 ... passed
Testing ξ(r) ... passed
Testing ξ′(r) ... passed
Testing ξ″(r) ... passed
Calculating fmax: 
  dlrec    = 4
  dlrecRg1 = -4
  q=1.1, R=1.1:	  4.008346 seconds (842.07 k allocations: 53.839 MiB, 0.59% gc time)

  4.020741 seconds (854.74 k allocations: 54.629 MiB, 0.59% gc time)
ℓ = 1202
Δℓ = 4
ΔℓRg1 = -4
N = 1600
q = 1.1
kmin = 1.0e-5
kmax = 100000.00000000004
χ0 = 0.023029999999999995
RR = RR.tsv
ℓmax = ℓmax.bin
f21 = f21.bin
kmin = 1.0e-5
kmax = 100000.0
dlrec    = 4
dlrecRg1 = -4
Output size: 5741568 bytes = 0.005347251892089844 GiB
Output size: 51264 bytes = 4.774332046508789e-5 GiB
Reading 'out/F21EllCache'...   0.677184 seconds (395.09 k allocations: 23.208 MiB, 6.25% gc time)
ellmax: 1202
lmaxcache: 1202
fell[:,1,1] = ComplexF64[3.9583795592771634e-52 - 9.695233714158177e-68im, 3.990121772925759e-52 - 9.772979714843386e-68im]
ell 1202, elapsed: 2.9802322387695312e-5
ell 1201, elapsed: 1.0156960487365723
ell 1200, elapsed: 0.0004811286926269531
ell 1199, elapsed: 0.0004429817199707031
ell 1198, elapsed: 0.00045800209045410156
ell 1002, elapsed: 0.00908517837524414
ell 1001, elapsed: 0.0004420280456542969
ell 1000, elapsed: 0.0004379749298095703
ell 999, elapsed: 0.00043892860412597656
ell 998, elapsed: 0.00043892860412597656
ell 902, elapsed: 0.004678964614868164
ell 901, elapsed: 0.00044608116149902344
ell 900, elapsed: 0.0004401206970214844
ell 899, elapsed: 0.00043702125549316406
ell 898, elapsed: 0.0004379749298095703
ell 802, elapsed: 0.004675865173339844
ell 801, elapsed: 0.0004398822784423828
ell 800, elapsed: 0.00043702125549316406
ell 799, elapsed: 0.00043702125549316406
ell 798, elapsed: 0.00044083595275878906
ell 702, elapsed: 0.0047190189361572266
ell 701, elapsed: 0.0004379749298095703
ell 700, elapsed: 0.00043582916259765625
ell 699, elapsed: 0.00043392181396484375
ell 698, elapsed: 0.0004379749298095703
ell 602, elapsed: 0.0046770572662353516
ell 601, elapsed: 0.0004558563232421875
ell 600, elapsed: 0.0004360675811767578
ell 599, elapsed: 0.00043582916259765625
ell 598, elapsed: 0.00043511390686035156
ell 502, elapsed: 0.004667997360229492
ell 501, elapsed: 0.0004367828369140625
ell 500, elapsed: 0.0004360675811767578
ell 499, elapsed: 0.00043392181396484375
ell 498, elapsed: 0.0005948543548583984
ell 402, elapsed: 0.006456136703491211
ell 401, elapsed: 0.0005981922149658203
ell 400, elapsed: 0.000576019287109375
ell 399, elapsed: 0.0005249977111816406
ell 398, elapsed: 0.0005540847778320312
ell 302, elapsed: 0.0050351619720458984
ell 301, elapsed: 0.00044798851013183594
ell 300, elapsed: 0.0004401206970214844
ell 299, elapsed: 0.00045299530029296875
ell 298, elapsed: 0.0005061626434326172
ell 202, elapsed: 0.004965066909790039
ell 201, elapsed: 0.0006659030914306641
ell 200, elapsed: 0.0005908012390136719
ell 199, elapsed: 0.0005848407745361328
ell 198, elapsed: 0.0005271434783935547
ell 152, elapsed: 0.0034401416778564453
ell 151, elapsed: 0.000598907470703125
ell 150, elapsed: 0.0005781650543212891
ell 149, elapsed: 0.0005769729614257812
ell 148, elapsed: 0.0005769729614257812
ell 127, elapsed: 0.0019001960754394531
ell 126, elapsed: 0.0005769729614257812
ell 125, elapsed: 0.0005781650543212891
ell 124, elapsed: 0.0005259513854980469
ell 123, elapsed: 0.0004889965057373047
ell 114, elapsed: 0.0008339881896972656
ell 113, elapsed: 0.0004930496215820312
ell 112, elapsed: 0.0005640983581542969
ell 111, elapsed: 0.0005519390106201172
ell 110, elapsed: 0.0005578994750976562
ell 102, elapsed: 0.001004934310913086
ell 101, elapsed: 0.0005590915679931641
ell 100, elapsed: 0.00055694580078125
ell 99, elapsed: 0.0005631446838378906
ell 98, elapsed: 0.0005509853363037109
ell 97, elapsed: 0.0006229877471923828
ell 96, elapsed: 0.0006220340728759766
ell 95, elapsed: 0.0006330013275146484
ell 94, elapsed: 0.0006208419799804688
ell 93, elapsed: 0.0006380081176757812
ell 92, elapsed: 0.0005910396575927734
ell 91, elapsed: 0.0006270408630371094
ell 90, elapsed: 0.0006220340728759766
ell 89, elapsed: 0.0006170272827148438
ell 88, elapsed: 0.0006279945373535156
ell 87, elapsed: 0.0006301403045654297
ell 86, elapsed: 0.0006449222564697266
ell 85, elapsed: 0.0006368160247802734
ell 84, elapsed: 0.0005161762237548828
ell 83, elapsed: 0.000553131103515625
ell 82, elapsed: 0.0005290508270263672
ell 81, elapsed: 0.0005879402160644531
ell 80, elapsed: 0.0005300045013427734
ell 79, elapsed: 0.0004889965057373047
ell 78, elapsed: 0.0005309581756591797
ell 77, elapsed: 0.0005521774291992188
ell 76, elapsed: 0.0004878044128417969
ell 75, elapsed: 0.0004780292510986328
ell 74, elapsed: 0.0004911422729492188
ell 73, elapsed: 0.0004909038543701172
ell 72, elapsed: 0.0004799365997314453
ell 71, elapsed: 0.0004858970642089844
ell 70, elapsed: 0.00048089027404785156
ell 69, elapsed: 0.0004878044128417969
ell 68, elapsed: 0.0004899501800537109
ell 67, elapsed: 0.0004799365997314453
ell 66, elapsed: 0.0005021095275878906
ell 65, elapsed: 0.0004818439483642578
ell 64, elapsed: 0.00047779083251953125
ell 63, elapsed: 0.0004849433898925781
ell 62, elapsed: 0.00048089027404785156
ell 61, elapsed: 0.00048804283142089844
ell 60, elapsed: 0.00048089027404785156
ell 59, elapsed: 0.0004889965057373047
ell 58, elapsed: 0.0004949569702148438
ell 57, elapsed: 0.00047707557678222656
ell 56, elapsed: 0.0004820823669433594
ell 55, elapsed: 0.00047707557678222656
ell 54, elapsed: 0.0004761219024658203
ell 53, elapsed: 0.0004818439483642578
ell 52, elapsed: 0.00047588348388671875
ell 51, elapsed: 0.00048089027404785156
ell 50, elapsed: 0.0004971027374267578
ell 49, elapsed: 0.0004839897155761719
ell 48, elapsed: 0.0004830360412597656
ell 47, elapsed: 0.000476837158203125
ell 46, elapsed: 0.0004858970642089844
ell 45, elapsed: 0.00047898292541503906
ell 44, elapsed: 0.0004780292510986328
ell 43, elapsed: 0.0005071163177490234
ell 42, elapsed: 0.0004889965057373047
ell 41, elapsed: 0.00048279762268066406
ell 40, elapsed: 0.0004749298095703125
ell 39, elapsed: 0.00048804283142089844
ell 38, elapsed: 0.00047588348388671875
ell 37, elapsed: 0.0004780292510986328
ell 36, elapsed: 0.0004839897155761719
ell 35, elapsed: 0.0004949569702148438
ell 34, elapsed: 0.00048804283142089844
ell 33, elapsed: 0.0004799365997314453
ell 32, elapsed: 0.0004799365997314453
ell 31, elapsed: 0.000492095947265625
ell 30, elapsed: 0.0004818439483642578
ell 29, elapsed: 0.0004849433898925781
ell 28, elapsed: 0.00047898292541503906
ell 27, elapsed: 0.0004918575286865234
ell 26, elapsed: 0.0004858970642089844
ell 25, elapsed: 0.00047707557678222656
ell 24, elapsed: 0.0004849433898925781
ell 23, elapsed: 0.0004761219024658203
ell 22, elapsed: 0.00047898292541503906
ell 21, elapsed: 0.0004839897155761719
ell 20, elapsed: 0.0004799365997314453
ell 19, elapsed: 0.0004951953887939453
ell 18, elapsed: 0.0004780292510986328
ell 17, elapsed: 0.00047707557678222656
ell 16, elapsed: 0.0004830360412597656
ell 15, elapsed: 0.0004820823669433594
ell 14, elapsed: 0.0004830360412597656
ell 13, elapsed: 0.0004780292510986328
ell 12, elapsed: 0.00048089027404785156
ell 11, elapsed: 0.0005018711090087891
ell 10, elapsed: 0.0004811286926269531
ell 9, elapsed: 0.0004839897155761719
ell 8, elapsed: 0.00048089027404785156
ell 7, elapsed: 0.000476837158203125
ell 6, elapsed: 0.0004799365997314453
ell 5, elapsed: 0.0004761219024658203
ell 4, elapsed: 0.00048089027404785156
ell 3, elapsed: 0.0004901885986328125
ell 2, elapsed: 0.0004801750183105469
ell 1, elapsed: 0.00047898292541503906
ell 0, elapsed: 0.00047898292541503906
  1.512903 seconds (1.30 M allocations: 70.973 MiB, 1.69% gc time)
elapsed: 0.0005669593811035156
step:          0.279097 sec (311.143 k allocations: 16.978 MB, 0.0% gc time)
swapping:      0.000322 sec (0 allocations: 0 byte, 0.0% gc time)
calc_Mellell!: 0.106084 sec (135.742 k allocations: 7.433 MB, 0.0% gc time)
  t0 :  0.0 sec (0 allocations: 0 byte, 0.0% gc time)
  tm2 : 0.0 sec (0 allocations: 0 byte, 0.0% gc time)
  tm2s: 0.0 sec (0 allocations: 0 byte, 0.0% gc time)
  tm4 : 0.0 sec (0 allocations: 0 byte, 0.0% gc time)
  tp2 : 0.0 sec (0 allocations: 0 byte, 0.0% gc time)
  tp2s: 0.0 sec (0 allocations: 0 byte, 0.0% gc time)
  tp4 : 0.0 sec (0 allocations: 0 byte, 0.0% gc time)
calc_wtdll!:   0.754857 sec (509.615 k allocations: 28.196 MB, 3.4% gc time)
calc_wljj!:    0.002202 sec (6 allocations: 96 byte, 0.0% gc time)
mult_prefac!:  0.0 sec (0 allocations: 0 byte, 0.0% gc time)
convert:       0.0 sec (0 allocations: 0 byte, 0.0% gc time)
write:         0.003212 sec (0 allocations: 0 byte, 0.0% gc time)
test_rand_2f1: 0.0 sec (0 allocations: 0 byte, 0.0% gc time)
Closing outfile out/Ml21-cache.bin...   0.000006 seconds
  0.968106 seconds (246.35 k allocations: 14.217 MiB, 2.35% gc time)
make_phi():   0.009295 seconds (8.18 k allocations: 237.844 KiB)
  0.183209 seconds (87.57 k allocations: 4.748 MiB)
tskip:       1.4e-5 sec (0 allocations: 0 byte, 0.0% gc time)
tread:       0.002205 sec (17 allocations: 2.125 KB, 0.0% gc time)
tmultphi:    0.035092 sec (21.425 k allocations: 1.287 MB, 0.0% gc time)
tbrfft:      0.002853 sec (0 allocations: 0 byte, 0.0% gc time)
tmultprefac: 0.002323 sec (0 allocations: 0 byte, 0.0% gc time)
toutfunc:    0.114422 sec (64.483 k allocations: 3.329 MB, 0.0% gc time)
Testing R=1.1 ... passed
Calculating fmax: 
  dlrec    = 4
  dlrecRg1 = -4
  q=1.1, R=1.0:	  0.001455 seconds (3.20 k allocations: 275.344 KiB)

  0.001665 seconds (3.35 k allocations: 311.750 KiB)
ℓ = 1202
Δℓ = 4
ΔℓRg1 = -4
N = 1600
q = 1.1
kmin = 1.0e-5
kmax = 100000.00000000004
χ0 = 0.023029999999999995
RR = RR.tsv
ℓmax = ℓmax.bin
f21 = f21.bin
kmin = 1.0e-5
kmax = 100000.0
dlrec    = 4
dlrecRg1 = -4
Output size: 61465536 bytes = 0.05724424123764038 GiB
Output size: 51264 bytes = 4.774332046508789e-5 GiB
Reading 'out/F21EllCache'...   0.000953 seconds (197 allocations: 84.203 KiB)
ellmax: 1202
lmaxcache: 1202
fell[:,1,1] = ComplexF64[809.6031528389767 - 1.9829558194077161e-13im, 0.0 + 0.0im]
ell 1202, elapsed: 2.288818359375e-5
ell 1201, elapsed: 0.010781049728393555
ell 1200, elapsed: 0.011888980865478516
ell 1199, elapsed: 0.0002810955047607422
ell 1198, elapsed: 0.00027298927307128906
ell 1197, elapsed: 0.00032901763916015625
ell 1196, elapsed: 0.00030303001403808594
ell 1195, elapsed: 0.00029921531677246094
ell 1194, elapsed: 0.0003268718719482422
ell 1193, elapsed: 0.00031304359436035156
ell 1192, elapsed: 0.00030303001403808594
ell 1191, elapsed: 0.0003650188446044922
ell 1190, elapsed: 0.000347137451171875
ell 1189, elapsed: 0.0002999305725097656
ell 1188, elapsed: 0.00030303001403808594
ell 1187, elapsed: 0.000308990478515625
ell 1186, elapsed: 0.0003020763397216797
ell 1185, elapsed: 0.0003120899200439453
ell 1184, elapsed: 0.00030303001403808594
ell 1183, elapsed: 0.00034999847412109375
ell 1182, elapsed: 0.00035309791564941406
ell 1181, elapsed: 0.0003352165222167969
ell 1180, elapsed: 0.0003058910369873047
ell 1179, elapsed: 0.0002989768981933594
ell 1178, elapsed: 0.0002968311309814453
ell 1177, elapsed: 0.00030303001403808594
ell 1176, elapsed: 0.0002970695495605469
ell 1175, elapsed: 0.00030303001403808594
ell 1174, elapsed: 0.00030303001403808594
ell 1173, elapsed: 0.00030112266540527344
ell 1172, elapsed: 0.00030803680419921875
ell 1171, elapsed: 0.00031495094299316406
ell 1170, elapsed: 0.00030303001403808594
ell 1169, elapsed: 0.0002989768981933594
ell 1168, elapsed: 0.0002989768981933594
ell 1167, elapsed: 0.0003070831298828125
ell 1166, elapsed: 0.0002989768981933594
ell 1165, elapsed: 0.0003020763397216797
ell 1164, elapsed: 0.0002980232238769531
ell 1163, elapsed: 0.0002999305725097656
ell 1162, elapsed: 0.0003070831298828125
ell 1161, elapsed: 0.0002980232238769531
ell 1160, elapsed: 0.0003020763397216797
ell 1159, elapsed: 0.0003209114074707031
ell 1158, elapsed: 0.00030493736267089844
ell 1157, elapsed: 0.000308990478515625
ell 1156, elapsed: 0.0003020763397216797
ell 1155, elapsed: 0.00030303001403808594
ell 1154, elapsed: 0.0003008842468261719
ell 1153, elapsed: 0.0003039836883544922
ell 1152, elapsed: 0.0003020763397216797
ell 1151, elapsed: 0.0003008842468261719
ell 1150, elapsed: 0.00030493736267089844
ell 1149, elapsed: 0.0003008842468261719
ell 1148, elapsed: 0.00030803680419921875
ell 1147, elapsed: 0.00031495094299316406
ell 1146, elapsed: 0.00030112266540527344
ell 1145, elapsed: 0.0003058910369873047
ell 1144, elapsed: 0.0003018379211425781
ell 1143, elapsed: 0.00030493736267089844
ell 1142, elapsed: 0.0003018379211425781
ell 1141, elapsed: 0.0003008842468261719
ell 1140, elapsed: 0.00031185150146484375
ell 1139, elapsed: 0.0002999305725097656
ell 1138, elapsed: 0.000308990478515625
ell 1137, elapsed: 0.00036215782165527344
ell 1136, elapsed: 0.00038909912109375
ell 1135, elapsed: 0.0004911422729492188
ell 1134, elapsed: 0.0004239082336425781
ell 1133, elapsed: 0.00030493736267089844
ell 1132, elapsed: 0.0002989768981933594
ell 1131, elapsed: 0.0002970695495605469
ell 1130, elapsed: 0.0003039836883544922
ell 1129, elapsed: 0.0002949237823486328
ell 1128, elapsed: 0.0003039836883544922
ell 1127, elapsed: 0.0002968311309814453
ell 1126, elapsed: 0.0002989768981933594
ell 1125, elapsed: 0.00037789344787597656
ell 1124, elapsed: 0.00045800209045410156
ell 1123, elapsed: 0.00038814544677734375
ell 1122, elapsed: 0.0003829002380371094
ell 1121, elapsed: 0.0004858970642089844
ell 1120, elapsed: 0.00039196014404296875
ell 1119, elapsed: 0.0004761219024658203
ell 1118, elapsed: 0.0003819465637207031
ell 1117, elapsed: 0.0004608631134033203
ell 1116, elapsed: 0.0004649162292480469
ell 1115, elapsed: 0.0004668235778808594
ell 1114, elapsed: 0.0004601478576660156
ell 1113, elapsed: 0.0004677772521972656
ell 1112, elapsed: 0.0004620552062988281
ell 1111, elapsed: 0.0004620552062988281
ell 1110, elapsed: 0.0004680156707763672
ell 1109, elapsed: 0.0004448890686035156
ell 1108, elapsed: 0.0003650188446044922
ell 1107, elapsed: 0.0003380775451660156
ell 1106, elapsed: 0.0003600120544433594
ell 1105, elapsed: 0.00040793418884277344
ell 1104, elapsed: 0.00046896934509277344
ell 1103, elapsed: 0.0003859996795654297
ell 1102, elapsed: 0.00036597251892089844
ell 1101, elapsed: 0.00037097930908203125
ell 1100, elapsed: 0.0003349781036376953
ell 1099, elapsed: 0.00032806396484375
ell 1098, elapsed: 0.0003020763397216797
ell 1097, elapsed: 0.0002999305725097656
ell 1096, elapsed: 0.0003018379211425781
ell 1095, elapsed: 0.0002980232238769531
ell 1094, elapsed: 0.00029587745666503906
ell 1093, elapsed: 0.00030112266540527344
ell 1092, elapsed: 0.00029587745666503906
ell 1091, elapsed: 0.0002980232238769531
ell 1090, elapsed: 0.0002970695495605469
ell 1089, elapsed: 0.00029397010803222656
ell 1088, elapsed: 0.00030112266540527344
ell 1087, elapsed: 0.000308990478515625
ell 1086, elapsed: 0.0003139972686767578
ell 1085, elapsed: 0.0002980232238769531
ell 1084, elapsed: 0.0002968311309814453
ell 1083, elapsed: 0.00030112266540527344
ell 1082, elapsed: 0.0003039836883544922
ell 1081, elapsed: 0.00030422210693359375
ell 1080, elapsed: 0.0003039836883544922
ell 1079, elapsed: 0.0002999305725097656
ell 1078, elapsed: 0.00030994415283203125
ell 1077, elapsed: 0.0003008842468261719
ell 1076, elapsed: 0.0003058910369873047
ell 1075, elapsed: 0.00039076805114746094
ell 1074, elapsed: 0.0003631114959716797
ell 1073, elapsed: 0.0004279613494873047
ell 1072, elapsed: 0.00046515464782714844
ell 1071, elapsed: 0.0003941059112548828
ell 1070, elapsed: 0.0004608631134033203
ell 1069, elapsed: 0.00045990943908691406
ell 1068, elapsed: 0.0004630088806152344
ell 1067, elapsed: 0.0004570484161376953
ell 1066, elapsed: 0.0003941059112548828
ell 1065, elapsed: 0.00043892860412597656
ell 1064, elapsed: 0.00045680999755859375
ell 1063, elapsed: 0.00044989585876464844
ell 1062, elapsed: 0.00044989585876464844
ell 1061, elapsed: 0.00045299530029296875
ell 1060, elapsed: 0.00045299530029296875
ell 1059, elapsed: 0.00045418739318847656
ell 1058, elapsed: 0.0004799365997314453
ell 1057, elapsed: 0.00045609474182128906
ell 1056, elapsed: 0.0004570484161376953
ell 1055, elapsed: 0.000453948974609375
ell 1054, elapsed: 0.0004489421844482422
ell 1053, elapsed: 0.0004591941833496094
ell 1052, elapsed: 0.00044989585876464844
ell 1051, elapsed: 0.00045990943908691406
ell 1050, elapsed: 0.0004630088806152344
ell 1049, elapsed: 0.0004589557647705078
ell 1048, elapsed: 0.00045299530029296875
ell 1047, elapsed: 0.0004520416259765625
ell 1046, elapsed: 0.0004589557647705078
ell 1045, elapsed: 0.0004489421844482422
ell 1044, elapsed: 0.00035190582275390625
ell 1043, elapsed: 0.0003788471221923828
ell 1042, elapsed: 0.0003299713134765625
ell 1041, elapsed: 0.0003170967102050781
ell 1040, elapsed: 0.0003330707550048828
ell 1039, elapsed: 0.0003039836883544922
ell 1038, elapsed: 0.00029397010803222656
ell 1037, elapsed: 0.0002961158752441406
ell 1036, elapsed: 0.0002989768981933594
ell 1035, elapsed: 0.0002949237823486328
ell 1034, elapsed: 0.0002970695495605469
ell 1033, elapsed: 0.0002970695495605469
ell 1032, elapsed: 0.0002949237823486328
ell 1031, elapsed: 0.0003008842468261719
ell 1030, elapsed: 0.00038504600524902344
ell 1029, elapsed: 0.0003180503845214844
ell 1028, elapsed: 0.0003390312194824219
ell 1027, elapsed: 0.0004849433898925781
ell 1026, elapsed: 0.0004229545593261719
ell 1025, elapsed: 0.000453948974609375
ell 1024, elapsed: 0.0003809928894042969
ell 1023, elapsed: 0.0003509521484375
ell 1022, elapsed: 0.00030493736267089844
ell 1021, elapsed: 0.000308990478515625
ell 1020, elapsed: 0.0003170967102050781
ell 1019, elapsed: 0.0003070831298828125
ell 1018, elapsed: 0.0003058910369873047
ell 1017, elapsed: 0.00030303001403808594
ell 1016, elapsed: 0.0003070831298828125
ell 1015, elapsed: 0.0003008842468261719
ell 1014, elapsed: 0.00030994415283203125
ell 1013, elapsed: 0.0003020763397216797
ell 1012, elapsed: 0.00030303001403808594
ell 1011, elapsed: 0.00030684471130371094
ell 1010, elapsed: 0.0003039836883544922
ell 1009, elapsed: 0.00030612945556640625
ell 1008, elapsed: 0.0003230571746826172
ell 1007, elapsed: 0.00030303001403808594
ell 1006, elapsed: 0.00030517578125
ell 1005, elapsed: 0.0003020763397216797
ell 1004, elapsed: 0.00030803680419921875
ell 1003, elapsed: 0.00045800209045410156
ell 1002, elapsed: 0.00034880638122558594
ell 1001, elapsed: 0.0002999305725097656
ell 1000, elapsed: 0.0002980232238769531
ell 999, elapsed: 0.0003001689910888672
ell 998, elapsed: 0.00029587745666503906
ell 997, elapsed: 0.00031113624572753906
ell 996, elapsed: 0.00030303001403808594
ell 995, elapsed: 0.0002980232238769531
ell 994, elapsed: 0.0003008842468261719
ell 993, elapsed: 0.0002980232238769531
ell 992, elapsed: 0.00030112266540527344
ell 991, elapsed: 0.0002980232238769531
ell 990, elapsed: 0.0002970695495605469
ell 989, elapsed: 0.00030303001403808594
ell 988, elapsed: 0.0002961158752441406
ell 987, elapsed: 0.0003008842468261719
ell 986, elapsed: 0.0002961158752441406
ell 985, elapsed: 0.00031280517578125
ell 984, elapsed: 0.0002999305725097656
ell 983, elapsed: 0.00030303001403808594
ell 982, elapsed: 0.0002999305725097656
ell 981, elapsed: 0.0002970695495605469
ell 980, elapsed: 0.0002980232238769531
ell 979, elapsed: 0.00030303001403808594
ell 978, elapsed: 0.0002949237823486328
ell 977, elapsed: 0.00030303001403808594
ell 976, elapsed: 0.00029921531677246094
ell 975, elapsed: 0.0002980232238769531
ell 974, elapsed: 0.0003001689910888672
ell 973, elapsed: 0.0003151893615722656
ell 972, elapsed: 0.0003151893615722656
ell 971, elapsed: 0.000308990478515625
ell 970, elapsed: 0.00030303001403808594
ell 969, elapsed: 0.0004119873046875
ell 968, elapsed: 0.0003800392150878906
ell 967, elapsed: 0.0003180503845214844
ell 966, elapsed: 0.0002999305725097656
ell 965, elapsed: 0.00030493736267089844
ell 964, elapsed: 0.0003039836883544922
ell 963, elapsed: 0.00029587745666503906
ell 962, elapsed: 0.0003781318664550781
ell 961, elapsed: 0.00030517578125
ell 960, elapsed: 0.00030684471130371094
ell 959, elapsed: 0.0003039836883544922
ell 958, elapsed: 0.00030112266540527344
ell 957, elapsed: 0.00030493736267089844
ell 956, elapsed: 0.00030112266540527344
ell 955, elapsed: 0.00029778480529785156
ell 954, elapsed: 0.0003070831298828125
ell 953, elapsed: 0.0002989768981933594
ell 952, elapsed: 0.0003070831298828125
ell 951, elapsed: 0.0002989768981933594
ell 950, elapsed: 0.00031304359436035156
ell 949, elapsed: 0.0003039836883544922
ell 948, elapsed: 0.0002989768981933594
ell 947, elapsed: 0.00030493736267089844
ell 946, elapsed: 0.0003008842468261719
ell 945, elapsed: 0.0002970695495605469
ell 944, elapsed: 0.00030493736267089844
ell 943, elapsed: 0.0002989768981933594
ell 942, elapsed: 0.0003039836883544922
ell 941, elapsed: 0.0003001689910888672
ell 940, elapsed: 0.0003039836883544922
ell 939, elapsed: 0.0002989768981933594
ell 938, elapsed: 0.0003120899200439453
ell 937, elapsed: 0.00030803680419921875
ell 936, elapsed: 0.0003020763397216797
ell 935, elapsed: 0.0003180503845214844
ell 934, elapsed: 0.00033283233642578125
ell 933, elapsed: 0.00030803680419921875
ell 932, elapsed: 0.00031113624572753906
ell 931, elapsed: 0.0003199577331542969
ell 930, elapsed: 0.00031185150146484375
ell 929, elapsed: 0.00031304359436035156
ell 928, elapsed: 0.00030303001403808594
ell 927, elapsed: 0.00032210350036621094
ell 926, elapsed: 0.00030493736267089844
ell 925, elapsed: 0.0003108978271484375
ell 924, elapsed: 0.0003020763397216797
ell 923, elapsed: 0.00030493736267089844
ell 922, elapsed: 0.00030803680419921875
ell 921, elapsed: 0.00030303001403808594
ell 920, elapsed: 0.00030493736267089844
ell 919, elapsed: 0.0003020763397216797
ell 918, elapsed: 0.00030303001403808594
ell 917, elapsed: 0.000308990478515625
ell 916, elapsed: 0.0003199577331542969
ell 915, elapsed: 0.00036597251892089844
ell 914, elapsed: 0.0003840923309326172
ell 913, elapsed: 0.0003561973571777344
ell 912, elapsed: 0.0003101825714111328
ell 911, elapsed: 0.000308990478515625
ell 910, elapsed: 0.00030994415283203125
ell 909, elapsed: 0.00030493736267089844
ell 908, elapsed: 0.00030303001403808594
ell 907, elapsed: 0.0003120899200439453
ell 906, elapsed: 0.0003039836883544922
ell 905, elapsed: 0.0003108978271484375
ell 904, elapsed: 0.0003209114074707031
ell 903, elapsed: 0.00030303001403808594
ell 902, elapsed: 0.0003058910369873047
ell 901, elapsed: 0.0003058910369873047
ell 900, elapsed: 0.0003108978271484375
ell 899, elapsed: 0.0003039836883544922
ell 898, elapsed: 0.00030303001403808594
ell 897, elapsed: 0.0003070831298828125
ell 896, elapsed: 0.0003058910369873047
ell 895, elapsed: 0.00031304359436035156
ell 894, elapsed: 0.00030493736267089844
ell 893, elapsed: 0.0003120899200439453
ell 892, elapsed: 0.0003108978271484375
ell 891, elapsed: 0.0003039836883544922
ell 890, elapsed: 0.000308990478515625
ell 889, elapsed: 0.0003039836883544922
ell 888, elapsed: 0.00030803680419921875
ell 887, elapsed: 0.0003039836883544922
ell 886, elapsed: 0.0003070831298828125
ell 885, elapsed: 0.00030612945556640625
ell 884, elapsed: 0.00030612945556640625
ell 883, elapsed: 0.0003180503845214844
ell 882, elapsed: 0.0003039836883544922
ell 881, elapsed: 0.00031304359436035156
ell 880, elapsed: 0.00030994415283203125
ell 879, elapsed: 0.00030303001403808594
ell 878, elapsed: 0.00030803680419921875
ell 877, elapsed: 0.0003039836883544922
ell 876, elapsed: 0.0003058910369873047
ell 875, elapsed: 0.0003120899200439453
ell 874, elapsed: 0.00030493736267089844
ell 873, elapsed: 0.000308990478515625
ell 872, elapsed: 0.00030517578125
ell 871, elapsed: 0.00030303001403808594
ell 870, elapsed: 0.0003261566162109375
ell 869, elapsed: 0.00030493736267089844
ell 868, elapsed: 0.00030803680419921875
ell 867, elapsed: 0.0003058910369873047
ell 866, elapsed: 0.00030303001403808594
ell 865, elapsed: 0.0003120899200439453
ell 864, elapsed: 0.0003020763397216797
ell 863, elapsed: 0.000308990478515625
ell 862, elapsed: 0.00030493736267089844
ell 861, elapsed: 0.0003070831298828125
ell 860, elapsed: 0.0003070831298828125
ell 859, elapsed: 0.0003039836883544922
ell 858, elapsed: 0.0003349781036376953
ell 857, elapsed: 0.00040793418884277344
ell 856, elapsed: 0.0004591941833496094
ell 855, elapsed: 0.0004639625549316406
ell 854, elapsed: 0.00045800209045410156
ell 853, elapsed: 0.0004649162292480469
ell 852, elapsed: 0.00045800209045410156
ell 851, elapsed: 0.00045990943908691406
ell 850, elapsed: 0.0003859996795654297
ell 849, elapsed: 0.0003421306610107422
ell 848, elapsed: 0.00035691261291503906
ell 847, elapsed: 0.0004210472106933594
ell 846, elapsed: 0.00040411949157714844
ell 845, elapsed: 0.00036907196044921875
ell 844, elapsed: 0.0004029273986816406
ell 843, elapsed: 0.0003910064697265625
ell 842, elapsed: 0.00037384033203125
ell 841, elapsed: 0.00047779083251953125
ell 840, elapsed: 0.0004570484161376953
ell 839, elapsed: 0.0004601478576660156
ell 838, elapsed: 0.0004069805145263672
ell 837, elapsed: 0.00035190582275390625
ell 836, elapsed: 0.0003268718719482422
ell 835, elapsed: 0.00045990943908691406
ell 834, elapsed: 0.000453948974609375
ell 833, elapsed: 0.00045490264892578125
ell 832, elapsed: 0.0004661083221435547
ell 831, elapsed: 0.0004570484161376953
ell 830, elapsed: 0.000453948974609375
ell 829, elapsed: 0.00045299530029296875
ell 828, elapsed: 0.0004589557647705078
ell 827, elapsed: 0.00044989585876464844
ell 826, elapsed: 0.0004589557647705078
ell 825, elapsed: 0.0004520416259765625
ell 824, elapsed: 0.00046896934509277344
ell 823, elapsed: 0.00046181678771972656
ell 822, elapsed: 0.00045299530029296875
ell 821, elapsed: 0.00045490264892578125
ell 820, elapsed: 0.00044989585876464844
ell 819, elapsed: 0.0003509521484375
ell 818, elapsed: 0.0003399848937988281
ell 817, elapsed: 0.00030493736267089844
ell 816, elapsed: 0.00033020973205566406
ell 815, elapsed: 0.0004711151123046875
ell 814, elapsed: 0.00039696693420410156
ell 813, elapsed: 0.00046181678771972656
ell 812, elapsed: 0.0003800392150878906
ell 811, elapsed: 0.0004620552062988281
ell 810, elapsed: 0.00045800209045410156
ell 809, elapsed: 0.0004630088806152344
ell 808, elapsed: 0.00045800209045410156
ell 807, elapsed: 0.00047206878662109375
ell 806, elapsed: 0.00046706199645996094
ell 805, elapsed: 0.00045800209045410156
ell 804, elapsed: 0.00037598609924316406
ell 803, elapsed: 0.0003559589385986328
ell 802, elapsed: 0.0003120899200439453
ell 801, elapsed: 0.0004439353942871094
ell 800, elapsed: 0.0003509521484375
ell 799, elapsed: 0.0003478527069091797
ell 798, elapsed: 0.00030493736267089844
ell 797, elapsed: 0.000308990478515625
ell 796, elapsed: 0.00031185150146484375
ell 795, elapsed: 0.00030803680419921875
ell 794, elapsed: 0.0003108978271484375
ell 793, elapsed: 0.00032591819763183594
ell 792, elapsed: 0.0006830692291259766
ell 791, elapsed: 0.0007340908050537109
ell 790, elapsed: 0.0007450580596923828
ell 789, elapsed: 0.0007390975952148438
ell 788, elapsed: 0.0007340908050537109
ell 787, elapsed: 0.0007300376892089844
ell 786, elapsed: 0.0007379055023193359
ell 785, elapsed: 0.0007529258728027344
ell 784, elapsed: 0.0007300376892089844
ell 783, elapsed: 0.0007278919219970703
ell 782, elapsed: 0.0007250308990478516
ell 781, elapsed: 0.0007328987121582031
ell 780, elapsed: 0.0007479190826416016
ell 779, elapsed: 0.0007328987121582031
ell 778, elapsed: 0.0007328987121582031
ell 777, elapsed: 0.0007340908050537109
ell 776, elapsed: 0.0005769729614257812
ell 775, elapsed: 0.00034999847412109375
ell 774, elapsed: 0.000370025634765625
ell 773, elapsed: 0.0003561973571777344
ell 772, elapsed: 0.0003151893615722656
ell 771, elapsed: 0.000308990478515625
ell 770, elapsed: 0.00030803680419921875
ell 769, elapsed: 0.00031113624572753906
ell 768, elapsed: 0.000308990478515625
ell 767, elapsed: 0.0003120899200439453
ell 766, elapsed: 0.00030803680419921875
ell 765, elapsed: 0.0003070831298828125
ell 764, elapsed: 0.0003139972686767578
ell 763, elapsed: 0.000308990478515625
ell 762, elapsed: 0.00039505958557128906
ell 761, elapsed: 0.00033283233642578125
ell 760, elapsed: 0.0002999305725097656
ell 759, elapsed: 0.00030303001403808594
ell 758, elapsed: 0.00047087669372558594
ell 757, elapsed: 0.0004639625549316406
ell 756, elapsed: 0.00035500526428222656
ell 755, elapsed: 0.00036716461181640625
ell 754, elapsed: 0.00039005279541015625
ell 753, elapsed: 0.00032401084899902344
ell 752, elapsed: 0.0003058910369873047
ell 751, elapsed: 0.0002999305725097656
ell 750, elapsed: 0.0003039836883544922
ell 749, elapsed: 0.0002989768981933594
ell 748, elapsed: 0.0003008842468261719
ell 747, elapsed: 0.00030303001403808594
ell 746, elapsed: 0.00030303001403808594
ell 745, elapsed: 0.00030303001403808594
ell 744, elapsed: 0.0002989768981933594
ell 743, elapsed: 0.00030112266540527344
ell 742, elapsed: 0.00030493736267089844
ell 741, elapsed: 0.00030803680419921875
ell 740, elapsed: 0.00030303001403808594
ell 739, elapsed: 0.00030303001403808594
ell 738, elapsed: 0.0002980232238769531
ell 737, elapsed: 0.00030493736267089844
ell 736, elapsed: 0.0002980232238769531
ell 735, elapsed: 0.00030612945556640625
ell 734, elapsed: 0.0002989768981933594
ell 733, elapsed: 0.0003020763397216797
ell 732, elapsed: 0.0003039836883544922
ell 731, elapsed: 0.0003008842468261719
ell 730, elapsed: 0.00030493736267089844
ell 729, elapsed: 0.0003108978271484375
ell 728, elapsed: 0.0002989768981933594
ell 727, elapsed: 0.0003139972686767578
ell 726, elapsed: 0.00030303001403808594
ell 725, elapsed: 0.00030493736267089844
ell 724, elapsed: 0.0002980232238769531
ell 723, elapsed: 0.0002999305725097656
ell 722, elapsed: 0.0002989768981933594
ell 721, elapsed: 0.0003020763397216797
ell 720, elapsed: 0.0003039836883544922
ell 719, elapsed: 0.0002999305725097656
ell 718, elapsed: 0.0003058910369873047
ell 717, elapsed: 0.0003142356872558594
ell 716, elapsed: 0.0002999305725097656
ell 715, elapsed: 0.00030517578125
ell 714, elapsed: 0.0002989768981933594
ell 713, elapsed: 0.00030493736267089844
ell 712, elapsed: 0.00030303001403808594
ell 711, elapsed: 0.0002999305725097656
ell 710, elapsed: 0.00030303001403808594
ell 709, elapsed: 0.0003027915954589844
ell 708, elapsed: 0.00030493736267089844
ell 707, elapsed: 0.0002989768981933594
ell 706, elapsed: 0.0002989768981933594
ell 705, elapsed: 0.0003120899200439453
ell 704, elapsed: 0.0002989768981933594
ell 703, elapsed: 0.00030493736267089844
ell 702, elapsed: 0.0002999305725097656
ell 701, elapsed: 0.00029778480529785156
ell 700, elapsed: 0.00030517578125
ell 699, elapsed: 0.0002980232238769531
ell 698, elapsed: 0.00030493736267089844
ell 697, elapsed: 0.0002980232238769531
ell 696, elapsed: 0.00030303001403808594
ell 695, elapsed: 0.0003020763397216797
ell 694, elapsed: 0.00030112266540527344
ell 693, elapsed: 0.0003139972686767578
ell 692, elapsed: 0.00030112266540527344
ell 691, elapsed: 0.00030112266540527344
ell 690, elapsed: 0.00030303001403808594
ell 689, elapsed: 0.0002980232238769531
ell 688, elapsed: 0.00030303001403808594
ell 687, elapsed: 0.0002980232238769531
ell 686, elapsed: 0.0003039836883544922
ell 685, elapsed: 0.0003008842468261719
ell 684, elapsed: 0.00029921531677246094
ell 683, elapsed: 0.0003020763397216797
ell 682, elapsed: 0.0003008842468261719
ell 681, elapsed: 0.0003139972686767578
ell 680, elapsed: 0.0003020763397216797
ell 679, elapsed: 0.0003008842468261719
ell 678, elapsed: 0.0003039836883544922
ell 677, elapsed: 0.0002980232238769531
ell 676, elapsed: 0.00030303001403808594
ell 675, elapsed: 0.0002999305725097656
ell 674, elapsed: 0.0002989768981933594
ell 673, elapsed: 0.0003039836883544922
ell 672, elapsed: 0.0002980232238769531
ell 671, elapsed: 0.0003039836883544922
ell 670, elapsed: 0.0002989768981933594
ell 669, elapsed: 0.0003108978271484375
ell 668, elapsed: 0.0003039836883544922
ell 667, elapsed: 0.0003008842468261719
ell 666, elapsed: 0.0003039836883544922
ell 665, elapsed: 0.0002999305725097656
ell 664, elapsed: 0.0002980232238769531
ell 663, elapsed: 0.00030493736267089844
ell 662, elapsed: 0.0002999305725097656
ell 661, elapsed: 0.00030803680419921875
ell 660, elapsed: 0.0002989768981933594
ell 659, elapsed: 0.00030517578125
ell 658, elapsed: 0.0002989768981933594
ell 657, elapsed: 0.000308990478515625
ell 656, elapsed: 0.00030303001403808594
ell 655, elapsed: 0.0002989768981933594
ell 654, elapsed: 0.0003008842468261719
ell 653, elapsed: 0.0002980232238769531
ell 652, elapsed: 0.0002999305725097656
ell 651, elapsed: 0.00030493736267089844
ell 650, elapsed: 0.0002980232238769531
ell 649, elapsed: 0.00030303001403808594
ell 648, elapsed: 0.0002989768981933594
ell 647, elapsed: 0.00030112266540527344
ell 646, elapsed: 0.0003027915954589844
ell 645, elapsed: 0.0003299713134765625
ell 644, elapsed: 0.0003108978271484375
ell 643, elapsed: 0.00030684471130371094
ell 642, elapsed: 0.00030803680419921875
ell 641, elapsed: 0.00030994415283203125
ell 640, elapsed: 0.00030684471130371094
ell 639, elapsed: 0.000308990478515625
ell 638, elapsed: 0.0003058910369873047
ell 637, elapsed: 0.0003039836883544922
ell 636, elapsed: 0.00031113624572753906
ell 635, elapsed: 0.0003018379211425781
ell 634, elapsed: 0.000308990478515625
ell 633, elapsed: 0.0003159046173095703
ell 632, elapsed: 0.0003058910369873047
ell 631, elapsed: 0.00047087669372558594
ell 630, elapsed: 0.0004730224609375
ell 629, elapsed: 0.00047397613525390625
ell 628, elapsed: 0.0004711151123046875
ell 627, elapsed: 0.00047087669372558594
ell 626, elapsed: 0.00047087669372558594
ell 625, elapsed: 0.00047707557678222656
ell 624, elapsed: 0.00047707557678222656
ell 623, elapsed: 0.00046706199645996094
ell 622, elapsed: 0.00047588348388671875
ell 621, elapsed: 0.000469207763671875
ell 620, elapsed: 0.0004730224609375
ell 619, elapsed: 0.00047516822814941406
ell 618, elapsed: 0.00047206878662109375
ell 617, elapsed: 0.0004868507385253906
ell 616, elapsed: 0.00047516822814941406
ell 615, elapsed: 0.0004699230194091797
ell 614, elapsed: 0.0004818439483642578
ell 613, elapsed: 0.0004711151123046875
ell 612, elapsed: 0.00047898292541503906
ell 611, elapsed: 0.0004730224609375
ell 610, elapsed: 0.0004780292510986328
ell 609, elapsed: 0.0004799365997314453
ell 608, elapsed: 0.0004699230194091797
ell 607, elapsed: 0.00047898292541503906
ell 606, elapsed: 0.00047016143798828125
ell 605, elapsed: 0.00047397613525390625
ell 604, elapsed: 0.000476837158203125
ell 603, elapsed: 0.00047397613525390625
ell 602, elapsed: 0.0004889965057373047
ell 601, elapsed: 0.0004730224609375
ell 600, elapsed: 0.00047707557678222656
ell 599, elapsed: 0.00047206878662109375
ell 598, elapsed: 0.00046896934509277344
ell 597, elapsed: 0.0004811286926269531
ell 596, elapsed: 0.00047707557678222656
ell 595, elapsed: 0.0004780292510986328
ell 594, elapsed: 0.00047898292541503906
ell 593, elapsed: 0.00047516822814941406
ell 592, elapsed: 0.0004780292510986328
ell 591, elapsed: 0.0004730224609375
ell 590, elapsed: 0.0004780292510986328
ell 589, elapsed: 0.00047588348388671875
ell 588, elapsed: 0.0004761219024658203
ell 587, elapsed: 0.0004889965057373047
ell 586, elapsed: 0.0004749298095703125
ell 585, elapsed: 0.0004799365997314453
ell 584, elapsed: 0.0004870891571044922
ell 583, elapsed: 0.00047516822814941406
ell 582, elapsed: 0.00047707557678222656
ell 581, elapsed: 0.00047588348388671875
ell 580, elapsed: 0.0004849433898925781
ell 579, elapsed: 0.0004839897155761719
ell 578, elapsed: 0.0004761219024658203
ell 577, elapsed: 0.0004799365997314453
ell 576, elapsed: 0.000476837158203125
ell 575, elapsed: 0.0004780292510986328
ell 574, elapsed: 0.00048089027404785156
ell 573, elapsed: 0.0004699230194091797
ell 572, elapsed: 0.0004799365997314453
ell 571, elapsed: 0.0004801750183105469
ell 570, elapsed: 0.00047898292541503906
ell 569, elapsed: 0.00046896934509277344
ell 568, elapsed: 0.00047898292541503906
ell 567, elapsed: 0.0004677772521972656
ell 566, elapsed: 0.0004749298095703125
ell 565, elapsed: 0.00047588348388671875
ell 564, elapsed: 0.0004820823669433594
ell 563, elapsed: 0.0005500316619873047
ell 562, elapsed: 0.0005350112915039062
ell 561, elapsed: 0.0004248619079589844
ell 560, elapsed: 0.00032711029052734375
ell 559, elapsed: 0.0004649162292480469
ell 558, elapsed: 0.0004749298095703125
ell 557, elapsed: 0.000514984130859375
ell 556, elapsed: 0.00047516822814941406
ell 555, elapsed: 0.00047016143798828125
ell 554, elapsed: 0.0004730224609375
ell 553, elapsed: 0.00046706199645996094
ell 552, elapsed: 0.0004038810729980469
ell 551, elapsed: 0.000469207763671875
ell 550, elapsed: 0.0004699230194091797
ell 549, elapsed: 0.0004210472106933594
ell 548, elapsed: 0.00038814544677734375
ell 547, elapsed: 0.0004470348358154297
ell 546, elapsed: 0.00041103363037109375
ell 545, elapsed: 0.0004620552062988281
ell 544, elapsed: 0.0004639625549316406
ell 543, elapsed: 0.0004451274871826172
ell 542, elapsed: 0.00035309791564941406
ell 541, elapsed: 0.0003571510314941406
ell 540, elapsed: 0.0004680156707763672
ell 539, elapsed: 0.0004589557647705078
ell 538, elapsed: 0.0004570484161376953
ell 537, elapsed: 0.0004620552062988281
ell 536, elapsed: 0.0004570484161376953
ell 535, elapsed: 0.0004639625549316406
ell 534, elapsed: 0.0004520416259765625
ell 533, elapsed: 0.00045490264892578125
ell 532, elapsed: 0.000392913818359375
ell 531, elapsed: 0.0003609657287597656
ell 530, elapsed: 0.00031495094299316406
ell 529, elapsed: 0.0003108978271484375
ell 528, elapsed: 0.0003108978271484375
ell 527, elapsed: 0.00031495094299316406
ell 526, elapsed: 0.000308990478515625
ell 525, elapsed: 0.0003161430358886719
ell 524, elapsed: 0.00031185150146484375
ell 523, elapsed: 0.00031113624572753906
ell 522, elapsed: 0.00031685829162597656
ell 521, elapsed: 0.00032210350036621094
ell 520, elapsed: 0.0003151893615722656
ell 519, elapsed: 0.00031113624572753906
ell 518, elapsed: 0.00030994415283203125
ell 517, elapsed: 0.0003159046173095703
ell 516, elapsed: 0.0003941059112548828
ell 515, elapsed: 0.0003409385681152344
ell 514, elapsed: 0.0003180503845214844
ell 513, elapsed: 0.00030112266540527344
ell 512, elapsed: 0.0003209114074707031
ell 511, elapsed: 0.00030684471130371094
ell 510, elapsed: 0.00037097930908203125
ell 509, elapsed: 0.00038909912109375
ell 508, elapsed: 0.00038695335388183594
ell 507, elapsed: 0.00044417381286621094
ell 506, elapsed: 0.0004401206970214844
ell 505, elapsed: 0.0004279613494873047
ell 504, elapsed: 0.00044608116149902344
ell 503, elapsed: 0.0004558563232421875
ell 502, elapsed: 0.0004439353942871094
ell 501, elapsed: 0.00033402442932128906
ell 500, elapsed: 0.0003039836883544922
ell 499, elapsed: 0.0003070831298828125
ell 498, elapsed: 0.0003108978271484375
ell 497, elapsed: 0.0002961158752441406
ell 496, elapsed: 0.0002970695495605469
ell 495, elapsed: 0.0003020763397216797
ell 494, elapsed: 0.0002980232238769531
ell 493, elapsed: 0.0003001689910888672
ell 492, elapsed: 0.0002968311309814453
ell 491, elapsed: 0.0002949237823486328
ell 490, elapsed: 0.00030303001403808594
ell 489, elapsed: 0.0004439353942871094
ell 488, elapsed: 0.0004730224609375
ell 487, elapsed: 0.0004661083221435547
ell 486, elapsed: 0.00046706199645996094
ell 485, elapsed: 0.0004711151123046875
ell 484, elapsed: 0.0004661083221435547
ell 483, elapsed: 0.0004718303680419922
ell 482, elapsed: 0.0004639625549316406
ell 481, elapsed: 0.00046706199645996094
ell 480, elapsed: 0.0004680156707763672
ell 479, elapsed: 0.0004658699035644531
ell 478, elapsed: 0.0004718303680419922
ell 477, elapsed: 0.0004661083221435547
ell 476, elapsed: 0.0004642009735107422
ell 475, elapsed: 0.00047397613525390625
ell 474, elapsed: 0.00047397613525390625
ell 473, elapsed: 0.00047206878662109375
ell 472, elapsed: 0.0004630088806152344
ell 471, elapsed: 0.0004680156707763672
ell 470, elapsed: 0.0004649162292480469
ell 469, elapsed: 0.0004680156707763672
ell 468, elapsed: 0.0004730224609375
ell 467, elapsed: 0.0004639625549316406
ell 466, elapsed: 0.0004780292510986328
ell 465, elapsed: 0.0004668235778808594
ell 464, elapsed: 0.0004630088806152344
ell 463, elapsed: 0.0004718303680419922
ell 462, elapsed: 0.0004680156707763672
ell 461, elapsed: 0.00047087669372558594
ell 460, elapsed: 0.0004019737243652344
ell 459, elapsed: 0.0002968311309814453
ell 458, elapsed: 0.00030112266540527344
ell 457, elapsed: 0.00032591819763183594
ell 456, elapsed: 0.00030112266540527344
ell 455, elapsed: 0.00029778480529785156
ell 454, elapsed: 0.00029587745666503906
ell 453, elapsed: 0.0003020763397216797
ell 452, elapsed: 0.0002980232238769531
ell 451, elapsed: 0.0002999305725097656
ell 450, elapsed: 0.0002961158752441406
ell 449, elapsed: 0.0002961158752441406
ell 448, elapsed: 0.0003008842468261719
ell 447, elapsed: 0.0002949237823486328
ell 446, elapsed: 0.0003008842468261719
ell 445, elapsed: 0.0003039836883544922
ell 444, elapsed: 0.00030112266540527344
ell 443, elapsed: 0.0002970695495605469
ell 442, elapsed: 0.0002970695495605469
ell 441, elapsed: 0.00030112266540527344
ell 440, elapsed: 0.0002989768981933594
ell 439, elapsed: 0.0002999305725097656
ell 438, elapsed: 0.0002970695495605469
ell 437, elapsed: 0.00029587745666503906
ell 436, elapsed: 0.0003039836883544922
ell 435, elapsed: 0.0002951622009277344
ell 434, elapsed: 0.0003020763397216797
ell 433, elapsed: 0.0003020763397216797
ell 432, elapsed: 0.0002970695495605469
ell 431, elapsed: 0.0002999305725097656
ell 430, elapsed: 0.0002980232238769531
ell 429, elapsed: 0.0002999305725097656
ell 428, elapsed: 0.0002970695495605469
ell 427, elapsed: 0.0002961158752441406
ell 426, elapsed: 0.0003018379211425781
ell 425, elapsed: 0.0002949237823486328
ell 424, elapsed: 0.0003020763397216797
ell 423, elapsed: 0.0002949237823486328
ell 422, elapsed: 0.0002970695495605469
ell 421, elapsed: 0.00030517578125
ell 420, elapsed: 0.00030517578125
ell 419, elapsed: 0.00030112266540527344
ell 418, elapsed: 0.0002949237823486328
ell 417, elapsed: 0.00030112266540527344
ell 416, elapsed: 0.0003008842468261719
ell 415, elapsed: 0.0002970695495605469
ell 414, elapsed: 0.00030112266540527344
ell 413, elapsed: 0.00029921531677246094
ell 412, elapsed: 0.0003001689910888672
ell 411, elapsed: 0.0002968311309814453
ell 410, elapsed: 0.00029397010803222656
ell 409, elapsed: 0.0003008842468261719
ell 408, elapsed: 0.0002961158752441406
ell 407, elapsed: 0.0003018379211425781
ell 406, elapsed: 0.0002951622009277344
ell 405, elapsed: 0.0002989768981933594
ell 404, elapsed: 0.00030112266540527344
ell 403, elapsed: 0.0002970695495605469
ell 402, elapsed: 0.0002999305725097656
ell 401, elapsed: 0.0002970695495605469
ell 400, elapsed: 0.0002961158752441406
ell 399, elapsed: 0.0003018379211425781
ell 398, elapsed: 0.0002949237823486328
ell 397, elapsed: 0.00030112266540527344
ell 396, elapsed: 0.0003039836883544922
ell 395, elapsed: 0.0002968311309814453
ell 394, elapsed: 0.00033402442932128906
ell 393, elapsed: 0.00030493736267089844
ell 392, elapsed: 0.0003070831298828125
ell 391, elapsed: 0.0003020763397216797
ell 390, elapsed: 0.0002989768981933594
ell 389, elapsed: 0.00030517578125
ell 388, elapsed: 0.00030112266540527344
ell 387, elapsed: 0.0003077983856201172
ell 386, elapsed: 0.0003018379211425781
ell 385, elapsed: 0.00030112266540527344
ell 384, elapsed: 0.0005168914794921875
ell 383, elapsed: 0.0005290508270263672
ell 382, elapsed: 0.0004730224609375
ell 381, elapsed: 0.0004658699035644531
ell 380, elapsed: 0.00048804283142089844
ell 379, elapsed: 0.0004799365997314453
ell 378, elapsed: 0.0005080699920654297
ell 377, elapsed: 0.0005509853363037109
ell 376, elapsed: 0.0004649162292480469
ell 375, elapsed: 0.0004699230194091797
ell 374, elapsed: 0.00046706199645996094
ell 373, elapsed: 0.0004649162292480469
ell 372, elapsed: 0.00047397613525390625
ell 371, elapsed: 0.0004642009735107422
ell 370, elapsed: 0.0004909038543701172
ell 369, elapsed: 0.00046706199645996094
ell 368, elapsed: 0.0004649162292480469
ell 367, elapsed: 0.0004711151123046875
ell 366, elapsed: 0.00046896934509277344
ell 365, elapsed: 0.00047016143798828125
ell 364, elapsed: 0.0004680156707763672
ell 363, elapsed: 0.0004658699035644531
ell 362, elapsed: 0.0004830360412597656
ell 361, elapsed: 0.0004639625549316406
ell 360, elapsed: 0.00048804283142089844
ell 359, elapsed: 0.0004849433898925781
ell 358, elapsed: 0.0005259513854980469
ell 357, elapsed: 0.0004940032958984375
ell 356, elapsed: 0.0004611015319824219
ell 355, elapsed: 0.0004649162292480469
ell 354, elapsed: 0.0004742145538330078
ell 353, elapsed: 0.00046515464782714844
ell 352, elapsed: 0.0004601478576660156
ell 351, elapsed: 0.0004611015319824219
ell 350, elapsed: 0.0004639625549316406
ell 349, elapsed: 0.00046896934509277344
ell 348, elapsed: 0.0004649162292480469
ell 347, elapsed: 0.0004620552062988281
ell 346, elapsed: 0.0005168914794921875
ell 345, elapsed: 0.0005450248718261719
ell 344, elapsed: 0.0005159378051757812
ell 343, elapsed: 0.0004889965057373047
ell 342, elapsed: 0.0005259513854980469
ell 341, elapsed: 0.0005140304565429688
ell 340, elapsed: 0.00047087669372558594
ell 339, elapsed: 0.0004839897155761719
ell 338, elapsed: 0.00047707557678222656
ell 337, elapsed: 0.00047397613525390625
ell 336, elapsed: 0.00047016143798828125
ell 335, elapsed: 0.00047397613525390625
ell 334, elapsed: 0.0004661083221435547
ell 333, elapsed: 0.00047707557678222656
ell 332, elapsed: 0.00047898292541503906
ell 331, elapsed: 0.00047206878662109375
ell 330, elapsed: 0.0004730224609375
ell 329, elapsed: 0.0004711151123046875
ell 328, elapsed: 0.00047707557678222656
ell 327, elapsed: 0.00047707557678222656
ell 326, elapsed: 0.0004658699035644531
ell 325, elapsed: 0.0004780292510986328
ell 324, elapsed: 0.00047588348388671875
ell 323, elapsed: 0.00047206878662109375
ell 322, elapsed: 0.00046706199645996094
ell 321, elapsed: 0.0004367828369140625
ell 320, elapsed: 0.0003070831298828125
ell 319, elapsed: 0.0003039836883544922
ell 318, elapsed: 0.0003108978271484375
ell 317, elapsed: 0.0003039836883544922
ell 316, elapsed: 0.00031113624572753906
ell 315, elapsed: 0.00030493736267089844
ell 314, elapsed: 0.0004711151123046875
ell 313, elapsed: 0.0004589557647705078
ell 312, elapsed: 0.000453948974609375
ell 311, elapsed: 0.0004589557647705078
ell 310, elapsed: 0.0004520416259765625
ell 309, elapsed: 0.0004520416259765625
ell 308, elapsed: 0.0004420280456542969
ell 307, elapsed: 0.00034999847412109375
ell 306, elapsed: 0.00035190582275390625
ell 305, elapsed: 0.0003101825714111328
ell 304, elapsed: 0.0003120899200439453
ell 303, elapsed: 0.0003159046173095703
ell 302, elapsed: 0.0003628730773925781
ell 301, elapsed: 0.0004749298095703125
ell 300, elapsed: 0.0004379749298095703
ell 299, elapsed: 0.0004279613494873047
ell 298, elapsed: 0.0003910064697265625
ell 297, elapsed: 0.00039315223693847656
ell 296, elapsed: 0.00038695335388183594
ell 295, elapsed: 0.00036978721618652344
ell 294, elapsed: 0.00036716461181640625
ell 293, elapsed: 0.0003609657287597656
ell 292, elapsed: 0.0003750324249267578
ell 291, elapsed: 0.00032901763916015625
ell 290, elapsed: 0.0004849433898925781
ell 289, elapsed: 0.0004470348358154297
ell 288, elapsed: 0.0004379749298095703
ell 287, elapsed: 0.00032806396484375
ell 286, elapsed: 0.0004639625549316406
ell 285, elapsed: 0.0004589557647705078
ell 284, elapsed: 0.0004620552062988281
ell 283, elapsed: 0.0004589557647705078
ell 282, elapsed: 0.0004570484161376953
ell 281, elapsed: 0.0004558563232421875
ell 280, elapsed: 0.0003800392150878906
ell 279, elapsed: 0.0003540515899658203
ell 278, elapsed: 0.0002961158752441406
ell 277, elapsed: 0.00030612945556640625
ell 276, elapsed: 0.00030112266540527344
ell 275, elapsed: 0.00029778480529785156
ell 274, elapsed: 0.00031495094299316406
ell 273, elapsed: 0.000392913818359375
ell 272, elapsed: 0.0003859996795654297
ell 271, elapsed: 0.000392913818359375
ell 270, elapsed: 0.00038886070251464844
ell 269, elapsed: 0.00039887428283691406
ell 268, elapsed: 0.0004248619079589844
ell 267, elapsed: 0.00042700767517089844
ell 266, elapsed: 0.00045800209045410156
ell 265, elapsed: 0.000392913818359375
ell 264, elapsed: 0.00042700767517089844
ell 263, elapsed: 0.0004451274871826172
ell 262, elapsed: 0.0004241466522216797
ell 261, elapsed: 0.00045490264892578125
ell 260, elapsed: 0.00040411949157714844
ell 259, elapsed: 0.0003910064697265625
ell 258, elapsed: 0.00038814544677734375
ell 257, elapsed: 0.00039505958557128906
ell 256, elapsed: 0.00039505958557128906
ell 255, elapsed: 0.0004382133483886719
ell 254, elapsed: 0.0004448890686035156
ell 253, elapsed: 0.0003910064697265625
ell 252, elapsed: 0.0003981590270996094
ell 251, elapsed: 0.0004420280456542969
ell 250, elapsed: 0.0004508495330810547
ell 249, elapsed: 0.00045108795166015625
ell 248, elapsed: 0.00044608116149902344
ell 247, elapsed: 0.00045299530029296875
ell 246, elapsed: 0.00044608116149902344
ell 245, elapsed: 0.000453948974609375
ell 244, elapsed: 0.0004379749298095703
ell 243, elapsed: 0.000469207763671875
ell 242, elapsed: 0.00045490264892578125
ell 241, elapsed: 0.00045013427734375
ell 240, elapsed: 0.00039196014404296875
ell 239, elapsed: 0.0004260540008544922
ell 238, elapsed: 0.0004448890686035156
ell 237, elapsed: 0.00043892860412597656
ell 236, elapsed: 0.0004451274871826172
ell 235, elapsed: 0.00045800209045410156
ell 234, elapsed: 0.0004508495330810547
ell 233, elapsed: 0.0004360675811767578
ell 232, elapsed: 0.0003979206085205078
ell 231, elapsed: 0.00044918060302734375
ell 230, elapsed: 0.0005018711090087891
ell 229, elapsed: 0.0004940032958984375
ell 228, elapsed: 0.0004928112030029297
ell 227, elapsed: 0.0005168914794921875
ell 226, elapsed: 0.0004949569702148438
ell 225, elapsed: 0.0005028247833251953
ell 224, elapsed: 0.0004889965057373047
ell 223, elapsed: 0.0004889965057373047
ell 222, elapsed: 0.0004918575286865234
ell 221, elapsed: 0.000492095947265625
ell 220, elapsed: 0.0005068778991699219
ell 219, elapsed: 0.0004930496215820312
ell 218, elapsed: 0.00048804283142089844
ell 217, elapsed: 0.0004889965057373047
ell 216, elapsed: 0.0004911422729492188
ell 215, elapsed: 0.000492095947265625
ell 214, elapsed: 0.0004899501800537109
ell 213, elapsed: 0.0005190372467041016
ell 212, elapsed: 0.0004951953887939453
ell 211, elapsed: 0.0004909038543701172
ell 210, elapsed: 0.0004878044128417969
ell 209, elapsed: 0.0004930496215820312
ell 208, elapsed: 0.0004928112030029297
ell 207, elapsed: 0.0004980564117431641
ell 206, elapsed: 0.0004889965057373047
ell 205, elapsed: 0.000514984130859375
ell 204, elapsed: 0.0004911422729492188
ell 203, elapsed: 0.0004990100860595703
ell 202, elapsed: 0.000492095947265625
ell 201, elapsed: 0.0004940032958984375
ell 200, elapsed: 0.0004940032958984375
ell 199, elapsed: 0.0004918575286865234
ell 198, elapsed: 0.0005018711090087891
ell 197, elapsed: 0.0004911422729492188
ell 196, elapsed: 0.0004930496215820312
ell 195, elapsed: 0.0005021095275878906
ell 194, elapsed: 0.0004940032958984375
ell 193, elapsed: 0.0004918575286865234
ell 192, elapsed: 0.0004889965057373047
ell 191, elapsed: 0.0005099773406982422
ell 190, elapsed: 0.0004999637603759766
ell 189, elapsed: 0.0004849433898925781
ell 188, elapsed: 0.0004940032958984375
ell 187, elapsed: 0.00048804283142089844
ell 186, elapsed: 0.0004899501800537109
ell 185, elapsed: 0.0004899501800537109
ell 184, elapsed: 0.0005099773406982422
ell 183, elapsed: 0.000492095947265625
ell 182, elapsed: 0.0004978179931640625
ell 181, elapsed: 0.0004870891571044922
ell 180, elapsed: 0.0004930496215820312
ell 179, elapsed: 0.0004918575286865234
ell 178, elapsed: 0.00049591064453125
ell 177, elapsed: 0.0004870891571044922
ell 176, elapsed: 0.0005037784576416016
ell 175, elapsed: 0.0004918575286865234
ell 174, elapsed: 0.0004918575286865234
ell 173, elapsed: 0.0004889965057373047
ell 172, elapsed: 0.0004909038543701172
ell 171, elapsed: 0.0004940032958984375
ell 170, elapsed: 0.0004911422729492188
ell 169, elapsed: 0.0005009174346923828
ell 168, elapsed: 0.0004980564117431641
ell 167, elapsed: 0.00048804283142089844
ell 166, elapsed: 0.00049591064453125
ell 165, elapsed: 0.00048613548278808594
ell 164, elapsed: 0.0004868507385253906
ell 163, elapsed: 0.0004930496215820312
ell 162, elapsed: 0.0005061626434326172
ell 161, elapsed: 0.0005040168762207031
ell 160, elapsed: 0.0004930496215820312
ell 159, elapsed: 0.0004940032958984375
ell 158, elapsed: 0.0004980564117431641
ell 157, elapsed: 0.0004971027374267578
ell 156, elapsed: 0.0005018711090087891
ell 155, elapsed: 0.0005140304565429688
ell 154, elapsed: 0.0004928112030029297
ell 153, elapsed: 0.0004940032958984375
ell 152, elapsed: 0.0004930496215820312
ell 151, elapsed: 0.0004980564117431641
ell 150, elapsed: 0.0004911422729492188
ell 149, elapsed: 0.00048804283142089844
ell 148, elapsed: 0.0004889965057373047
ell 147, elapsed: 0.0005049705505371094
ell 146, elapsed: 0.0004909038543701172
ell 145, elapsed: 0.0005681514739990234
ell 144, elapsed: 0.0005629062652587891
ell 143, elapsed: 0.0005648136138916016
ell 142, elapsed: 0.0005629062652587891
ell 141, elapsed: 0.0005638599395751953
ell 140, elapsed: 0.0005462169647216797
ell 139, elapsed: 0.0005741119384765625
ell 138, elapsed: 0.0005559921264648438
ell 137, elapsed: 0.0005600452423095703
ell 136, elapsed: 0.0005140304565429688
ell 135, elapsed: 0.000492095947265625
ell 134, elapsed: 0.0004930496215820312
ell 133, elapsed: 0.0004930496215820312
ell 132, elapsed: 0.0004949569702148438
ell 131, elapsed: 0.0004980564117431641
ell 130, elapsed: 0.0004899501800537109
ell 129, elapsed: 0.0005300045013427734
ell 128, elapsed: 0.0004990100860595703
ell 127, elapsed: 0.0005650520324707031
ell 126, elapsed: 0.0005090236663818359
ell 125, elapsed: 0.0004889965057373047
ell 124, elapsed: 0.0004990100860595703
ell 123, elapsed: 0.0005030632019042969
ell 122, elapsed: 0.0005519390106201172
ell 121, elapsed: 0.0004811286926269531
ell 120, elapsed: 0.0004630088806152344
ell 119, elapsed: 0.00040984153747558594
ell 118, elapsed: 0.00040602684020996094
ell 117, elapsed: 0.0004119873046875
ell 116, elapsed: 0.000415802001953125
ell 115, elapsed: 0.0004241466522216797
ell 114, elapsed: 0.0004220008850097656
ell 113, elapsed: 0.0004119873046875
ell 112, elapsed: 0.0004169940948486328
ell 111, elapsed: 0.00041794776916503906
ell 110, elapsed: 0.00043392181396484375
ell 109, elapsed: 0.00046706199645996094
ell 108, elapsed: 0.0004241466522216797
ell 107, elapsed: 0.00041985511779785156
ell 106, elapsed: 0.0004918575286865234
ell 105, elapsed: 0.0004589557647705078
ell 104, elapsed: 0.00041604042053222656
ell 103, elapsed: 0.0004138946533203125
ell 102, elapsed: 0.0004220008850097656
ell 101, elapsed: 0.00041294097900390625
ell 100, elapsed: 0.0004439353942871094
ell 99, elapsed: 0.00047087669372558594
ell 98, elapsed: 0.0004940032958984375
ell 97, elapsed: 0.0004229545593261719
ell 96, elapsed: 0.00041794776916503906
ell 95, elapsed: 0.00041604042053222656
ell 94, elapsed: 0.00041294097900390625
ell 93, elapsed: 0.0004150867462158203
ell 92, elapsed: 0.00041794776916503906
ell 91, elapsed: 0.0004119873046875
ell 90, elapsed: 0.00041604042053222656
ell 89, elapsed: 0.00044798851013183594
ell 88, elapsed: 0.00047206878662109375
ell 87, elapsed: 0.0004260540008544922
ell 86, elapsed: 0.0004169940948486328
ell 85, elapsed: 0.0004611015319824219
ell 84, elapsed: 0.000453948974609375
ell 83, elapsed: 0.0004229545593261719
ell 82, elapsed: 0.00041294097900390625
ell 81, elapsed: 0.0004780292510986328
ell 80, elapsed: 0.0004229545593261719
ell 79, elapsed: 0.0004169940948486328
ell 78, elapsed: 0.00041484832763671875
ell 77, elapsed: 0.0004241466522216797
ell 76, elapsed: 0.00041294097900390625
ell 75, elapsed: 0.0004181861877441406
ell 74, elapsed: 0.000415802001953125
ell 73, elapsed: 0.0004329681396484375
ell 72, elapsed: 0.0004401206970214844
ell 71, elapsed: 0.00046706199645996094
ell 70, elapsed: 0.00047397613525390625
ell 69, elapsed: 0.0004172325134277344
ell 68, elapsed: 0.0004570484161376953
ell 67, elapsed: 0.0004730224609375
ell 66, elapsed: 0.0004718303680419922
ell 65, elapsed: 0.00047707557678222656
ell 64, elapsed: 0.00046515464782714844
ell 63, elapsed: 0.00046896934509277344
ell 62, elapsed: 0.00041604042053222656
ell 61, elapsed: 0.00044417381286621094
ell 60, elapsed: 0.0004839897155761719
ell 59, elapsed: 0.00047087669372558594
ell 58, elapsed: 0.0004680156707763672
ell 57, elapsed: 0.0004949569702148438
ell 56, elapsed: 0.00041484832763671875
ell 55, elapsed: 0.00045108795166015625
ell 54, elapsed: 0.0004699230194091797
ell 53, elapsed: 0.0004439353942871094
ell 52, elapsed: 0.00047397613525390625
ell 51, elapsed: 0.00040793418884277344
ell 50, elapsed: 0.0004119873046875
ell 49, elapsed: 0.0004210472106933594
ell 48, elapsed: 0.00041294097900390625
ell 47, elapsed: 0.0004100799560546875
ell 46, elapsed: 0.0004100799560546875
ell 45, elapsed: 0.0004520416259765625
ell 44, elapsed: 0.0004801750183105469
ell 43, elapsed: 0.0004107952117919922
ell 42, elapsed: 0.00041484832763671875
ell 41, elapsed: 0.00040793418884277344
ell 40, elapsed: 0.00043582916259765625
ell 39, elapsed: 0.0004088878631591797
ell 38, elapsed: 0.0004220008850097656
ell 37, elapsed: 0.00041103363037109375
ell 36, elapsed: 0.0004150867462158203
ell 35, elapsed: 0.00041604042053222656
ell 34, elapsed: 0.00047898292541503906
ell 33, elapsed: 0.00048804283142089844
ell 32, elapsed: 0.0005021095275878906
ell 31, elapsed: 0.00047016143798828125
ell 30, elapsed: 0.000408172607421875
ell 29, elapsed: 0.00041413307189941406
ell 28, elapsed: 0.00040984153747558594
ell 27, elapsed: 0.0004630088806152344
ell 26, elapsed: 0.0004489421844482422
ell 25, elapsed: 0.0004811286926269531
ell 24, elapsed: 0.0004909038543701172
ell 23, elapsed: 0.0004551410675048828
ell 22, elapsed: 0.00045180320739746094
ell 21, elapsed: 0.0004620552062988281
ell 20, elapsed: 0.00046181678771972656
ell 19, elapsed: 0.0004601478576660156
ell 18, elapsed: 0.00044918060302734375
ell 17, elapsed: 0.0004451274871826172
ell 16, elapsed: 0.0004639625549316406
ell 15, elapsed: 0.00044608116149902344
ell 14, elapsed: 0.00043582916259765625
ell 13, elapsed: 0.0004470348358154297
ell 12, elapsed: 0.00043892860412597656
ell 11, elapsed: 0.00045108795166015625
ell 10, elapsed: 0.0004448890686035156
ell 9, elapsed: 0.00047516822814941406
ell 8, elapsed: 0.0004761219024658203
ell 7, elapsed: 0.0004711151123046875
ell 6, elapsed: 0.00045609474182128906
ell 5, elapsed: 0.0004379749298095703
ell 4, elapsed: 0.0004429817199707031
ell 3, elapsed: 0.0004410743713378906
ell 2, elapsed: 0.000469207763671875
ell 1, elapsed: 0.0004570484161376953
ell 0, elapsed: 0.0004398822784423828
  0.545538 seconds (103.99 k allocations: 3.976 MiB)
elapsed: 0.0005428791046142578
step:          0.06247 sec (0 allocations: 0 byte, 0.0% gc time)
swapping:      0.000508 sec (0 allocations: 0 byte, 0.0% gc time)
calc_Mellell!: 0.007935 sec (0 allocations: 0 byte, 0.0% gc time)
  t0 :  0.00151 sec (0 allocations: 0 byte, 0.0% gc time)
  tm2 : 0.089134 sec (0 allocations: 0 byte, 0.0% gc time)
  tm2s: 0.001107 sec (0 allocations: 0 byte, 0.0% gc time)
  tm4 : 0.218717 sec (0 allocations: 0 byte, 0.0% gc time)
  tp2 : 0.0 sec (0 allocations: 0 byte, 0.0% gc time)
  tp2s: 0.0 sec (0 allocations: 0 byte, 0.0% gc time)
  tp4 : 0.0 sec (0 allocations: 0 byte, 0.0% gc time)
calc_wtdll!:   0.335103 sec (9.9 k allocations: 1.047 MB, 0.0% gc time)
calc_wljj!:    0.030042 sec (689 allocations: 10.766 KB, 0.0% gc time)
mult_prefac!:  0.0 sec (0 allocations: 0 byte, 0.0% gc time)
convert:       0.0 sec (0 allocations: 0 byte, 0.0% gc time)
write:         0.036473 sec (0 allocations: 0 byte, 0.0% gc time)
test_rand_2f1: 0.0 sec (0 allocations: 0 byte, 0.0% gc time)
Closing outfile out/Ml21-cache.bin...   0.000006 seconds
  0.000368 seconds (36 allocations: 27.953 KiB)
make_phi():   0.001774 seconds (8.18 k allocations: 237.844 KiB)
  0.143482 seconds (141.90 k allocations: 3.483 MiB)
tskip:       0.000697 sec (0 allocations: 0 byte, 0.0% gc time)
tread:       0.023829 sec (17 allocations: 10.641 KB, 0.0% gc time)
tmultphi:    0.01078 sec (0 allocations: 0 byte, 0.0% gc time)
tbrfft:      0.034252 sec (0 allocations: 0 byte, 0.0% gc time)
tmultprefac: 0.030099 sec (0 allocations: 0 byte, 0.0% gc time)
toutfunc:    0.041023 sec (127.507 k allocations: 2.312 MB, 0.0% gc time)
Testing R=1.0 ... passed
Calculating fmax: 
  dlrec    = 4
  dlrecRg1 = -4
  q=1.1, R=0.9:	  0.482431 seconds (105.76 k allocations: 15.287 MiB)

  0.482757 seconds (105.98 k allocations: 15.323 MiB)
ℓ = 1202
Δℓ = 4
ΔℓRg1 = -4
N = 1600
q = 1.1
kmin = 1.0e-5
kmax = 100000.00000000004
χ0 = 0.023029999999999995
RR = RR.tsv
ℓmax = ℓmax.bin
f21 = f21.bin
kmin = 1.0e-5
kmax = 100000.0
dlrec    = 4
dlrecRg1 = -4
Output size: 5741568 bytes = 0.005347251892089844 GiB
Output size: 51264 bytes = 4.774332046508789e-5 GiB
Reading 'out/F21EllCache'...   0.001029 seconds (197 allocations: 84.203 KiB)
ellmax: 1202
lmaxcache: 1202
fell[:,1,1] = ComplexF64[1.3482014726274674e-57 - 3.302141236118086e-73im, 1.357860004724329e-57 - 3.3257978169518355e-73im]
ell 1202, elapsed: 2.288818359375e-5
ell 1201, elapsed: 0.0004239082336425781
ell 1200, elapsed: 0.0004210472106933594
ell 1199, elapsed: 0.0004000663757324219
ell 1198, elapsed: 0.0003991127014160156
ell 1002, elapsed: 0.009619951248168945
ell 1001, elapsed: 0.00026679039001464844
ell 1000, elapsed: 0.00026297569274902344
ell 999, elapsed: 0.00026297569274902344
ell 998, elapsed: 0.00026106834411621094
ell 902, elapsed: 0.004575014114379883
ell 901, elapsed: 0.0002570152282714844
ell 900, elapsed: 0.0002598762512207031
ell 899, elapsed: 0.0002579689025878906
ell 898, elapsed: 0.0002579689025878906
ell 802, elapsed: 0.004509925842285156
ell 801, elapsed: 0.0002579689025878906
ell 800, elapsed: 0.00025916099548339844
ell 799, elapsed: 0.00025916099548339844
ell 798, elapsed: 0.0002579689025878906
ell 702, elapsed: 0.004557132720947266
ell 701, elapsed: 0.0002601146697998047
ell 700, elapsed: 0.0002601146697998047
ell 699, elapsed: 0.0002579689025878906
ell 698, elapsed: 0.0002570152282714844
ell 602, elapsed: 0.004511833190917969
ell 601, elapsed: 0.0002579689025878906
ell 600, elapsed: 0.0002598762512207031
ell 599, elapsed: 0.0002589225769042969
ell 598, elapsed: 0.0002570152282714844
ell 502, elapsed: 0.004514932632446289
ell 501, elapsed: 0.0002589225769042969
ell 500, elapsed: 0.00025916099548339844
ell 499, elapsed: 0.00025916099548339844
ell 498, elapsed: 0.0002579689025878906
ell 402, elapsed: 0.00451207160949707
ell 401, elapsed: 0.0002589225769042969
ell 400, elapsed: 0.0002598762512207031
ell 399, elapsed: 0.00026106834411621094
ell 398, elapsed: 0.0002658367156982422
ell 302, elapsed: 0.004530191421508789
ell 301, elapsed: 0.00026106834411621094
ell 300, elapsed: 0.00026297569274902344
ell 299, elapsed: 0.00026416778564453125
ell 298, elapsed: 0.00027179718017578125
ell 202, elapsed: 0.004518032073974609
ell 201, elapsed: 0.00026297569274902344
ell 200, elapsed: 0.0002639293670654297
ell 199, elapsed: 0.0002608299255371094
ell 198, elapsed: 0.0002620220184326172
ell 152, elapsed: 0.0023059844970703125
ell 151, elapsed: 0.0002608299255371094
ell 150, elapsed: 0.0002620220184326172
ell 149, elapsed: 0.0002598762512207031
ell 148, elapsed: 0.0002601146697998047
ell 127, elapsed: 0.001190185546875
ell 126, elapsed: 0.00026106834411621094
ell 125, elapsed: 0.00026106834411621094
ell 124, elapsed: 0.0002589225769042969
ell 123, elapsed: 0.0002589225769042969
ell 114, elapsed: 0.0006651878356933594
ell 113, elapsed: 0.0002589225769042969
ell 112, elapsed: 0.0002579689025878906
ell 111, elapsed: 0.0002589225769042969
ell 110, elapsed: 0.0002601146697998047
ell 102, elapsed: 0.0006160736083984375
ell 101, elapsed: 0.0002579689025878906
ell 100, elapsed: 0.00025916099548339844
ell 99, elapsed: 0.0002582073211669922
ell 98, elapsed: 0.0002601146697998047
ell 97, elapsed: 0.0003020763397216797
ell 96, elapsed: 0.0002989768981933594
ell 95, elapsed: 0.0003101825714111328
ell 94, elapsed: 0.0003001689910888672
ell 93, elapsed: 0.00030517578125
ell 92, elapsed: 0.00030112266540527344
ell 91, elapsed: 0.0002980232238769531
ell 90, elapsed: 0.000308990478515625
ell 89, elapsed: 0.0003001689910888672
ell 88, elapsed: 0.0003058910369873047
ell 87, elapsed: 0.0003008842468261719
ell 86, elapsed: 0.00030303001403808594
ell 85, elapsed: 0.0003070831298828125
ell 84, elapsed: 0.0003120899200439453
ell 83, elapsed: 0.0003371238708496094
ell 82, elapsed: 0.0003528594970703125
ell 81, elapsed: 0.0004069805145263672
ell 80, elapsed: 0.0004248619079589844
ell 79, elapsed: 0.0003769397735595703
ell 78, elapsed: 0.0004820823669433594
ell 77, elapsed: 0.0004620552062988281
ell 76, elapsed: 0.0004639625549316406
ell 75, elapsed: 0.0004830360412597656
ell 74, elapsed: 0.00045990943908691406
ell 73, elapsed: 0.0004630088806152344
ell 72, elapsed: 0.0003879070281982422
ell 71, elapsed: 0.0003628730773925781
ell 70, elapsed: 0.0003821849822998047
ell 69, elapsed: 0.0004639625549316406
ell 68, elapsed: 0.00046896934509277344
ell 67, elapsed: 0.00047898292541503906
ell 66, elapsed: 0.0004730224609375
ell 65, elapsed: 0.0004649162292480469
ell 64, elapsed: 0.00047707557678222656
ell 63, elapsed: 0.0004711151123046875
ell 62, elapsed: 0.000453948974609375
ell 61, elapsed: 0.0004570484161376953
ell 60, elapsed: 0.0004508495330810547
ell 59, elapsed: 0.0004889965057373047
ell 58, elapsed: 0.0004570484161376953
ell 57, elapsed: 0.00045609474182128906
ell 56, elapsed: 0.00045609474182128906
ell 55, elapsed: 0.000453948974609375
ell 54, elapsed: 0.00044989585876464844
ell 53, elapsed: 0.0004589557647705078
ell 52, elapsed: 0.0004520416259765625
ell 51, elapsed: 0.0004229545593261719
ell 50, elapsed: 0.00033783912658691406
ell 49, elapsed: 0.00030303001403808594
ell 48, elapsed: 0.00035119056701660156
ell 47, elapsed: 0.00046896934509277344
ell 46, elapsed: 0.0004620552062988281
ell 45, elapsed: 0.00044798851013183594
ell 44, elapsed: 0.000392913818359375
ell 43, elapsed: 0.00047397613525390625
ell 42, elapsed: 0.0005140304565429688
ell 41, elapsed: 0.0004711151123046875
ell 40, elapsed: 0.0004611015319824219
ell 39, elapsed: 0.0004608631134033203
ell 38, elapsed: 0.0004630088806152344
ell 37, elapsed: 0.00045990943908691406
ell 36, elapsed: 0.00045990943908691406
ell 35, elapsed: 0.00035500526428222656
ell 34, elapsed: 0.00036406517028808594
ell 33, elapsed: 0.0003299713134765625
ell 32, elapsed: 0.0004489421844482422
ell 31, elapsed: 0.0004799365997314453
ell 30, elapsed: 0.0003750324249267578
ell 29, elapsed: 0.00035500526428222656
ell 28, elapsed: 0.0003159046173095703
ell 27, elapsed: 0.0003058910369873047
ell 26, elapsed: 0.00030994415283203125
ell 25, elapsed: 0.0003139972686767578
ell 24, elapsed: 0.0003070831298828125
ell 23, elapsed: 0.000308990478515625
ell 22, elapsed: 0.00030684471130371094
ell 21, elapsed: 0.0003120899200439453
ell 20, elapsed: 0.00030803680419921875
ell 19, elapsed: 0.00030517578125
ell 18, elapsed: 0.0003108978271484375
ell 17, elapsed: 0.0003039836883544922
ell 16, elapsed: 0.00030994415283203125
ell 15, elapsed: 0.00030303001403808594
ell 14, elapsed: 0.000308990478515625
ell 13, elapsed: 0.00031495094299316406
ell 12, elapsed: 0.00030612945556640625
ell 11, elapsed: 0.000308990478515625
ell 10, elapsed: 0.00030684471130371094
ell 9, elapsed: 0.00030922889709472656
ell 8, elapsed: 0.00030803680419921875
ell 7, elapsed: 0.0003039836883544922
ell 6, elapsed: 0.000308990478515625
ell 5, elapsed: 0.00030803680419921875
ell 4, elapsed: 0.0003108978271484375
ell 3, elapsed: 0.00030493736267089844
ell 2, elapsed: 0.00032806396484375
ell 1, elapsed: 0.00046515464782714844
ell 0, elapsed: 0.00045418739318847656
  0.110402 seconds (19.72 k allocations: 847.938 KiB)
elapsed: 0.0005469322204589844
step:          0.053583 sec (0 allocations: 0 byte, 0.0% gc time)
swapping:      0.000274 sec (0 allocations: 0 byte, 0.0% gc time)
calc_Mellell!: 0.000976 sec (0 allocations: 0 byte, 0.0% gc time)
  t0 :  0.000218 sec (0 allocations: 0 byte, 0.0% gc time)
  tm2 : 0.011846 sec (0 allocations: 0 byte, 0.0% gc time)
  tm2s: 0.000158 sec (0 allocations: 0 byte, 0.0% gc time)
  tm4 : 0.027178 sec (0 allocations: 0 byte, 0.0% gc time)
  tp2 : 0.0 sec (0 allocations: 0 byte, 0.0% gc time)
  tp2s: 0.0 sec (0 allocations: 0 byte, 0.0% gc time)
  tp4 : 0.0 sec (0 allocations: 0 byte, 0.0% gc time)
calc_wtdll!:   0.03975 sec (1.344 k allocations: 147.0 KB, 0.0% gc time)
calc_wljj!:    0.002588 sec (6 allocations: 96 byte, 0.0% gc time)
mult_prefac!:  0.0 sec (0 allocations: 0 byte, 0.0% gc time)
convert:       0.0 sec (0 allocations: 0 byte, 0.0% gc time)
write:         0.00321 sec (0 allocations: 0 byte, 0.0% gc time)
test_rand_2f1: 0.0 sec (0 allocations: 0 byte, 0.0% gc time)
Closing outfile out/Ml21-cache.bin...   0.000006 seconds
  0.000177 seconds (36 allocations: 27.953 KiB)
make_phi():   0.001720 seconds (8.18 k allocations: 237.844 KiB)
  0.011300 seconds (11.65 k allocations: 308.688 KiB)
tskip:       1.3e-5 sec (0 allocations: 0 byte, 0.0% gc time)
tread:       0.002187 sec (17 allocations: 2.125 KB, 0.0% gc time)
tmultphi:    0.000788 sec (0 allocations: 0 byte, 0.0% gc time)
tbrfft:      0.0027 sec (0 allocations: 0 byte, 0.0% gc time)
tmultprefac: 0.002327 sec (0 allocations: 0 byte, 0.0% gc time)
toutfunc:    0.003124 sec (10.304 k allocations: 196.0 KB, 0.0% gc time)
Testing R=0.9 ... passed
Calculating fmax: 
  dlrec    = 4
  dlrecRg1 = -4
  q=1.1, R=0.8:	  0.388710 seconds (103.25 k allocations: 14.856 MiB)

  0.388960 seconds (103.48 k allocations: 14.893 MiB)
ℓ = 1202
Δℓ = 4
ΔℓRg1 = -4
N = 1600
q = 1.1
kmin = 1.0e-5
kmax = 100000.00000000004
χ0 = 0.023029999999999995
RR = RR.tsv
ℓmax = ℓmax.bin
f21 = f21.bin
kmin = 1.0e-5
kmax = 100000.0
dlrec    = 4
dlrecRg1 = -4
Output size: 5741568 bytes = 0.005347251892089844 GiB
Output size: 51264 bytes = 4.774332046508789e-5 GiB
Reading 'out/F21EllCache'...   0.000885 seconds (197 allocations: 84.203 KiB)
ellmax: 1202
lmaxcache: 1202
fell[:,1,1] = ComplexF64[7.519068145690986e-120 - 1.8416405474382574e-135im, 7.541664537386155e-120 - 1.847175067190611e-135im]
ell 1202, elapsed: 3.3855438232421875e-5
ell 1201, elapsed: 0.0003418922424316406
ell 1200, elapsed: 0.0002658367156982422
ell 1199, elapsed: 0.000270843505859375
ell 1198, elapsed: 0.0002961158752441406
ell 1002, elapsed: 0.009052038192749023
ell 1001, elapsed: 0.00029015541076660156
ell 1000, elapsed: 0.0002701282501220703
ell 999, elapsed: 0.0002701282501220703
ell 998, elapsed: 0.00026488304138183594
ell 902, elapsed: 0.004550933837890625
ell 901, elapsed: 0.00026297569274902344
ell 900, elapsed: 0.00027298927307128906
ell 899, elapsed: 0.00026702880859375
ell 898, elapsed: 0.00026988983154296875
ell 802, elapsed: 0.0045588016510009766
ell 801, elapsed: 0.0002701282501220703
ell 800, elapsed: 0.0002651214599609375
ell 799, elapsed: 0.0002651214599609375
ell 798, elapsed: 0.000263214111328125
ell 702, elapsed: 0.004537105560302734
ell 701, elapsed: 0.0002608299255371094
ell 700, elapsed: 0.0002608299255371094
ell 699, elapsed: 0.0002608299255371094
ell 698, elapsed: 0.0002598762512207031
ell 602, elapsed: 0.005689144134521484
ell 601, elapsed: 0.0003991127014160156
ell 600, elapsed: 0.000392913818359375
ell 599, elapsed: 0.000392913818359375
ell 598, elapsed: 0.0003960132598876953
ell 502, elapsed: 0.00611114501953125
ell 501, elapsed: 0.0003070831298828125
ell 500, elapsed: 0.0003039836883544922
ell 499, elapsed: 0.00037407875061035156
ell 498, elapsed: 0.00039196014404296875
ell 402, elapsed: 0.004637002944946289
ell 401, elapsed: 0.00027108192443847656
ell 400, elapsed: 0.00026798248291015625
ell 399, elapsed: 0.00028896331787109375
ell 398, elapsed: 0.0003039836883544922
ell 302, elapsed: 0.0046880245208740234
ell 301, elapsed: 0.00031304359436035156
ell 300, elapsed: 0.00041294097900390625
ell 299, elapsed: 0.0004019737243652344
ell 298, elapsed: 0.0004019737243652344
ell 202, elapsed: 0.006190061569213867
ell 201, elapsed: 0.0004019737243652344
ell 200, elapsed: 0.0004000663757324219
ell 199, elapsed: 0.0004000663757324219
ell 198, elapsed: 0.0003979206085205078
ell 152, elapsed: 0.0027179718017578125
ell 151, elapsed: 0.0002689361572265625
ell 150, elapsed: 0.00026702880859375
ell 149, elapsed: 0.00026607513427734375
ell 148, elapsed: 0.00026702880859375
ell 127, elapsed: 0.0012090206146240234
ell 126, elapsed: 0.0002651214599609375
ell 125, elapsed: 0.00026607513427734375
ell 124, elapsed: 0.00026488304138183594
ell 123, elapsed: 0.00026702880859375
ell 114, elapsed: 0.0006661415100097656
ell 113, elapsed: 0.0002579689025878906
ell 112, elapsed: 0.0002598762512207031
ell 111, elapsed: 0.0002639293670654297
ell 110, elapsed: 0.0002639293670654297
ell 102, elapsed: 0.0006229877471923828
ell 101, elapsed: 0.00027298927307128906
ell 100, elapsed: 0.0002651214599609375
ell 99, elapsed: 0.0002651214599609375
ell 98, elapsed: 0.00026607513427734375
ell 97, elapsed: 0.00031304359436035156
ell 96, elapsed: 0.00030803680419921875
ell 95, elapsed: 0.0003108978271484375
ell 94, elapsed: 0.00031113624572753906
ell 93, elapsed: 0.00031304359436035156
ell 92, elapsed: 0.0003077983856201172
ell 91, elapsed: 0.00031495094299316406
ell 90, elapsed: 0.00030684471130371094
ell 89, elapsed: 0.0003230571746826172
ell 88, elapsed: 0.00030803680419921875
ell 87, elapsed: 0.00030803680419921875
ell 86, elapsed: 0.0003039836883544922
ell 85, elapsed: 0.0002949237823486328
ell 84, elapsed: 0.0003070831298828125
ell 83, elapsed: 0.0002970695495605469
ell 82, elapsed: 0.0002980232238769531
ell 81, elapsed: 0.0003039836883544922
ell 80, elapsed: 0.00030684471130371094
ell 79, elapsed: 0.00030684471130371094
ell 78, elapsed: 0.00030422210693359375
ell 77, elapsed: 0.00031495094299316406
ell 76, elapsed: 0.00030994415283203125
ell 75, elapsed: 0.0003020763397216797
ell 74, elapsed: 0.000308990478515625
ell 73, elapsed: 0.0003020763397216797
ell 72, elapsed: 0.0003039836883544922
ell 71, elapsed: 0.00030684471130371094
ell 70, elapsed: 0.0003058910369873047
ell 69, elapsed: 0.00030803680419921875
ell 68, elapsed: 0.0003039836883544922
ell 67, elapsed: 0.00031304359436035156
ell 66, elapsed: 0.000308990478515625
ell 65, elapsed: 0.0003120899200439453
ell 64, elapsed: 0.00030684471130371094
ell 63, elapsed: 0.0003001689910888672
ell 62, elapsed: 0.0003008842468261719
ell 61, elapsed: 0.00030684471130371094
ell 60, elapsed: 0.0002980232238769531
ell 59, elapsed: 0.0003077983856201172
ell 58, elapsed: 0.0002999305725097656
ell 57, elapsed: 0.00030493736267089844
ell 56, elapsed: 0.0003020763397216797
ell 55, elapsed: 0.00030303001403808594
ell 54, elapsed: 0.00030493736267089844
ell 53, elapsed: 0.00030994415283203125
ell 52, elapsed: 0.00030493736267089844
ell 51, elapsed: 0.0003008842468261719
[...]
ell 789, elapsed: 0.0007388591766357422
ell 788, elapsed: 0.0007560253143310547
ell 782, elapsed: 0.0014469623565673828
ell 781, elapsed: 0.0007290840148925781
ell 780, elapsed: 0.0006830692291259766
ell 779, elapsed: 0.000701904296875
ell 778, elapsed: 0.0007250308990478516
ell 772, elapsed: 0.0014619827270507812
ell 771, elapsed: 0.0007550716400146484
ell 770, elapsed: 0.0006799697875976562
ell 769, elapsed: 0.0007131099700927734
ell 768, elapsed: 0.00074005126953125
ell 762, elapsed: 0.0013620853424072266
ell 761, elapsed: 0.0007650852203369141
ell 760, elapsed: 0.0007390975952148438
ell 759, elapsed: 0.000743865966796875
ell 758, elapsed: 0.0007510185241699219
ell 752, elapsed: 0.001383066177368164
ell 751, elapsed: 0.0007669925689697266
ell 750, elapsed: 0.0007469654083251953
ell 749, elapsed: 0.0007200241088867188
ell 748, elapsed: 0.0007488727569580078
ell 742, elapsed: 0.0013430118560791016
ell 741, elapsed: 0.0007560253143310547
ell 740, elapsed: 0.0007281303405761719
ell 739, elapsed: 0.0007059574127197266
ell 738, elapsed: 0.0007410049438476562
ell 732, elapsed: 0.0013489723205566406
ell 731, elapsed: 0.0007350444793701172
ell 730, elapsed: 0.0007331371307373047
ell 729, elapsed: 0.0007159709930419922
ell 728, elapsed: 0.0007381439208984375
ell 722, elapsed: 0.001413106918334961
ell 721, elapsed: 0.0007510185241699219
ell 720, elapsed: 0.0007281303405761719
ell 719, elapsed: 0.0008039474487304688
ell 718, elapsed: 0.0007450580596923828
ell 712, elapsed: 0.0013611316680908203
ell 711, elapsed: 0.0007319450378417969
ell 710, elapsed: 0.0007410049438476562
ell 709, elapsed: 0.0007328987121582031
ell 708, elapsed: 0.0007519721984863281
ell 702, elapsed: 0.001352071762084961
ell 701, elapsed: 0.0007410049438476562
ell 700, elapsed: 0.0007381439208984375
ell 699, elapsed: 0.0007560253143310547
ell 698, elapsed: 0.0007281303405761719
ell 692, elapsed: 0.0013949871063232422
ell 691, elapsed: 0.0007598400115966797
ell 690, elapsed: 0.0007500648498535156
ell 689, elapsed: 0.0007240772247314453
ell 688, elapsed: 0.0007328987121582031
ell 682, elapsed: 0.0014009475708007812
ell 681, elapsed: 0.0007598400115966797
ell 680, elapsed: 0.0007188320159912109
ell 679, elapsed: 0.0007309913635253906
ell 678, elapsed: 0.0008060932159423828
ell 672, elapsed: 0.0014510154724121094
ell 671, elapsed: 0.0007169246673583984
ell 670, elapsed: 0.0007140636444091797
ell 669, elapsed: 0.0007050037384033203
ell 668, elapsed: 0.000720977783203125
ell 662, elapsed: 0.0013840198516845703
ell 661, elapsed: 0.0007710456848144531
ell 660, elapsed: 0.0007390975952148438
ell 659, elapsed: 0.0007359981536865234
ell 658, elapsed: 0.0007390975952148438
ell 652, elapsed: 0.0013430118560791016
ell 651, elapsed: 0.0007350444793701172
ell 650, elapsed: 0.0007331371307373047
ell 649, elapsed: 0.0007371902465820312
ell 648, elapsed: 0.0007598400115966797
ell 642, elapsed: 0.0013699531555175781
ell 641, elapsed: 0.0007138252258300781
ell 640, elapsed: 0.0007131099700927734
ell 639, elapsed: 0.0007278919219970703
ell 638, elapsed: 0.0007350444793701172
ell 632, elapsed: 0.001332998275756836
ell 631, elapsed: 0.0007319450378417969
ell 630, elapsed: 0.0007448196411132812
ell 629, elapsed: 0.0007410049438476562
ell 628, elapsed: 0.000743865966796875
ell 622, elapsed: 0.0013010501861572266
ell 621, elapsed: 0.0007278919219970703
ell 620, elapsed: 0.0007579326629638672
ell 619, elapsed: 0.0007290840148925781
ell 618, elapsed: 0.0007259845733642578
ell 612, elapsed: 0.001344919204711914
ell 611, elapsed: 0.0007688999176025391
ell 610, elapsed: 0.0007290840148925781
ell 609, elapsed: 0.0007240772247314453
ell 608, elapsed: 0.0007290840148925781
ell 602, elapsed: 0.0013539791107177734
ell 601, elapsed: 0.0007369518280029297
ell 600, elapsed: 0.0007460117340087891
ell 599, elapsed: 0.0007450580596923828
ell 598, elapsed: 0.0007309913635253906
ell 592, elapsed: 0.001394033432006836
ell 591, elapsed: 0.0007660388946533203
ell 590, elapsed: 0.0007350444793701172
ell 589, elapsed: 0.0007271766662597656
ell 588, elapsed: 0.0007398128509521484
ell 582, elapsed: 0.0013928413391113281
ell 581, elapsed: 0.0007619857788085938
ell 580, elapsed: 0.0007410049438476562
ell 579, elapsed: 0.0007338523864746094
ell 578, elapsed: 0.0007560253143310547
ell 572, elapsed: 0.0014262199401855469
ell 571, elapsed: 0.0007700920104980469
ell 570, elapsed: 0.0007309913635253906
ell 569, elapsed: 0.000759124755859375
ell 568, elapsed: 0.0007510185241699219
ell 562, elapsed: 0.0013740062713623047
ell 561, elapsed: 0.0007371902465820312
ell 560, elapsed: 0.0007579326629638672
ell 559, elapsed: 0.0007731914520263672
ell 558, elapsed: 0.0008060932159423828
ell 552, elapsed: 0.0013761520385742188
ell 551, elapsed: 0.0007867813110351562
ell 550, elapsed: 0.0008001327514648438
ell 549, elapsed: 0.0007920265197753906
ell 548, elapsed: 0.0007600784301757812
ell 542, elapsed: 0.0014011859893798828
ell 541, elapsed: 0.0008380413055419922
ell 540, elapsed: 0.0007390975952148438
ell 539, elapsed: 0.0007259845733642578
ell 538, elapsed: 0.0007588863372802734
ell 532, elapsed: 0.0013859272003173828
ell 531, elapsed: 0.0007448196411132812
ell 530, elapsed: 0.0007328987121582031
ell 529, elapsed: 0.0007321834564208984
ell 528, elapsed: 0.0007219314575195312
ell 522, elapsed: 0.0013079643249511719
ell 521, elapsed: 0.000720977783203125
ell 520, elapsed: 0.0007729530334472656
ell 519, elapsed: 0.0007541179656982422
ell 518, elapsed: 0.0007328987121582031
ell 512, elapsed: 0.0013458728790283203
ell 511, elapsed: 0.0007681846618652344
ell 510, elapsed: 0.0007181167602539062
ell 509, elapsed: 0.0007379055023193359
ell 508, elapsed: 0.0007441043853759766
ell 502, elapsed: 0.001316070556640625
ell 501, elapsed: 0.0007259845733642578
ell 500, elapsed: 0.0007159709930419922
ell 499, elapsed: 0.0007200241088867188
ell 498, elapsed: 0.0007338523864746094
ell 492, elapsed: 0.0013468265533447266
ell 491, elapsed: 0.0007181167602539062
ell 490, elapsed: 0.0007429122924804688
ell 489, elapsed: 0.0007259845733642578
ell 488, elapsed: 0.0007300376892089844
ell 482, elapsed: 0.001405954360961914
ell 481, elapsed: 0.000759124755859375
ell 480, elapsed: 0.0007369518280029297
ell 479, elapsed: 0.0007250308990478516
ell 478, elapsed: 0.0007500648498535156
ell 472, elapsed: 0.0013799667358398438
ell 471, elapsed: 0.0007319450378417969
ell 470, elapsed: 0.0007388591766357422
ell 469, elapsed: 0.0007350444793701172
ell 468, elapsed: 0.0007150173187255859
ell 462, elapsed: 0.0012919902801513672
ell 461, elapsed: 0.0007178783416748047
ell 460, elapsed: 0.0007920265197753906
ell 459, elapsed: 0.0008060932159423828
ell 458, elapsed: 0.0007331371307373047
ell 452, elapsed: 0.0013248920440673828
ell 451, elapsed: 0.0007212162017822266
ell 450, elapsed: 0.0007479190826416016
ell 449, elapsed: 0.0007269382476806641
ell 448, elapsed: 0.000720977783203125
ell 442, elapsed: 0.0013680458068847656
ell 441, elapsed: 0.0007491111755371094
ell 440, elapsed: 0.0007228851318359375
ell 439, elapsed: 0.0007109642028808594
ell 438, elapsed: 0.0007340908050537109
ell 432, elapsed: 0.001374959945678711
ell 431, elapsed: 0.0008111000061035156
ell 430, elapsed: 0.0007541179656982422
ell 429, elapsed: 0.0007269382476806641
ell 428, elapsed: 0.0007348060607910156
ell 422, elapsed: 0.0014209747314453125
ell 421, elapsed: 0.0007469654083251953
ell 420, elapsed: 0.0007109642028808594
ell 419, elapsed: 0.0007011890411376953
ell 418, elapsed: 0.0007290840148925781
ell 412, elapsed: 0.0013780593872070312
ell 411, elapsed: 0.0007498264312744141
ell 410, elapsed: 0.0007290840148925781
ell 409, elapsed: 0.0007250308990478516
ell 408, elapsed: 0.0007398128509521484
ell 402, elapsed: 0.0013790130615234375
ell 401, elapsed: 0.0007290840148925781
ell 400, elapsed: 0.0007371902465820312
ell 399, elapsed: 0.0007879734039306641
ell 398, elapsed: 0.0007710456848144531
ell 392, elapsed: 0.001344919204711914
ell 391, elapsed: 0.0007288455963134766
ell 390, elapsed: 0.00074005126953125
ell 389, elapsed: 0.0007190704345703125
ell 388, elapsed: 0.0007989406585693359
ell 382, elapsed: 0.0014159679412841797
ell 381, elapsed: 0.0007729530334472656
ell 380, elapsed: 0.0007300376892089844
ell 379, elapsed: 0.0007300376892089844
ell 378, elapsed: 0.0007021427154541016
ell 372, elapsed: 0.0013239383697509766
ell 371, elapsed: 0.0007231235504150391
ell 370, elapsed: 0.0007309913635253906
ell 369, elapsed: 0.0007879734039306641
ell 368, elapsed: 0.0007309913635253906
ell 362, elapsed: 0.0013699531555175781
ell 361, elapsed: 0.0007410049438476562
ell 360, elapsed: 0.0007338523864746094
ell 359, elapsed: 0.0007219314575195312
ell 358, elapsed: 0.000743865966796875
ell 352, elapsed: 0.001444101333618164
ell 351, elapsed: 0.0007867813110351562
ell 350, elapsed: 0.0007929801940917969
ell 349, elapsed: 0.0007960796356201172
ell 348, elapsed: 0.0007910728454589844
ell 342, elapsed: 0.0013840198516845703
ell 341, elapsed: 0.0007328987121582031
ell 340, elapsed: 0.0007460117340087891
ell 339, elapsed: 0.0007181167602539062
ell 338, elapsed: 0.0007729530334472656
ell 332, elapsed: 0.0014820098876953125
ell 331, elapsed: 0.0007801055908203125
ell 330, elapsed: 0.0007340908050537109
ell 329, elapsed: 0.0007297992706298828
ell 328, elapsed: 0.00078582763671875
ell 322, elapsed: 0.0014171600341796875
ell 321, elapsed: 0.0007700920104980469
ell 320, elapsed: 0.0007369518280029297
ell 319, elapsed: 0.0007281303405761719
ell 318, elapsed: 0.0007450580596923828
ell 312, elapsed: 0.001355886459350586
ell 311, elapsed: 0.0007851123809814453
ell 310, elapsed: 0.0008018016815185547
ell 309, elapsed: 0.0008029937744140625
ell 308, elapsed: 0.0007340908050537109
ell 302, elapsed: 0.0014519691467285156
ell 301, elapsed: 0.0007560253143310547
ell 300, elapsed: 0.0007679462432861328
ell 299, elapsed: 0.0007309913635253906
ell 298, elapsed: 0.0007290840148925781
ell 292, elapsed: 0.0013380050659179688
ell 291, elapsed: 0.0007679462432861328
ell 290, elapsed: 0.0007178783416748047
ell 289, elapsed: 0.0007269382476806641
ell 288, elapsed: 0.0007350444793701172
ell 282, elapsed: 0.0013399124145507812
ell 281, elapsed: 0.0007369518280029297
ell 280, elapsed: 0.0007410049438476562
ell 279, elapsed: 0.0007259845733642578
ell 278, elapsed: 0.00074005126953125
ell 272, elapsed: 0.0013599395751953125
ell 271, elapsed: 0.0007278919219970703
ell 270, elapsed: 0.0007390975952148438
ell 269, elapsed: 0.0007309913635253906
ell 268, elapsed: 0.0007479190826416016
ell 262, elapsed: 0.0013461112976074219
ell 261, elapsed: 0.0007181167602539062
ell 260, elapsed: 0.00074005126953125
ell 259, elapsed: 0.0007369518280029297
ell 258, elapsed: 0.0007498264312744141
ell 252, elapsed: 0.0013630390167236328
ell 251, elapsed: 0.0007641315460205078
ell 250, elapsed: 0.0007500648498535156
ell 249, elapsed: 0.0007619857788085938
ell 248, elapsed: 0.0007491111755371094
ell 242, elapsed: 0.0014121532440185547
ell 241, elapsed: 0.0007669925689697266
ell 240, elapsed: 0.0007619857788085938
ell 239, elapsed: 0.0007100105285644531
ell 238, elapsed: 0.0007472038269042969
ell 232, elapsed: 0.0013151168823242188
ell 231, elapsed: 0.0007548332214355469
ell 230, elapsed: 0.0007309913635253906
ell 229, elapsed: 0.0007309913635253906
ell 228, elapsed: 0.00074005126953125
ell 222, elapsed: 0.0013310909271240234
ell 221, elapsed: 0.0007319450378417969
ell 220, elapsed: 0.0007398128509521484
ell 219, elapsed: 0.0007319450378417969
ell 218, elapsed: 0.0007371902465820312
ell 212, elapsed: 0.0013649463653564453
ell 211, elapsed: 0.000720977783203125
ell 210, elapsed: 0.0007419586181640625
ell 209, elapsed: 0.0007197856903076172
ell 208, elapsed: 0.0007398128509521484
ell 202, elapsed: 0.0013229846954345703
ell 201, elapsed: 0.0007331371307373047
ell 200, elapsed: 0.0007388591766357422
ell 199, elapsed: 0.0007259845733642578
ell 198, elapsed: 0.0007441043853759766
ell 192, elapsed: 0.001322031021118164
ell 191, elapsed: 0.0007238388061523438
ell 190, elapsed: 0.0007338523864746094
ell 189, elapsed: 0.0007579326629638672
ell 188, elapsed: 0.0007421970367431641
ell 182, elapsed: 0.0013191699981689453
ell 181, elapsed: 0.0007901191711425781
ell 180, elapsed: 0.0008170604705810547
ell 179, elapsed: 0.0007860660552978516
ell 178, elapsed: 0.0007309913635253906
ell 172, elapsed: 0.0013098716735839844
ell 171, elapsed: 0.0007450580596923828
ell 170, elapsed: 0.0007607936859130859
ell 169, elapsed: 0.0007309913635253906
ell 168, elapsed: 0.0007472038269042969
ell 162, elapsed: 0.0014200210571289062
ell 161, elapsed: 0.0007450580596923828
ell 160, elapsed: 0.0007379055023193359
ell 159, elapsed: 0.0007300376892089844
ell 158, elapsed: 0.0007798671722412109
ell 152, elapsed: 0.0014820098876953125
ell 151, elapsed: 0.0007748603820800781
ell 150, elapsed: 0.0007929801940917969
ell 149, elapsed: 0.0007801055908203125
ell 148, elapsed: 0.0007548332214355469
ell 142, elapsed: 0.0014350414276123047
ell 141, elapsed: 0.0007460117340087891
ell 140, elapsed: 0.0007669925689697266
ell 139, elapsed: 0.0007300376892089844
ell 138, elapsed: 0.0007510185241699219
ell 132, elapsed: 0.0014111995697021484
ell 131, elapsed: 0.0007739067077636719
ell 130, elapsed: 0.0007619857788085938
ell 129, elapsed: 0.0007369518280029297
ell 128, elapsed: 0.0007679462432861328
ell 122, elapsed: 0.0013918876647949219
ell 121, elapsed: 0.0007669925689697266
ell 120, elapsed: 0.0007579326629638672
ell 119, elapsed: 0.0007588863372802734
ell 118, elapsed: 0.0007679462432861328
ell 112, elapsed: 0.001463174819946289
ell 111, elapsed: 0.0007798671722412109
ell 110, elapsed: 0.000762939453125
ell 109, elapsed: 0.0007369518280029297
ell 108, elapsed: 0.0007700920104980469
ell 102, elapsed: 0.0014369487762451172
ell 101, elapsed: 0.003141164779663086
ell 100, elapsed: 0.0031058788299560547
ell 99, elapsed: 0.003219127655029297
ell 98, elapsed: 0.003058910369873047
ell 92, elapsed: 0.005949974060058594
ell 91, elapsed: 0.0029909610748291016
ell 90, elapsed: 0.0029659271240234375
ell 89, elapsed: 0.0030710697174072266
ell 88, elapsed: 0.0029649734497070312
ell 82, elapsed: 0.005620002746582031
ell 81, elapsed: 0.003080129623413086
ell 80, elapsed: 0.003078937530517578
ell 79, elapsed: 0.0029609203338623047
ell 78, elapsed: 0.0029518604278564453
ell 72, elapsed: 0.005761146545410156
ell 71, elapsed: 0.003131866455078125
ell 70, elapsed: 0.0031380653381347656
ell 69, elapsed: 0.0031130313873291016
ell 68, elapsed: 0.0032210350036621094
ell 62, elapsed: 0.0056438446044921875
ell 61, elapsed: 0.0029959678649902344
ell 60, elapsed: 0.0029900074005126953
ell 59, elapsed: 0.0031499862670898438
ell 58, elapsed: 0.0029859542846679688
ell 52, elapsed: 0.00586390495300293
ell 51, elapsed: 0.003144979476928711
ell 50, elapsed: 0.0031571388244628906
ell 49, elapsed: 0.003200054168701172
ell 48, elapsed: 0.0031709671020507812
ell 42, elapsed: 0.006021976470947266
ell 41, elapsed: 0.003162860870361328
ell 40, elapsed: 0.0033249855041503906
ell 39, elapsed: 0.003332853317260742
ell 38, elapsed: 0.0030829906463623047
ell 32, elapsed: 0.005681037902832031
ell 31, elapsed: 0.0029649734497070312
ell 30, elapsed: 0.0029611587524414062
ell 29, elapsed: 0.0029630661010742188
ell 28, elapsed: 0.0030570030212402344
ell 22, elapsed: 0.005685091018676758
ell 21, elapsed: 0.0031669139862060547
ell 20, elapsed: 0.003186941146850586
ell 19, elapsed: 0.0031020641326904297
ell 18, elapsed: 0.002978086471557617
ell 12, elapsed: 0.005830049514770508
ell 11, elapsed: 0.0030939579010009766
ell 10, elapsed: 0.003184080123901367
ell 9, elapsed: 0.0029718875885009766
ell 8, elapsed: 0.0030798912048339844
  0.677522 seconds (96.93 k allocations: 12.609 MiB)
elapsed: 0.003682851791381836
step:          0.057511 sec (0 allocations: 0 byte, 0.0% gc time)
swapping:      0.000623 sec (0 allocations: 0 byte, 0.0% gc time)
calc_Mellell!: 0.032959 sec (0 allocations: 0 byte, 0.0% gc time)
  t0 :  0.008228 sec (0 allocations: 0 byte, 0.0% gc time)
  tm2 : 0.062789 sec (0 allocations: 0 byte, 0.0% gc time)
  tm2s: 0.006544 sec (0 allocations: 0 byte, 0.0% gc time)
  tm4 : 0.150504 sec (0 allocations: 0 byte, 0.0% gc time)
  tp2 : 0.0 sec (0 allocations: 0 byte, 0.0% gc time)
  tp2s: 0.0 sec (0 allocations: 0 byte, 0.0% gc time)
  tp4 : 0.0 sec (0 allocations: 0 byte, 0.0% gc time)
calc_wtdll!:   0.461455 sec (48.6 k allocations: 11.096 MB, 0.0% gc time)
calc_wljj!:    0.030923 sec (69 allocations: 1.078 KB, 0.0% gc time)
mult_prefac!:  0.0 sec (0 allocations: 0 byte, 0.0% gc time)
convert:       0.0 sec (0 allocations: 0 byte, 0.0% gc time)
write:         0.03103 sec (0 allocations: 0 byte, 0.0% gc time)
test_rand_2f1: 0.0 sec (0 allocations: 0 byte, 0.0% gc time)
Closing outfile out/MlCache/MlCache.bin...   0.000007 seconds
xi, l=0, nu=0:   0.385398 seconds (602.80 k allocations: 32.965 MiB)
xi, l=0, nu=-2:  0.002648 seconds (114 allocations: 148.969 KiB)
Created 'out/xi.tsv'.
  q=1.1, R=0.6:	  0.835545 seconds (264.51 k allocations: 38.097 MiB)
  q=1.1, R=0.7:	  0.975382 seconds (276.48 k allocations: 40.118 MiB, 1.50% gc time)
  q=1.1, R=0.8:	  1.021982 seconds (271.73 k allocations: 39.310 MiB, 1.05% gc time)
  q=1.1, R=0.9:	  1.109746 seconds (266.62 k allocations: 38.459 MiB, 0.69% gc time)
  q=1.1, R=0.998:	 17.928650 seconds (114.96 k allocations: 7.588 MiB)
  q=1.1, R=1.0:	  0.004653 seconds (8.20 k allocations: 704.344 KiB)

ℓ = 1000
Δℓ = 4
ΔℓRg1 = -4
N = 4096
q = 1.1
kmin = 1.0e-5
kmax = 1000.0
χ0 = 0.001
RR = RR.tsv
ℓmax = ℓmax.bin
f21 = f21.bin
kmin = 1.0e-5
kmax = 1000.0
dlrec    = 4
dlrecRg1 = -4
Output size: 1573632 bytes = 0.0014655590057373047 GiB
Output size: 786816 bytes = 0.0007327795028686523 GiB
Reading 'out/F21EllCache'...   0.001250 seconds (198 allocations: 533.078 KiB)
ellmax: 1002
lmaxcache: 1000
fell[:,1,1] = ComplexF64[1.726292812820208e-224 - 4.2281979352226965e-240im, 1.7282693092099638e-224 - 4.233038955177178e-240im]
ell 1002, elapsed: 2.8848648071289062e-5
ell 1001, elapsed: 0.0005710124969482422
ell 1000, elapsed: 0.0007450580596923828
ell 999, elapsed: 0.004247903823852539
ell 998, elapsed: 0.004584074020385742
ell 44, elapsed: 0.752082109451294
ell 43, elapsed: 0.003968000411987305
ell 42, elapsed: 0.003923892974853516
ell 41, elapsed: 0.00391387939453125
ell 40, elapsed: 0.003930091857910156
  0.783323 seconds (5.05 k allocations: 329.375 KiB)
elapsed: 0.004761934280395508
step:          0.748319 sec (0 allocations: 0 byte, 0.0% gc time)
swapping:      0.000375 sec (0 allocations: 0 byte, 0.0% gc time)
calc_Mellell!: 0.000892 sec (0 allocations: 0 byte, 0.0% gc time)
  t0 :  0.000554 sec (0 allocations: 0 byte, 0.0% gc time)
  tm2 : 0.008294 sec (0 allocations: 0 byte, 0.0% gc time)
  tm2s: 0.000493 sec (0 allocations: 0 byte, 0.0% gc time)
  tm4 : 0.019519 sec (0 allocations: 0 byte, 0.0% gc time)
  tp2 : 0.0 sec (0 allocations: 0 byte, 0.0% gc time)
  tp2s: 0.0 sec (0 allocations: 0 byte, 0.0% gc time)
  tp4 : 0.0 sec (0 allocations: 0 byte, 0.0% gc time)
calc_wtdll!:   0.029 sec (480 allocations: 52.5 KB, 0.0% gc time)
calc_wljj!:    0.00126 sec (1 allocations: 16 byte, 0.0% gc time)
mult_prefac!:  0.0 sec (0 allocations: 0 byte, 0.0% gc time)
convert:       0.0 sec (0 allocations: 0 byte, 0.0% gc time)
write:         0.000834 sec (0 allocations: 0 byte, 0.0% gc time)
test_rand_2f1: 0.0 sec (0 allocations: 0 byte, 0.0% gc time)
Closing outfile out/MlCache/MlCache.bin...   0.000006 seconds
  0.434883 seconds (38 allocations: 66.859 KiB)
make_phi():   0.008745 seconds (65 allocations: 275.984 KiB)
  0.035404 seconds (11.42 k allocations: 711.851 KiB)
tskip:       1.0e-6 sec (0 allocations: 0 byte, 0.0% gc time)
tread:       0.000733 sec (17 allocations: 1.266 KB, 0.0% gc time)
tmultphi:    0.000334 sec (0 allocations: 0 byte, 0.0% gc time)
tbrfft:      0.00127 sec (0 allocations: 0 byte, 0.0% gc time)
tmultprefac: 0.000893 sec (0 allocations: 0 byte, 0.0% gc time)
toutfunc:    0.000158 sec (0 allocations: 0 byte, 0.0% gc time)
Created 'out/wl42_jj00.tsv'.
Created 'out/wl42_jj02.tsv'.
    Testing TwoFAST tests passed 
