Julia Version 1.6.0-DEV.1064
Commit 4165fddaeb (2020-09-27 08:40 UTC)
Platform Info:
  OS: Linux (x86_64-pc-linux-gnu)
  CPU: Intel(R) Xeon(R) Silver 4114 CPU @ 2.20GHz
  WORD_SIZE: 64
  LIBM: libopenlibm
  LLVM: libLLVM-10.0.1 (ORCJIT, skylake-avx512)
Environment:
  JULIA_DEPOT_PATH = ::/usr/local/share/julia
  JULIA_NUM_THREADS = 2

  Resolving package versions...
  Installed OpenSpecFun_jll ────────────── v0.5.3+3
  Installed Reexport ───────────────────── v0.2.0
  Installed CompilerSupportLibraries_jll ─ v0.3.3+0
  Installed SpecialFunctions ───────────── v0.10.3
  Installed GenericSchur ───────────────── v0.4.0
  Installed BinaryProvider ─────────────── v0.5.10
  Installed FFTW ───────────────────────── v1.2.4
  Installed FFTW_jll ───────────────────── v3.3.9+5
  Installed IntelOpenMP_jll ────────────── v2018.0.3+0
  Installed MKL_jll ────────────────────── v2020.2.254+0
  Installed Readables ──────────────────── v0.3.3
  Installed GenericSVD ─────────────────── v0.3.0
  Installed AbstractFFTs ───────────────── v0.5.0
  Installed TwoFAST ────────────────────── v0.1.3
  Installed ArbNumerics ────────────────── v1.2.1
Updating `~/.julia/environments/v1.6/Project.toml`
  [0dd23c3e] + TwoFAST v0.1.3
Updating `~/.julia/environments/v1.6/Manifest.toml`
  [621f4979] + AbstractFFTs v0.5.0
  [7e558dbc] + ArbNumerics v1.2.1
  [b99e7846] + BinaryProvider v0.5.10
  [e66e0078] + CompilerSupportLibraries_jll v0.3.3+0
  [7a1cc6ca] + FFTW v1.2.4
  [f5851436] + FFTW_jll v3.3.9+5
  [01680d73] + GenericSVD v0.3.0
  [c145ed77] + GenericSchur v0.4.0
  [1d5cc7b8] + IntelOpenMP_jll v2018.0.3+0
  [856f044c] + MKL_jll v2020.2.254+0
  [efe28fd5] + OpenSpecFun_jll v0.5.3+3
  [0d4725de] + Readables v0.3.3
  [189a3867] + Reexport v0.2.0
  [276daf66] + SpecialFunctions v0.10.3
  [0dd23c3e] + TwoFAST v0.1.3
  [56f22d72] + Artifacts
  [2a0f44e3] + Base64
  [ade2ca70] + Dates
  [8bb1440f] + DelimitedFiles
  [8ba89e20] + Distributed
  [b77e0a4c] + InteractiveUtils
  [76f85450] + LibGit2
  [8f399da3] + Libdl
  [37e2e46d] + LinearAlgebra
  [56ddb016] + Logging
  [d6f4376e] + Markdown
  [a63ad114] + Mmap
  [44cfe95a] + Pkg
  [de0858da] + Printf
  [3fa0cd96] + REPL
  [9a3f8284] + Random
  [ea8e919c] + SHA
  [9e88b42a] + Serialization
  [6462fe0b] + Sockets
  [fa267f1f] + TOML
  [8dfed614] + Test
  [cf7118a7] + UUIDs
  [4ec0a83e] + Unicode
   Building FFTW ───────→ `~/.julia/packages/FFTW/DMUbN/deps/build.log`
   Building ArbNumerics → `~/.julia/packages/ArbNumerics/joGFm/deps/build.log`
    Testing TwoFAST
Status `/tmp/jl_iluhAu/Project.toml`
  [7e558dbc] ArbNumerics v1.2.1
  [39dd38d3] Dierckx v0.5.0
  [7a1cc6ca] FFTW v1.2.4
  [276daf66] SpecialFunctions v0.10.3
  [0dd23c3e] TwoFAST v0.1.3
  [8bb1440f] DelimitedFiles
  [37e2e46d] LinearAlgebra
  [56ddb016] Logging
  [8dfed614] Test
Status `/tmp/jl_iluhAu/Manifest.toml`
  [621f4979] AbstractFFTs v0.5.0
  [7e558dbc] ArbNumerics v1.2.1
  [b99e7846] BinaryProvider v0.5.10
  [e66e0078] CompilerSupportLibraries_jll v0.3.3+0
  [39dd38d3] Dierckx v0.5.0
  [cd4c43a9] Dierckx_jll v0.0.1+0
  [7a1cc6ca] FFTW v1.2.4
  [f5851436] FFTW_jll v3.3.9+5
  [01680d73] GenericSVD v0.3.0
  [c145ed77] GenericSchur v0.4.0
  [1d5cc7b8] IntelOpenMP_jll v2018.0.3+0
  [856f044c] MKL_jll v2020.2.254+0
  [efe28fd5] OpenSpecFun_jll v0.5.3+3
  [0d4725de] Readables v0.3.3
  [189a3867] Reexport v0.2.0
  [276daf66] SpecialFunctions v0.10.3
  [0dd23c3e] TwoFAST v0.1.3
  [56f22d72] Artifacts
  [2a0f44e3] Base64
  [ade2ca70] Dates
  [8bb1440f] DelimitedFiles
  [8ba89e20] Distributed
  [b77e0a4c] InteractiveUtils
  [76f85450] LibGit2
  [8f399da3] Libdl
  [37e2e46d] LinearAlgebra
  [56ddb016] Logging
  [d6f4376e] Markdown
  [a63ad114] Mmap
  [44cfe95a] Pkg
  [de0858da] Printf
  [3fa0cd96] REPL
  [9a3f8284] Random
  [ea8e919c] SHA
  [9e88b42a] Serialization
  [6462fe0b] Sockets
  [fa267f1f] TOML
  [8dfed614] Test
  [cf7118a7] UUIDs
  [4ec0a83e] Unicode
    Testing Running tests...
WARNING: could not import Printf.ini_hex into ArbNumerics
WARNING: could not import Printf.ini_HEX into ArbNumerics
t = 0.0 sec (0 allocations: 0 byte, 0.0% gc time)
typeof(t) = NamedTuple{(:value, :time, :bytes, :gctime, :gcstats), Tuple{DataType, Float64, Int64, Float64, Base.GC_Diff}}
TwoFAST.PerformanceStats.TimedType = Union{NamedTuple{(:value, :time, :bytes, :gctime, :gcstats), Tuple{T, Float64, Int64, Float64, Base.GC_Diff}}, Tuple{Any, Float64, Int64, Float64, Base.GC_Diff}} where T
t = 1.0e-6 sec (0 allocations: 0 byte, 0.0% gc time)
t: 1.0e-6 sec (0 allocations: 0 byte, 0.0% gc time)
Testing ξ(r), ℓ=0, ν=-1 ... passed
Testing ξ(r), ℓ=0, ν=0 ... passed
Testing ξ(r), ℓ=0, ν=1 ... passed
Testing ξ(r), ℓ=0, ν=2 ... passed
Testing ξ(r), ℓ=0, ν=3 ... passed
Testing ξ(r), ℓ=1, ν=0 ... passed
Testing ξ(r), ℓ=1, ν=1 ... passed
Testing ξ(r), ℓ=1, ν=2 ... passed
Testing ξ(r), ℓ=1, ν=3 ... passed
Testing ξ(r), ℓ=2, ν=-1 ... passed
Testing ξ(r), ℓ=2, ν=0 ... passed
Testing ξ(r), ℓ=2, ν=1 ... passed
Testing ξ(r), ℓ=2, ν=2 ... passed
Testing ξ(r), ℓ=2, ν=3 ... passed
Testing ξ(r), ℓ=3, ν=-1 ... passed
Testing ξ(r), ℓ=3, ν=0 ... passed
Testing ξ(r), ℓ=3, ν=1 ... passed
Testing ξ(r), ℓ=3, ν=2 ... passed
Testing ξ(r), ℓ=3, ν=3 ... passed
Testing ξ(r), ℓ=4, ν=-1 ... passed
Testing ξ(r), ℓ=4, ν=0 ... passed
Testing ξ(r), ℓ=4, ν=1 ... passed
Testing ξ(r), ℓ=4, ν=2 ... passed
Testing ξ(r), ℓ=4, ν=3 ... passed
Testing ξ(r) ... passed
Testing ξ′(r) ... passed
Testing ξ″(r) ... passed
Calculating fmax: 
  dlrec    = 4
  dlrecRg1 = -4
  q=1.1, R=1.1:	  4.290883 seconds (843.75 k allocations: 53.937 MiB, 0.94% gc time)

  4.307798 seconds (856.42 k allocations: 54.726 MiB, 0.93% gc time)
ℓ = 1202
Δℓ = 4
ΔℓRg1 = -4
N = 1600
q = 1.1
kmin = 1.0e-5
kmax = 100000.00000000004
χ0 = 0.023029999999999995
RR = RR.tsv
ℓmax = ℓmax.bin
f21 = f21.bin
kmin = 1.0e-5
kmax = 100000.0
dlrec    = 4
dlrecRg1 = -4
Output size: 5741568 bytes = 0.005347251892089844 GiB
Output size: 51264 bytes = 4.774332046508789e-5 GiB
Reading 'out/F21EllCache'...   0.835766 seconds (395.09 k allocations: 23.201 MiB, 12.19% gc time)
ellmax: 1202
lmaxcache: 1202
fell[:,1,1] = ComplexF64[3.9583795592771634e-52 - 9.695233714158177e-68im, 3.990121772925759e-52 - 9.772979714843386e-68im]
ell 1202, elapsed: 6.890296936035156e-5
ell 1201, elapsed: 1.298865795135498
ell 1200, elapsed: 0.0005519390106201172
ell 1199, elapsed: 0.0005099773406982422
ell 1198, elapsed: 0.000514984130859375
ell 1002, elapsed: 0.010496854782104492
ell 1001, elapsed: 0.0005080699920654297
ell 1000, elapsed: 0.0004899501800537109
ell 999, elapsed: 0.00048804283142089844
ell 998, elapsed: 0.0004980564117431641
ell 902, elapsed: 0.0053768157958984375
ell 901, elapsed: 0.0005061626434326172
ell 900, elapsed: 0.0004899501800537109
ell 899, elapsed: 0.0004961490631103516
ell 898, elapsed: 0.000492095947265625
ell 802, elapsed: 0.005327939987182617
ell 801, elapsed: 0.0005002021789550781
ell 800, elapsed: 0.0004899501800537109
ell 799, elapsed: 0.0004889965057373047
ell 798, elapsed: 0.0004918575286865234
ell 702, elapsed: 0.00542902946472168
ell 701, elapsed: 0.0005040168762207031
ell 700, elapsed: 0.0004899501800537109
ell 699, elapsed: 0.0004901885986328125
ell 698, elapsed: 0.0004899501800537109
ell 602, elapsed: 0.0053141117095947266
ell 601, elapsed: 0.00049591064453125
ell 600, elapsed: 0.0004951953887939453
ell 599, elapsed: 0.00049591064453125
ell 598, elapsed: 0.0004949569702148438
ell 502, elapsed: 0.005377054214477539
ell 501, elapsed: 0.0005049705505371094
ell 500, elapsed: 0.000492095947265625
ell 499, elapsed: 0.000492095947265625
ell 498, elapsed: 0.0004990100860595703
ell 402, elapsed: 0.00535893440246582
ell 401, elapsed: 0.0005049705505371094
ell 400, elapsed: 0.000492095947265625
ell 399, elapsed: 0.0004911422729492188
ell 398, elapsed: 0.0004918575286865234
ell 302, elapsed: 0.005319118499755859
ell 301, elapsed: 0.0004999637603759766
ell 300, elapsed: 0.0004930496215820312
ell 299, elapsed: 0.0004940032958984375
ell 298, elapsed: 0.0004930496215820312
ell 202, elapsed: 0.005386829376220703
ell 201, elapsed: 0.0005028247833251953
ell 200, elapsed: 0.0004930496215820312
ell 199, elapsed: 0.000492095947265625
ell 198, elapsed: 0.0004949569702148438
ell 152, elapsed: 0.0028150081634521484
ell 151, elapsed: 0.00049591064453125
ell 150, elapsed: 0.0004930496215820312
ell 149, elapsed: 0.0004918575286865234
ell 148, elapsed: 0.0005030632019042969
ell 127, elapsed: 0.0015721321105957031
ell 126, elapsed: 0.0004940032958984375
ell 125, elapsed: 0.0004930496215820312
ell 124, elapsed: 0.0004930496215820312
ell 123, elapsed: 0.00049591064453125
ell 114, elapsed: 0.0009670257568359375
ell 113, elapsed: 0.0004918575286865234
ell 112, elapsed: 0.0004930496215820312
ell 111, elapsed: 0.000492095947265625
ell 110, elapsed: 0.0004930496215820312
ell 102, elapsed: 0.0009710788726806641
ell 101, elapsed: 0.0004968643188476562
ell 100, elapsed: 0.0004911422729492188
ell 99, elapsed: 0.0004930496215820312
ell 98, elapsed: 0.0004928112030029297
ell 97, elapsed: 0.0005600452423095703
ell 96, elapsed: 0.0005500316619873047
ell 95, elapsed: 0.0005548000335693359
ell 94, elapsed: 0.0005509853363037109
ell 93, elapsed: 0.0005497932434082031
ell 92, elapsed: 0.000553131103515625
ell 91, elapsed: 0.0005459785461425781
ell 90, elapsed: 0.0005528926849365234
ell 89, elapsed: 0.0005488395690917969
ell 88, elapsed: 0.0005609989166259766
ell 87, elapsed: 0.0005521774291992188
ell 86, elapsed: 0.0005509853363037109
ell 85, elapsed: 0.0005528926849365234
ell 84, elapsed: 0.0005500316619873047
ell 83, elapsed: 0.0005509853363037109
ell 82, elapsed: 0.0005550384521484375
ell 81, elapsed: 0.0005629062652587891
ell 80, elapsed: 0.0005550384521484375
ell 79, elapsed: 0.0005500316619873047
ell 78, elapsed: 0.0005550384521484375
ell 77, elapsed: 0.0005891323089599609
ell 76, elapsed: 0.0005638599395751953
ell 75, elapsed: 0.0005538463592529297
ell 74, elapsed: 0.0005669593811035156
ell 73, elapsed: 0.0005509853363037109
ell 72, elapsed: 0.0005500316619873047
ell 71, elapsed: 0.0005500316619873047
ell 70, elapsed: 0.00055694580078125
ell 69, elapsed: 0.0005500316619873047
ell 68, elapsed: 0.000553131103515625
ell 67, elapsed: 0.0005559921264648438
ell 66, elapsed: 0.0005500316619873047
ell 65, elapsed: 0.0005500316619873047
ell 64, elapsed: 0.0005550384521484375
ell 63, elapsed: 0.0005509853363037109
ell 62, elapsed: 0.0005500316619873047
ell 61, elapsed: 0.0005650520324707031
ell 60, elapsed: 0.0005509853363037109
ell 59, elapsed: 0.0005512237548828125
ell 58, elapsed: 0.0005528926849365234
ell 57, elapsed: 0.0005500316619873047
ell 56, elapsed: 0.0005509853363037109
ell 55, elapsed: 0.0005550384521484375
ell 54, elapsed: 0.0005729198455810547
ell 53, elapsed: 0.0005538463592529297
ell 52, elapsed: 0.0005860328674316406
ell 51, elapsed: 0.0005729198455810547
ell 50, elapsed: 0.0005528926849365234
ell 49, elapsed: 0.0005509853363037109
ell 48, elapsed: 0.0005519390106201172
ell 47, elapsed: 0.0005609989166259766
ell 46, elapsed: 0.0005500316619873047
ell 45, elapsed: 0.0005550384521484375
ell 44, elapsed: 0.0005497932434082031
ell 43, elapsed: 0.0005528926849365234
ell 42, elapsed: 0.0005478858947753906
ell 41, elapsed: 0.0005609989166259766
ell 40, elapsed: 0.0005528926849365234
ell 39, elapsed: 0.0005509853363037109
ell 38, elapsed: 0.0005519390106201172
ell 37, elapsed: 0.0005519390106201172
ell 36, elapsed: 0.0005497932434082031
ell 35, elapsed: 0.0005540847778320312
ell 34, elapsed: 0.0005609989166259766
ell 33, elapsed: 0.0005559921264648438
ell 32, elapsed: 0.0005509853363037109
ell 31, elapsed: 0.0005509853363037109
ell 30, elapsed: 0.0005528926849365234
ell 29, elapsed: 0.0005519390106201172
ell 28, elapsed: 0.0005540847778320312
ell 27, elapsed: 0.0005829334259033203
ell 26, elapsed: 0.0005819797515869141
ell 25, elapsed: 0.0005519390106201172
ell 24, elapsed: 0.0005540847778320312
ell 23, elapsed: 0.0005562305450439453
ell 22, elapsed: 0.0005528926849365234
ell 21, elapsed: 0.0005528926849365234
ell 20, elapsed: 0.0005648136138916016
ell 19, elapsed: 0.0005528926849365234
ell 18, elapsed: 0.0005619525909423828
ell 17, elapsed: 0.0005559921264648438
ell 16, elapsed: 0.0005571842193603516
ell 15, elapsed: 0.0005519390106201172
ell 14, elapsed: 0.0005669593811035156
ell 13, elapsed: 0.0005559921264648438
ell 12, elapsed: 0.0005528926849365234
ell 11, elapsed: 0.000553131103515625
ell 10, elapsed: 0.0005550384521484375
ell 9, elapsed: 0.0005528926849365234
ell 8, elapsed: 0.0005571842193603516
ell 7, elapsed: 0.0005609989166259766
ell 6, elapsed: 0.00055694580078125
ell 5, elapsed: 0.0005540847778320312
ell 4, elapsed: 0.000553131103515625
ell 3, elapsed: 0.0005548000335693359
ell 2, elapsed: 0.0005738735198974609
ell 1, elapsed: 0.0005779266357421875
ell 0, elapsed: 0.0005691051483154297
  1.977120 seconds (1.30 M allocations: 70.963 MiB, 2.99% gc time)
elapsed: 0.0006690025329589844
step:          0.40153 sec (311.142 k allocations: 16.962 MB, 5.5% gc time)
swapping:      0.000488 sec (0 allocations: 0 byte, 0.0% gc time)
calc_Mellell!: 0.141435 sec (135.742 k allocations: 7.433 MB, 0.0% gc time)
  t0 :  0.0 sec (0 allocations: 0 byte, 0.0% gc time)
  tm2 : 0.0 sec (0 allocations: 0 byte, 0.0% gc time)
  tm2s: 0.0 sec (0 allocations: 0 byte, 0.0% gc time)
  tm4 : 0.0 sec (0 allocations: 0 byte, 0.0% gc time)
  tp2 : 0.0 sec (0 allocations: 0 byte, 0.0% gc time)
  tp2s: 0.0 sec (0 allocations: 0 byte, 0.0% gc time)
  tp4 : 0.0 sec (0 allocations: 0 byte, 0.0% gc time)
calc_wtdll!:   0.886674 sec (509.616 k allocations: 28.197 MB, 0.0% gc time)
calc_wljj!:    0.003445 sec (6 allocations: 96 byte, 0.0% gc time)
mult_prefac!:  0.0 sec (0 allocations: 0 byte, 0.0% gc time)
convert:       0.0 sec (0 allocations: 0 byte, 0.0% gc time)
write:         0.003124 sec (0 allocations: 0 byte, 0.0% gc time)
test_rand_2f1: 0.0 sec (0 allocations: 0 byte, 0.0% gc time)
Closing outfile out/Ml21-cache.bin...   0.000014 seconds
  1.072533 seconds (246.34 k allocations: 14.216 MiB)
make_phi():   0.013474 seconds (8.18 k allocations: 237.844 KiB)
  0.258597 seconds (87.57 k allocations: 4.749 MiB)
tskip:       2.0e-5 sec (0 allocations: 0 byte, 0.0% gc time)
tread:       0.002257 sec (17 allocations: 2.125 KB, 0.0% gc time)
tmultphi:    0.045301 sec (21.425 k allocations: 1.287 MB, 0.0% gc time)
tbrfft:      0.004132 sec (0 allocations: 0 byte, 0.0% gc time)
tmultprefac: 0.004496 sec (0 allocations: 0 byte, 0.0% gc time)
toutfunc:    0.161534 sec (64.484 k allocations: 3.33 MB, 0.0% gc time)
Testing R=1.1 ... passed
Calculating fmax: 
  dlrec    = 4
  dlrecRg1 = -4
  q=1.1, R=1.0:	  0.001509 seconds (3.20 k allocations: 275.344 KiB)

  0.001707 seconds (3.34 k allocations: 311.422 KiB)
ℓ = 1202
Δℓ = 4
ΔℓRg1 = -4
N = 1600
q = 1.1
kmin = 1.0e-5
kmax = 100000.00000000004
χ0 = 0.023029999999999995
RR = RR.tsv
ℓmax = ℓmax.bin
f21 = f21.bin
kmin = 1.0e-5
kmax = 100000.0
dlrec    = 4
dlrecRg1 = -4
Output size: 61465536 bytes = 0.05724424123764038 GiB
Output size: 51264 bytes = 4.774332046508789e-5 GiB
Reading 'out/F21EllCache'...   0.000966 seconds (197 allocations: 84.203 KiB)
ellmax: 1202
lmaxcache: 1202
fell[:,1,1] = ComplexF64[809.6031528389767 - 1.9829558194077161e-13im, 0.0 + 0.0im]
ell 1202, elapsed: 3.3855438232421875e-5
ell 1201, elapsed: 0.01551508903503418
ell 1200, elapsed: 0.014801979064941406
ell 1199, elapsed: 0.0003490447998046875
ell 1198, elapsed: 0.000331878662109375
ell 1197, elapsed: 0.0004150867462158203
ell 1196, elapsed: 0.00038814544677734375
ell 1195, elapsed: 0.0003871917724609375
ell 1194, elapsed: 0.0003859996795654297
ell 1193, elapsed: 0.0003840923309326172
ell 1192, elapsed: 0.0003859996795654297
ell 1191, elapsed: 0.00038504600524902344
ell 1190, elapsed: 0.00038886070251464844
ell 1189, elapsed: 0.0003871917724609375
ell 1188, elapsed: 0.00038814544677734375
ell 1187, elapsed: 0.0003859996795654297
ell 1186, elapsed: 0.0003840923309326172
ell 1185, elapsed: 0.00038814544677734375
ell 1184, elapsed: 0.0003840923309326172
ell 1183, elapsed: 0.0003859996795654297
ell 1182, elapsed: 0.00038504600524902344
ell 1181, elapsed: 0.0003859996795654297
ell 1180, elapsed: 0.0003960132598876953
ell 1179, elapsed: 0.00038695335388183594
ell 1178, elapsed: 0.00038814544677734375
ell 1177, elapsed: 0.00038695335388183594
ell 1176, elapsed: 0.00038504600524902344
ell 1175, elapsed: 0.0003829002380371094
ell 1174, elapsed: 0.00038504600524902344
ell 1173, elapsed: 0.0003879070281982422
ell 1172, elapsed: 0.00039005279541015625
ell 1171, elapsed: 0.00040411949157714844
ell 1170, elapsed: 0.000431060791015625
ell 1169, elapsed: 0.0003960132598876953
ell 1168, elapsed: 0.0003879070281982422
ell 1167, elapsed: 0.00039196014404296875
ell 1166, elapsed: 0.0003898143768310547
ell 1165, elapsed: 0.00038909912109375
ell 1164, elapsed: 0.0003840923309326172
ell 1163, elapsed: 0.00038909912109375
ell 1162, elapsed: 0.0003972053527832031
ell 1161, elapsed: 0.00038909912109375
ell 1160, elapsed: 0.00038504600524902344
ell 1159, elapsed: 0.0003972053527832031
ell 1158, elapsed: 0.00038886070251464844
ell 1157, elapsed: 0.0003859996795654297
ell 1156, elapsed: 0.0003948211669921875
ell 1155, elapsed: 0.0003879070281982422
ell 1154, elapsed: 0.0003859996795654297
ell 1153, elapsed: 0.00038695335388183594
ell 1152, elapsed: 0.0003979206085205078
ell 1151, elapsed: 0.0003879070281982422
ell 1150, elapsed: 0.0003859996795654297
ell 1149, elapsed: 0.00038504600524902344
ell 1148, elapsed: 0.0003879070281982422
ell 1147, elapsed: 0.0003829002380371094
ell 1146, elapsed: 0.0003871917724609375
ell 1145, elapsed: 0.0003829002380371094
ell 1144, elapsed: 0.00038504600524902344
ell 1143, elapsed: 0.0003979206085205078
ell 1142, elapsed: 0.0003859996795654297
ell 1141, elapsed: 0.00038695335388183594
ell 1140, elapsed: 0.0003859996795654297
ell 1139, elapsed: 0.00038504600524902344
ell 1138, elapsed: 0.00044608116149902344
ell 1137, elapsed: 0.0004220008850097656
ell 1136, elapsed: 0.0004799365997314453
ell 1135, elapsed: 0.0004448890686035156
ell 1134, elapsed: 0.00039505958557128906
ell 1133, elapsed: 0.00038909912109375
ell 1132, elapsed: 0.00038504600524902344
ell 1131, elapsed: 0.00038695335388183594
ell 1130, elapsed: 0.0003859996795654297
ell 1129, elapsed: 0.0003829002380371094
ell 1128, elapsed: 0.00038695335388183594
ell 1127, elapsed: 0.00038313865661621094
ell 1126, elapsed: 0.0004048347473144531
ell 1125, elapsed: 0.0003848075866699219
ell 1124, elapsed: 0.0003879070281982422
ell 1123, elapsed: 0.0003838539123535156
ell 1122, elapsed: 0.0003838539123535156
ell 1121, elapsed: 0.0003879070281982422
ell 1120, elapsed: 0.00038504600524902344
ell 1119, elapsed: 0.00038814544677734375
ell 1118, elapsed: 0.0003838539123535156
ell 1117, elapsed: 0.0003981590270996094
ell 1116, elapsed: 0.00038886070251464844
ell 1115, elapsed: 0.00038504600524902344
ell 1114, elapsed: 0.00038695335388183594
ell 1113, elapsed: 0.00038504600524902344
ell 1112, elapsed: 0.0003829002380371094
ell 1111, elapsed: 0.00038886070251464844
ell 1110, elapsed: 0.0003829002380371094
ell 1109, elapsed: 0.00038504600524902344
ell 1108, elapsed: 0.0003819465637207031
ell 1107, elapsed: 0.00039386749267578125
ell 1106, elapsed: 0.00038695335388183594
ell 1105, elapsed: 0.00038695335388183594
ell 1104, elapsed: 0.0003848075866699219
ell 1103, elapsed: 0.00038504600524902344
ell 1102, elapsed: 0.0004220008850097656
ell 1101, elapsed: 0.0004150867462158203
ell 1100, elapsed: 0.0003829002380371094
ell 1099, elapsed: 0.0003879070281982422
ell 1098, elapsed: 0.00039696693420410156
ell 1097, elapsed: 0.0003840923309326172
ell 1096, elapsed: 0.00038695335388183594
ell 1095, elapsed: 0.00038814544677734375
ell 1094, elapsed: 0.00039196014404296875
ell 1093, elapsed: 0.0003859996795654297
ell 1092, elapsed: 0.0003859996795654297
ell 1091, elapsed: 0.00038695335388183594
ell 1090, elapsed: 0.00038695335388183594
ell 1089, elapsed: 0.0004000663757324219
ell 1088, elapsed: 0.0003879070281982422
ell 1087, elapsed: 0.00038695335388183594
ell 1086, elapsed: 0.00038695335388183594
ell 1085, elapsed: 0.0003840923309326172
ell 1084, elapsed: 0.0003859996795654297
ell 1083, elapsed: 0.0003829002380371094
ell 1082, elapsed: 0.0003859996795654297
ell 1081, elapsed: 0.0003838539123535156
ell 1080, elapsed: 0.0003859996795654297
ell 1079, elapsed: 0.0003981590270996094
ell 1078, elapsed: 0.0003859996795654297
ell 1077, elapsed: 0.00038504600524902344
ell 1076, elapsed: 0.0003879070281982422
ell 1075, elapsed: 0.00038313865661621094
ell 1074, elapsed: 0.0003871917724609375
ell 1073, elapsed: 0.0003829002380371094
ell 1072, elapsed: 0.0003910064697265625
ell 1071, elapsed: 0.0003838539123535156
ell 1070, elapsed: 0.00040793418884277344
ell 1069, elapsed: 0.00038695335388183594
ell 1068, elapsed: 0.00038504600524902344
ell 1067, elapsed: 0.00041985511779785156
ell 1066, elapsed: 0.00041413307189941406
ell 1065, elapsed: 0.00038814544677734375
ell 1064, elapsed: 0.00039005279541015625
ell 1063, elapsed: 0.00038695335388183594
ell 1062, elapsed: 0.0003879070281982422
ell 1061, elapsed: 0.0004000663757324219
ell 1060, elapsed: 0.00038814544677734375
ell 1059, elapsed: 0.00038886070251464844
ell 1058, elapsed: 0.0003829002380371094
ell 1057, elapsed: 0.00038695335388183594
ell 1056, elapsed: 0.0003848075866699219
ell 1055, elapsed: 0.0003871917724609375
ell 1054, elapsed: 0.00038695335388183594
ell 1053, elapsed: 0.0003859996795654297
ell 1052, elapsed: 0.0003871917724609375
ell 1051, elapsed: 0.0003979206085205078
ell 1050, elapsed: 0.00038504600524902344
ell 1049, elapsed: 0.0003898143768310547
ell 1048, elapsed: 0.00038504600524902344
ell 1047, elapsed: 0.0003941059112548828
ell 1046, elapsed: 0.0003898143768310547
ell 1045, elapsed: 0.00038695335388183594
ell 1044, elapsed: 0.0003879070281982422
ell 1043, elapsed: 0.0003859996795654297
ell 1042, elapsed: 0.0004010200500488281
ell 1041, elapsed: 0.0003848075866699219
ell 1040, elapsed: 0.0003859996795654297
ell 1039, elapsed: 0.0003910064697265625
ell 1038, elapsed: 0.00038695335388183594
ell 1037, elapsed: 0.00038909912109375
ell 1036, elapsed: 0.0003838539123535156
ell 1035, elapsed: 0.0003859996795654297
ell 1034, elapsed: 0.0003948211669921875
ell 1033, elapsed: 0.00038909912109375
ell 1032, elapsed: 0.0004279613494873047
ell 1031, elapsed: 0.00040793418884277344
ell 1030, elapsed: 0.0003859996795654297
ell 1029, elapsed: 0.0003910064697265625
ell 1028, elapsed: 0.0003859996795654297
ell 1027, elapsed: 0.0003871917724609375
ell 1026, elapsed: 0.0003829002380371094
ell 1025, elapsed: 0.00038504600524902344
ell 1024, elapsed: 0.0003859996795654297
ell 1023, elapsed: 0.0004029273986816406
ell 1022, elapsed: 0.0003910064697265625
ell 1021, elapsed: 0.0003840923309326172
ell 1020, elapsed: 0.00038814544677734375
ell 1019, elapsed: 0.00039005279541015625
ell 1018, elapsed: 0.0003859996795654297
ell 1017, elapsed: 0.00039196014404296875
ell 1016, elapsed: 0.0003848075866699219
ell 1015, elapsed: 0.00038695335388183594
ell 1014, elapsed: 0.0004019737243652344
ell 1013, elapsed: 0.0003879070281982422
ell 1012, elapsed: 0.000392913818359375
ell 1011, elapsed: 0.0003859996795654297
ell 1010, elapsed: 0.00038909912109375
ell 1009, elapsed: 0.0003840923309326172
ell 1008, elapsed: 0.0003979206085205078
ell 1007, elapsed: 0.0003859996795654297
ell 1006, elapsed: 0.00038695335388183594
ell 1005, elapsed: 0.00039696693420410156
ell 1004, elapsed: 0.0003879070281982422
ell 1003, elapsed: 0.0003871917724609375
ell 1002, elapsed: 0.00038886070251464844
ell 1001, elapsed: 0.00038313865661621094
ell 1000, elapsed: 0.00038909912109375
ell 999, elapsed: 0.0003859996795654297
ell 998, elapsed: 0.0003859996795654297
ell 997, elapsed: 0.0004279613494873047
ell 996, elapsed: 0.0004038810729980469
ell 995, elapsed: 0.000392913818359375
ell 994, elapsed: 0.00038504600524902344
ell 993, elapsed: 0.00038814544677734375
ell 992, elapsed: 0.00038695335388183594
ell 991, elapsed: 0.00038504600524902344
ell 990, elapsed: 0.00038695335388183594
ell 989, elapsed: 0.0003859996795654297
ell 988, elapsed: 0.00038504600524902344
ell 987, elapsed: 0.00038814544677734375
ell 986, elapsed: 0.0003960132598876953
ell 985, elapsed: 0.00039005279541015625
ell 984, elapsed: 0.0003840923309326172
ell 983, elapsed: 0.00038695335388183594
ell 982, elapsed: 0.00038814544677734375
ell 981, elapsed: 0.00038623809814453125
ell 980, elapsed: 0.00038504600524902344
ell 979, elapsed: 0.0003859996795654297
ell 978, elapsed: 0.0003848075866699219
ell 977, elapsed: 0.0004048347473144531
ell 976, elapsed: 0.00038504600524902344
ell 975, elapsed: 0.00038695335388183594
ell 974, elapsed: 0.0003859996795654297
ell 973, elapsed: 0.00038504600524902344
ell 972, elapsed: 0.00038695335388183594
ell 971, elapsed: 0.00038695335388183594
ell 970, elapsed: 0.00038504600524902344
ell 969, elapsed: 0.0003859996795654297
ell 968, elapsed: 0.0003941059112548828
ell 967, elapsed: 0.00038886070251464844
ell 966, elapsed: 0.00038504600524902344
ell 965, elapsed: 0.00039005279541015625
ell 964, elapsed: 0.0003879070281982422
ell 963, elapsed: 0.0003838539123535156
ell 962, elapsed: 0.0004298686981201172
ell 961, elapsed: 0.0003948211669921875
ell 960, elapsed: 0.00038909912109375
ell 959, elapsed: 0.0003840923309326172
ell 958, elapsed: 0.00039887428283691406
ell 957, elapsed: 0.00038313865661621094
ell 956, elapsed: 0.0003859996795654297
ell 955, elapsed: 0.0003871917724609375
ell 954, elapsed: 0.0003859996795654297
ell 953, elapsed: 0.00038695335388183594
ell 952, elapsed: 0.00038695335388183594
ell 951, elapsed: 0.0003840923309326172
ell 950, elapsed: 0.0003898143768310547
ell 949, elapsed: 0.0003948211669921875
ell 948, elapsed: 0.00038814544677734375
ell 947, elapsed: 0.00038504600524902344
ell 946, elapsed: 0.00038886070251464844
ell 945, elapsed: 0.0003859996795654297
ell 944, elapsed: 0.00038909912109375
ell 943, elapsed: 0.00038886070251464844
ell 942, elapsed: 0.00039196014404296875
ell 941, elapsed: 0.0003859996795654297
ell 940, elapsed: 0.0004019737243652344
ell 939, elapsed: 0.0003859996795654297
ell 938, elapsed: 0.00038695335388183594
ell 937, elapsed: 0.00038504600524902344
ell 936, elapsed: 0.00038695335388183594
ell 935, elapsed: 0.0003859996795654297
ell 934, elapsed: 0.00038695335388183594
ell 933, elapsed: 0.00038504600524902344
ell 932, elapsed: 0.00038695335388183594
ell 931, elapsed: 0.0003859996795654297
ell 930, elapsed: 0.0003960132598876953
ell 929, elapsed: 0.0003871917724609375
ell 928, elapsed: 0.0003809928894042969
ell 927, elapsed: 0.00043082237243652344
ell 926, elapsed: 0.00039005279541015625
ell 925, elapsed: 0.00039315223693847656
ell 924, elapsed: 0.0003838539123535156
ell 923, elapsed: 0.00038695335388183594
ell 922, elapsed: 0.0003848075866699219
ell 921, elapsed: 0.0004010200500488281
ell 920, elapsed: 0.00039196014404296875
ell 919, elapsed: 0.0003838539123535156
ell 918, elapsed: 0.0003879070281982422
ell 917, elapsed: 0.00038909912109375
ell 916, elapsed: 0.00038695335388183594
ell 915, elapsed: 0.0003910064697265625
ell 914, elapsed: 0.0003859996795654297
ell 913, elapsed: 0.0003859996795654297
ell 912, elapsed: 0.00039696693420410156
ell 911, elapsed: 0.0003979206085205078
ell 910, elapsed: 0.0003879070281982422
ell 909, elapsed: 0.00038695335388183594
ell 908, elapsed: 0.00038695335388183594
ell 907, elapsed: 0.0003859996795654297
ell 906, elapsed: 0.00039005279541015625
ell 905, elapsed: 0.00039005279541015625
ell 904, elapsed: 0.0003848075866699219
ell 903, elapsed: 0.00039386749267578125
ell 902, elapsed: 0.00038695335388183594
ell 901, elapsed: 0.00038886070251464844
ell 900, elapsed: 0.0003879070281982422
ell 899, elapsed: 0.0003840923309326172
ell 898, elapsed: 0.0003879070281982422
ell 897, elapsed: 0.00038504600524902344
ell 896, elapsed: 0.0003871917724609375
ell 895, elapsed: 0.0003941059112548828
ell 894, elapsed: 0.00038814544677734375
ell 893, elapsed: 0.00043392181396484375
ell 892, elapsed: 0.00040984153747558594
ell 891, elapsed: 0.00039696693420410156
ell 890, elapsed: 0.0003859996795654297
ell 889, elapsed: 0.0003840923309326172
ell 888, elapsed: 0.0003859996795654297
ell 887, elapsed: 0.0003819465637207031
ell 886, elapsed: 0.00038909912109375
ell 885, elapsed: 0.0003829002380371094
ell 884, elapsed: 0.0004010200500488281
ell 883, elapsed: 0.00038504600524902344
ell 882, elapsed: 0.0003848075866699219
ell 881, elapsed: 0.00038504600524902344
ell 880, elapsed: 0.0003859996795654297
ell 879, elapsed: 0.0003871917724609375
ell 878, elapsed: 0.0003859996795654297
ell 877, elapsed: 0.0003838539123535156
ell 876, elapsed: 0.00038909912109375
ell 875, elapsed: 0.0003948211669921875
ell 874, elapsed: 0.00038909912109375
ell 873, elapsed: 0.0003840923309326172
ell 872, elapsed: 0.0003859996795654297
ell 871, elapsed: 0.00038814544677734375
ell 870, elapsed: 0.00039696693420410156
ell 869, elapsed: 0.0003859996795654297
ell 868, elapsed: 0.00038504600524902344
ell 867, elapsed: 0.0003840923309326172
ell 866, elapsed: 0.00039696693420410156
ell 865, elapsed: 0.00038504600524902344
ell 864, elapsed: 0.00038695335388183594
ell 863, elapsed: 0.0003840923309326172
ell 862, elapsed: 0.0003829002380371094
ell 861, elapsed: 0.00038886070251464844
ell 860, elapsed: 0.0003829002380371094
ell 859, elapsed: 0.0003879070281982422
ell 858, elapsed: 0.0004208087921142578
ell 857, elapsed: 0.00041604042053222656
ell 856, elapsed: 0.00038886070251464844
ell 855, elapsed: 0.00038695335388183594
ell 854, elapsed: 0.00038695335388183594
ell 853, elapsed: 0.00038504600524902344
ell 852, elapsed: 0.00038695335388183594
ell 851, elapsed: 0.00038695335388183594
ell 850, elapsed: 0.0003840923309326172
ell 849, elapsed: 0.00038886070251464844
ell 848, elapsed: 0.0003819465637207031
ell 847, elapsed: 0.0003998279571533203
ell 846, elapsed: 0.0003829002380371094
ell 845, elapsed: 0.0003840923309326172
ell 844, elapsed: 0.00038695335388183594
ell 843, elapsed: 0.0003859996795654297
ell 842, elapsed: 0.00038695335388183594
ell 841, elapsed: 0.0003871917724609375
ell 840, elapsed: 0.0003840923309326172
ell 839, elapsed: 0.00038695335388183594
ell 838, elapsed: 0.00039696693420410156
ell 837, elapsed: 0.0003910064697265625
ell 836, elapsed: 0.00038695335388183594
ell 835, elapsed: 0.0003840923309326172
ell 834, elapsed: 0.0003871917724609375
ell 833, elapsed: 0.0003840923309326172
ell 832, elapsed: 0.00038695335388183594
ell 831, elapsed: 0.0003840923309326172
ell 830, elapsed: 0.00039005279541015625
ell 829, elapsed: 0.00038313865661621094
ell 828, elapsed: 0.00039696693420410156
ell 827, elapsed: 0.00038814544677734375
ell 826, elapsed: 0.0003859996795654297
ell 825, elapsed: 0.0003871917724609375
ell 824, elapsed: 0.0003859996795654297
ell 823, elapsed: 0.0004210472106933594
ell 822, elapsed: 0.00040602684020996094
ell 821, elapsed: 0.0003871917724609375
ell 820, elapsed: 0.00039005279541015625
ell 819, elapsed: 0.00039696693420410156
ell 818, elapsed: 0.0003859996795654297
ell 817, elapsed: 0.00038909912109375
ell 816, elapsed: 0.00038814544677734375
ell 815, elapsed: 0.00038909912109375
ell 814, elapsed: 0.00038695335388183594
ell 813, elapsed: 0.0003859996795654297
ell 812, elapsed: 0.00039696693420410156
ell 811, elapsed: 0.00038504600524902344
ell 810, elapsed: 0.0003979206085205078
ell 809, elapsed: 0.0003829002380371094
ell 808, elapsed: 0.0003859996795654297
ell 807, elapsed: 0.00038695335388183594
ell 806, elapsed: 0.00038695335388183594
ell 805, elapsed: 0.00038909912109375
ell 804, elapsed: 0.00038695335388183594
ell 803, elapsed: 0.00038909912109375
ell 802, elapsed: 0.00038695335388183594
ell 801, elapsed: 0.00038695335388183594
ell 800, elapsed: 0.0004010200500488281
ell 799, elapsed: 0.0003879070281982422
ell 798, elapsed: 0.00039005279541015625
ell 797, elapsed: 0.00038695335388183594
ell 796, elapsed: 0.0003859996795654297
ell 795, elapsed: 0.0003898143768310547
ell 794, elapsed: 0.0003859996795654297
ell 793, elapsed: 0.0003910064697265625
ell 792, elapsed: 0.00038504600524902344
ell 791, elapsed: 0.0004031658172607422
ell 790, elapsed: 0.00038695335388183594
ell 789, elapsed: 0.00039005279541015625
ell 788, elapsed: 0.00043392181396484375
ell 787, elapsed: 0.0003979206085205078
ell 786, elapsed: 0.0003859996795654297
ell 785, elapsed: 0.00039005279541015625
ell 784, elapsed: 0.0003840923309326172
ell 783, elapsed: 0.000392913818359375
ell 782, elapsed: 0.0003991127014160156
ell 781, elapsed: 0.00038814544677734375
ell 780, elapsed: 0.0003859996795654297
ell 779, elapsed: 0.00038909912109375
ell 778, elapsed: 0.0003859996795654297
ell 777, elapsed: 0.0003859996795654297
ell 776, elapsed: 0.00038504600524902344
ell 775, elapsed: 0.0003879070281982422
ell 774, elapsed: 0.0003859996795654297
ell 773, elapsed: 0.00038909912109375
ell 772, elapsed: 0.00038814544677734375
ell 771, elapsed: 0.00038504600524902344
ell 770, elapsed: 0.0003879070281982422
ell 769, elapsed: 0.0003960132598876953
ell 768, elapsed: 0.00038814544677734375
ell 767, elapsed: 0.0003840923309326172
ell 766, elapsed: 0.0003871917724609375
ell 765, elapsed: 0.00038695335388183594
ell 764, elapsed: 0.00038695335388183594
ell 763, elapsed: 0.0003998279571533203
ell 762, elapsed: 0.00038695335388183594
ell 761, elapsed: 0.00038695335388183594
ell 760, elapsed: 0.0003859996795654297
ell 759, elapsed: 0.00038313865661621094
ell 758, elapsed: 0.0003910064697265625
ell 757, elapsed: 0.0003829002380371094
ell 756, elapsed: 0.0003879070281982422
ell 755, elapsed: 0.0003859996795654297
ell 754, elapsed: 0.0003981590270996094
ell 753, elapsed: 0.0004391670227050781
ell 752, elapsed: 0.00039386749267578125
ell 751, elapsed: 0.00038886070251464844
ell 750, elapsed: 0.0003859996795654297
ell 749, elapsed: 0.00038695335388183594
ell 748, elapsed: 0.00039005279541015625
ell 747, elapsed: 0.00039505958557128906
ell 746, elapsed: 0.00039696693420410156
ell 745, elapsed: 0.0003991127014160156
ell 744, elapsed: 0.0004169940948486328
ell 743, elapsed: 0.00039005279541015625
ell 742, elapsed: 0.00039005279541015625
ell 741, elapsed: 0.00038695335388183594
ell 740, elapsed: 0.00038695335388183594
ell 739, elapsed: 0.00038695335388183594
ell 738, elapsed: 0.0003838539123535156
ell 737, elapsed: 0.0003879070281982422
ell 736, elapsed: 0.00038695335388183594
ell 735, elapsed: 0.00040984153747558594
ell 734, elapsed: 0.0003941059112548828
ell 733, elapsed: 0.0003859996795654297
ell 732, elapsed: 0.00039505958557128906
ell 731, elapsed: 0.0003879070281982422
ell 730, elapsed: 0.0003871917724609375
ell 729, elapsed: 0.00038695335388183594
ell 728, elapsed: 0.00038504600524902344
ell 727, elapsed: 0.00038814544677734375
ell 726, elapsed: 0.00039696693420410156
ell 725, elapsed: 0.00038695335388183594
ell 724, elapsed: 0.0003898143768310547
ell 723, elapsed: 0.00039196014404296875
ell 722, elapsed: 0.00038909912109375
ell 721, elapsed: 0.0003879070281982422
ell 720, elapsed: 0.00038695335388183594
ell 719, elapsed: 0.0003998279571533203
ell 718, elapsed: 0.0004138946533203125
ell 717, elapsed: 0.00040721893310546875
ell 716, elapsed: 0.00039386749267578125
ell 715, elapsed: 0.0003941059112548828
ell 714, elapsed: 0.00038814544677734375
ell 713, elapsed: 0.00038695335388183594
ell 712, elapsed: 0.0003848075866699219
ell 711, elapsed: 0.00038814544677734375
ell 710, elapsed: 0.0003859996795654297
ell 709, elapsed: 0.0003859996795654297
ell 708, elapsed: 0.00038504600524902344
ell 707, elapsed: 0.0003941059112548828
ell 706, elapsed: 0.0003848075866699219
ell 705, elapsed: 0.0003819465637207031
ell 704, elapsed: 0.00038695335388183594
ell 703, elapsed: 0.0003840923309326172
ell 702, elapsed: 0.0003879070281982422
ell 701, elapsed: 0.00038313865661621094
ell 700, elapsed: 0.0003840923309326172
ell 699, elapsed: 0.0003840923309326172
ell 698, elapsed: 0.0003960132598876953
ell 697, elapsed: 0.00038814544677734375
ell 696, elapsed: 0.00038504600524902344
ell 695, elapsed: 0.00038313865661621094
ell 694, elapsed: 0.0003859996795654297
ell 693, elapsed: 0.0003829002380371094
ell 692, elapsed: 0.00038695335388183594
ell 691, elapsed: 0.0003859996795654297
ell 690, elapsed: 0.0003840923309326172
ell 689, elapsed: 0.00038504600524902344
ell 688, elapsed: 0.00038695335388183594
ell 687, elapsed: 0.00038695335388183594
ell 686, elapsed: 0.00038695335388183594
ell 685, elapsed: 0.0003848075866699219
ell 684, elapsed: 0.0003898143768310547
ell 683, elapsed: 0.0004181861877441406
ell 682, elapsed: 0.0003941059112548828
ell 681, elapsed: 0.0003859996795654297
ell 680, elapsed: 0.0003840923309326172
ell 679, elapsed: 0.0003960132598876953
ell 678, elapsed: 0.00038504600524902344
ell 677, elapsed: 0.00038504600524902344
ell 676, elapsed: 0.0003859996795654297
ell 675, elapsed: 0.00038504600524902344
ell 674, elapsed: 0.00038313865661621094
ell 673, elapsed: 0.00038504600524902344
ell 672, elapsed: 0.00039505958557128906
ell 671, elapsed: 0.0003910064697265625
ell 670, elapsed: 0.00040793418884277344
ell 669, elapsed: 0.00040602684020996094
ell 668, elapsed: 0.0003819465637207031
ell 667, elapsed: 0.0003879070281982422
ell 666, elapsed: 0.00038695335388183594
ell 665, elapsed: 0.00038814544677734375
ell 664, elapsed: 0.00038504600524902344
ell 663, elapsed: 0.00038695335388183594
ell 662, elapsed: 0.00038695335388183594
ell 661, elapsed: 0.0003859996795654297
ell 660, elapsed: 0.00038814544677734375
ell 659, elapsed: 0.0003840923309326172
ell 658, elapsed: 0.0003840923309326172
ell 657, elapsed: 0.00038695335388183594
ell 656, elapsed: 0.0003840923309326172
ell 655, elapsed: 0.00038695335388183594
ell 654, elapsed: 0.00038504600524902344
ell 653, elapsed: 0.00038695335388183594
ell 652, elapsed: 0.0003859996795654297
ell 651, elapsed: 0.00039696693420410156
ell 650, elapsed: 0.0003859996795654297
ell 649, elapsed: 0.00038313865661621094
ell 648, elapsed: 0.00041985511779785156
ell 647, elapsed: 0.0003941059112548828
ell 646, elapsed: 0.0003840923309326172
ell 645, elapsed: 0.00038909912109375
ell 644, elapsed: 0.0003871917724609375
ell 643, elapsed: 0.0003871917724609375
ell 642, elapsed: 0.00039696693420410156
ell 641, elapsed: 0.0003821849822998047
ell 640, elapsed: 0.00038504600524902344
ell 639, elapsed: 0.0003819465637207031
ell 638, elapsed: 0.00038695335388183594
ell 637, elapsed: 0.0003829002380371094
ell 636, elapsed: 0.0003838539123535156
ell 635, elapsed: 0.0003879070281982422
ell 634, elapsed: 0.00038909912109375
ell 633, elapsed: 0.0003910064697265625
ell 632, elapsed: 0.000392913818359375
ell 631, elapsed: 0.0003879070281982422
ell 630, elapsed: 0.00039696693420410156
ell 629, elapsed: 0.00038695335388183594
ell 628, elapsed: 0.0003941059112548828
ell 627, elapsed: 0.0003859996795654297
ell 626, elapsed: 0.0003859996795654297
ell 625, elapsed: 0.00038909912109375
ell 624, elapsed: 0.00038695335388183594
ell 623, elapsed: 0.0003998279571533203
ell 622, elapsed: 0.0003859996795654297
ell 621, elapsed: 0.00038313865661621094
ell 620, elapsed: 0.00038909912109375
ell 619, elapsed: 0.0003840923309326172
ell 618, elapsed: 0.00038909912109375
ell 617, elapsed: 0.00038504600524902344
ell 616, elapsed: 0.0003859996795654297
ell 615, elapsed: 0.0003829002380371094
ell 614, elapsed: 0.0004029273986816406
ell 613, elapsed: 0.00042510032653808594
ell 612, elapsed: 0.00039005279541015625
ell 611, elapsed: 0.00039005279541015625
ell 610, elapsed: 0.0003859996795654297
ell 609, elapsed: 0.00038504600524902344
ell 608, elapsed: 0.00038814544677734375
ell 607, elapsed: 0.00038313865661621094
ell 606, elapsed: 0.00038695335388183594
ell 605, elapsed: 0.0004000663757324219
ell 604, elapsed: 0.0003840923309326172
ell 603, elapsed: 0.0003879070281982422
ell 602, elapsed: 0.0003840923309326172
ell 601, elapsed: 0.0003871917724609375
ell 600, elapsed: 0.00038504600524902344
ell 599, elapsed: 0.00038886070251464844
ell 598, elapsed: 0.0003879070281982422
ell 597, elapsed: 0.00038814544677734375
ell 596, elapsed: 0.0003871917724609375
ell 595, elapsed: 0.0004010200500488281
ell 594, elapsed: 0.00038504600524902344
ell 593, elapsed: 0.00038886070251464844
ell 592, elapsed: 0.0003829002380371094
ell 591, elapsed: 0.00038814544677734375
ell 590, elapsed: 0.00038313865661621094
ell 589, elapsed: 0.0003991127014160156
ell 588, elapsed: 0.0003871917724609375
ell 587, elapsed: 0.0003859996795654297
ell 586, elapsed: 0.0003981590270996094
ell 585, elapsed: 0.0003871917724609375
ell 584, elapsed: 0.00039005279541015625
ell 583, elapsed: 0.00038695335388183594
ell 582, elapsed: 0.0003840923309326172
ell 581, elapsed: 0.0003879070281982422
ell 580, elapsed: 0.00038695335388183594
ell 579, elapsed: 0.0003960132598876953
ell 578, elapsed: 0.00042700767517089844
ell 577, elapsed: 0.0004010200500488281
ell 576, elapsed: 0.00039005279541015625
ell 575, elapsed: 0.00038695335388183594
ell 574, elapsed: 0.0003898143768310547
ell 573, elapsed: 0.00038504600524902344
ell 572, elapsed: 0.00038909912109375
ell 571, elapsed: 0.0003910064697265625
ell 570, elapsed: 0.00038886070251464844
ell 569, elapsed: 0.00038695335388183594
ell 568, elapsed: 0.00038695335388183594
ell 567, elapsed: 0.0003972053527832031
ell 566, elapsed: 0.00039196014404296875
ell 565, elapsed: 0.00038695335388183594
ell 564, elapsed: 0.00039005279541015625
ell 563, elapsed: 0.00038504600524902344
ell 562, elapsed: 0.0003848075866699219
ell 561, elapsed: 0.0003879070281982422
ell 560, elapsed: 0.0003910064697265625
ell 559, elapsed: 0.00038886070251464844
ell 558, elapsed: 0.0004069805145263672
ell 557, elapsed: 0.0003910064697265625
ell 556, elapsed: 0.00039005279541015625
ell 555, elapsed: 0.0003879070281982422
ell 554, elapsed: 0.00038886070251464844
ell 553, elapsed: 0.0003859996795654297
ell 552, elapsed: 0.0004169940948486328
ell 551, elapsed: 0.0003960132598876953
ell 550, elapsed: 0.00040793418884277344
ell 549, elapsed: 0.00043582916259765625
ell 548, elapsed: 0.0003921985626220703
ell 547, elapsed: 0.00039315223693847656
ell 546, elapsed: 0.0003910064697265625
ell 545, elapsed: 0.0003979206085205078
ell 544, elapsed: 0.0004048347473144531
ell 543, elapsed: 0.000392913818359375
ell 542, elapsed: 0.00038695335388183594
ell 541, elapsed: 0.0003972053527832031
ell 540, elapsed: 0.0003910064697265625
ell 539, elapsed: 0.00038886070251464844
ell 538, elapsed: 0.0003819465637207031
ell 537, elapsed: 0.000392913818359375
ell 536, elapsed: 0.0003819465637207031
ell 535, elapsed: 0.00038504600524902344
ell 534, elapsed: 0.0003859996795654297
ell 533, elapsed: 0.00039196014404296875
ell 532, elapsed: 0.0003879070281982422
ell 531, elapsed: 0.000392913818359375
ell 530, elapsed: 0.00038504600524902344
ell 529, elapsed: 0.00039386749267578125
ell 528, elapsed: 0.0003821849822998047
ell 527, elapsed: 0.00040912628173828125
ell 526, elapsed: 0.00038814544677734375
ell 525, elapsed: 0.0004100799560546875
ell 524, elapsed: 0.0003838539123535156
ell 523, elapsed: 0.00039505958557128906
ell 522, elapsed: 0.00038695335388183594
ell 521, elapsed: 0.0004057884216308594
ell 520, elapsed: 0.0003859996795654297
ell 519, elapsed: 0.0003859996795654297
ell 518, elapsed: 0.0004038810729980469
ell 517, elapsed: 0.00039005279541015625
ell 516, elapsed: 0.00040602684020996094
ell 515, elapsed: 0.00039505958557128906
ell 514, elapsed: 0.00041794776916503906
ell 513, elapsed: 0.0004069805145263672
ell 512, elapsed: 0.0003941059112548828
ell 511, elapsed: 0.0005469322204589844
ell 510, elapsed: 0.0004150867462158203
ell 509, elapsed: 0.00041103363037109375
ell 508, elapsed: 0.00040602684020996094
ell 507, elapsed: 0.0004241466522216797
ell 506, elapsed: 0.0003991127014160156
ell 505, elapsed: 0.0004220008850097656
ell 504, elapsed: 0.0004069805145263672
ell 503, elapsed: 0.000392913818359375
ell 502, elapsed: 0.0004119873046875
ell 501, elapsed: 0.000392913818359375
ell 500, elapsed: 0.00038695335388183594
ell 499, elapsed: 0.0004038810729980469
ell 498, elapsed: 0.00039505958557128906
ell 497, elapsed: 0.0004048347473144531
ell 496, elapsed: 0.00038504600524902344
ell 495, elapsed: 0.00039315223693847656
ell 494, elapsed: 0.000392913818359375
ell 493, elapsed: 0.0003879070281982422
ell 492, elapsed: 0.00040721893310546875
ell 491, elapsed: 0.0004248619079589844
ell 490, elapsed: 0.0003910064697265625
ell 489, elapsed: 0.0003838539123535156
ell 488, elapsed: 0.0004069805145263672
ell 487, elapsed: 0.0004119873046875
ell 486, elapsed: 0.00038909912109375
ell 485, elapsed: 0.0003859996795654297
ell 484, elapsed: 0.00041103363037109375
ell 483, elapsed: 0.00041103363037109375
ell 482, elapsed: 0.000392913818359375
ell 481, elapsed: 0.0004038810729980469
ell 480, elapsed: 0.0004100799560546875
ell 479, elapsed: 0.0003910064697265625
ell 478, elapsed: 0.0003848075866699219
ell 477, elapsed: 0.00038695335388183594
ell 476, elapsed: 0.00039005279541015625
ell 475, elapsed: 0.00038695335388183594
ell 474, elapsed: 0.00038504600524902344
ell 473, elapsed: 0.0003871917724609375
ell 472, elapsed: 0.0003859996795654297
ell 471, elapsed: 0.0003859996795654297
ell 470, elapsed: 0.00038695335388183594
ell 469, elapsed: 0.00038504600524902344
ell 468, elapsed: 0.00038504600524902344
ell 467, elapsed: 0.00038695335388183594
ell 466, elapsed: 0.00038695335388183594
ell 465, elapsed: 0.0003879070281982422
ell 464, elapsed: 0.0003981590270996094
ell 463, elapsed: 0.00039005279541015625
ell 462, elapsed: 0.00038504600524902344
ell 461, elapsed: 0.00039196014404296875
ell 460, elapsed: 0.00038504600524902344
ell 459, elapsed: 0.0003859996795654297
ell 458, elapsed: 0.0003859996795654297
ell 457, elapsed: 0.00038695335388183594
ell 456, elapsed: 0.0003859996795654297
ell 455, elapsed: 0.0003979206085205078
ell 454, elapsed: 0.00038504600524902344
ell 453, elapsed: 0.00038886070251464844
ell 452, elapsed: 0.0003859996795654297
ell 451, elapsed: 0.0004000663757324219
ell 450, elapsed: 0.0003879070281982422
ell 449, elapsed: 0.0003840923309326172
ell 448, elapsed: 0.00038504600524902344
ell 447, elapsed: 0.00038504600524902344
ell 446, elapsed: 0.00040602684020996094
ell 445, elapsed: 0.0004210472106933594
ell 444, elapsed: 0.00039005279541015625
ell 443, elapsed: 0.00038909912109375
ell 442, elapsed: 0.0003838539123535156
ell 441, elapsed: 0.00038909912109375
ell 440, elapsed: 0.00038695335388183594
ell 439, elapsed: 0.00038313865661621094
ell 438, elapsed: 0.0003879070281982422
ell 437, elapsed: 0.0003838539123535156
ell 436, elapsed: 0.0004010200500488281
ell 435, elapsed: 0.0003859996795654297
ell 434, elapsed: 0.00038814544677734375
ell 433, elapsed: 0.0003840923309326172
ell 432, elapsed: 0.00038504600524902344
ell 431, elapsed: 0.00038695335388183594
ell 430, elapsed: 0.0003859996795654297
ell 429, elapsed: 0.00038504600524902344
ell 428, elapsed: 0.0003819465637207031
ell 427, elapsed: 0.00039386749267578125
ell 426, elapsed: 0.00039005279541015625
ell 425, elapsed: 0.0003840923309326172
ell 424, elapsed: 0.0003910064697265625
ell 423, elapsed: 0.00038504600524902344
ell 422, elapsed: 0.00038695335388183594
ell 421, elapsed: 0.00038909912109375
ell 420, elapsed: 0.00038909912109375
ell 419, elapsed: 0.0003910064697265625
ell 418, elapsed: 0.0003859996795654297
ell 417, elapsed: 0.0003879070281982422
ell 416, elapsed: 0.00038886070251464844
ell 415, elapsed: 0.00038814544677734375
ell 414, elapsed: 0.00038695335388183594
ell 413, elapsed: 0.0003871917724609375
ell 412, elapsed: 0.00038504600524902344
ell 411, elapsed: 0.0004220008850097656
ell 410, elapsed: 0.00041103363037109375
ell 409, elapsed: 0.000392913818359375
ell 408, elapsed: 0.0004150867462158203
ell 407, elapsed: 0.0003921985626220703
ell 406, elapsed: 0.0003848075866699219
ell 405, elapsed: 0.00038695335388183594
ell 404, elapsed: 0.00039005279541015625
ell 403, elapsed: 0.0003871917724609375
ell 402, elapsed: 0.00038814544677734375
ell 401, elapsed: 0.0003879070281982422
ell 400, elapsed: 0.0003859996795654297
ell 399, elapsed: 0.0004038810729980469
ell 398, elapsed: 0.00038313865661621094
ell 397, elapsed: 0.00039005279541015625
ell 396, elapsed: 0.00038695335388183594
ell 395, elapsed: 0.00038814544677734375
ell 394, elapsed: 0.000392913818359375
ell 393, elapsed: 0.00038886070251464844
ell 392, elapsed: 0.00039196014404296875
ell 391, elapsed: 0.00038886070251464844
ell 390, elapsed: 0.0004000663757324219
ell 389, elapsed: 0.00039696693420410156
ell 388, elapsed: 0.0003871917724609375
ell 387, elapsed: 0.0003910064697265625
ell 386, elapsed: 0.00038886070251464844
ell 385, elapsed: 0.0003871917724609375
ell 384, elapsed: 0.00039196014404296875
ell 383, elapsed: 0.0003859996795654297
ell 382, elapsed: 0.00039315223693847656
ell 381, elapsed: 0.00038695335388183594
ell 380, elapsed: 0.00040602684020996094
ell 379, elapsed: 0.00038695335388183594
ell 378, elapsed: 0.00038695335388183594
ell 377, elapsed: 0.00039505958557128906
ell 376, elapsed: 0.0004260540008544922
ell 375, elapsed: 0.0004050731658935547
ell 374, elapsed: 0.00039196014404296875
ell 373, elapsed: 0.0003879070281982422
ell 372, elapsed: 0.0003921985626220703
ell 371, elapsed: 0.0003998279571533203
ell 370, elapsed: 0.0003910064697265625
ell 369, elapsed: 0.00038695335388183594
ell 368, elapsed: 0.00038695335388183594
ell 367, elapsed: 0.0003910064697265625
ell 366, elapsed: 0.0003879070281982422
ell 365, elapsed: 0.0003910064697265625
ell 364, elapsed: 0.00038695335388183594
ell 363, elapsed: 0.0003859996795654297
ell 362, elapsed: 0.00040793418884277344
ell 361, elapsed: 0.0003848075866699219
ell 360, elapsed: 0.0003921985626220703
ell 359, elapsed: 0.0003871917724609375
ell 358, elapsed: 0.0003879070281982422
ell 357, elapsed: 0.00038909912109375
ell 356, elapsed: 0.0003871917724609375
ell 355, elapsed: 0.00039505958557128906
ell 354, elapsed: 0.0003859996795654297
ell 353, elapsed: 0.0004000663757324219
ell 352, elapsed: 0.00039005279541015625
ell 351, elapsed: 0.00038695335388183594
ell 350, elapsed: 0.000392913818359375
ell 349, elapsed: 0.00038909912109375
ell 348, elapsed: 0.00038313865661621094
ell 347, elapsed: 0.0003859996795654297
ell 346, elapsed: 0.0003859996795654297
ell 345, elapsed: 0.0003910064697265625
ell 344, elapsed: 0.0003840923309326172
ell 343, elapsed: 0.0004029273986816406
ell 342, elapsed: 0.0003910064697265625
ell 341, elapsed: 0.00042510032653808594
ell 340, elapsed: 0.000392913818359375
ell 339, elapsed: 0.0003879070281982422
ell 338, elapsed: 0.00038695335388183594
ell 337, elapsed: 0.00038695335388183594
ell 336, elapsed: 0.0003859996795654297
ell 335, elapsed: 0.00039005279541015625
ell 334, elapsed: 0.0004000663757324219
ell 333, elapsed: 0.00039005279541015625
ell 332, elapsed: 0.0003859996795654297
ell 331, elapsed: 0.00038814544677734375
ell 330, elapsed: 0.00038695335388183594
ell 329, elapsed: 0.00038504600524902344
ell 328, elapsed: 0.0003859996795654297
ell 327, elapsed: 0.0003871917724609375
ell 326, elapsed: 0.0003859996795654297
ell 325, elapsed: 0.0004000663757324219
ell 324, elapsed: 0.0003859996795654297
ell 323, elapsed: 0.0004019737243652344
ell 322, elapsed: 0.00039005279541015625
ell 321, elapsed: 0.0003840923309326172
ell 320, elapsed: 0.0003979206085205078
ell 319, elapsed: 0.0004069805145263672
ell 318, elapsed: 0.0004050731658935547
ell 317, elapsed: 0.0003910064697265625
ell 316, elapsed: 0.00039386749267578125
ell 315, elapsed: 0.00038313865661621094
ell 314, elapsed: 0.0003910064697265625
ell 313, elapsed: 0.00038695335388183594
ell 312, elapsed: 0.0004069805145263672
ell 311, elapsed: 0.00041103363037109375
ell 310, elapsed: 0.00038909912109375
ell 309, elapsed: 0.0003838539123535156
ell 308, elapsed: 0.0004520416259765625
ell 307, elapsed: 0.00041103363037109375
ell 306, elapsed: 0.0004031658172607422
ell 305, elapsed: 0.00039196014404296875
ell 304, elapsed: 0.0004050731658935547
ell 303, elapsed: 0.00039696693420410156
ell 302, elapsed: 0.00039386749267578125
ell 301, elapsed: 0.0003960132598876953
ell 300, elapsed: 0.00040221214294433594
ell 299, elapsed: 0.00039386749267578125
ell 298, elapsed: 0.0003948211669921875
ell 297, elapsed: 0.00038909912109375
ell 296, elapsed: 0.0003910064697265625
ell 295, elapsed: 0.0004050731658935547
ell 294, elapsed: 0.00039315223693847656
ell 293, elapsed: 0.00039577484130859375
ell 292, elapsed: 0.00040411949157714844
ell 291, elapsed: 0.00040912628173828125
ell 290, elapsed: 0.00039196014404296875
ell 289, elapsed: 0.00039386749267578125
ell 288, elapsed: 0.00039315223693847656
ell 287, elapsed: 0.0003910064697265625
ell 286, elapsed: 0.00038814544677734375
ell 285, elapsed: 0.00039005279541015625
ell 284, elapsed: 0.0004029273986816406
ell 283, elapsed: 0.0003910064697265625
ell 282, elapsed: 0.00040602684020996094
ell 281, elapsed: 0.0003960132598876953
ell 280, elapsed: 0.00039315223693847656
ell 279, elapsed: 0.0003960132598876953
ell 278, elapsed: 0.0003840923309326172
ell 277, elapsed: 0.000431060791015625
ell 276, elapsed: 0.0004248619079589844
ell 275, elapsed: 0.0004220008850097656
ell 274, elapsed: 0.00041985511779785156
ell 273, elapsed: 0.00040984153747558594
ell 272, elapsed: 0.0003848075866699219
ell 271, elapsed: 0.00039887428283691406
ell 270, elapsed: 0.00038695335388183594
ell 269, elapsed: 0.00039005279541015625
ell 268, elapsed: 0.00041604042053222656
ell 267, elapsed: 0.00039005279541015625
ell 266, elapsed: 0.0003859996795654297
ell 265, elapsed: 0.00038504600524902344
ell 264, elapsed: 0.0003859996795654297
ell 263, elapsed: 0.00038695335388183594
ell 262, elapsed: 0.00038313865661621094
ell 261, elapsed: 0.00038695335388183594
ell 260, elapsed: 0.0003848075866699219
ell 259, elapsed: 0.0003859996795654297
ell 258, elapsed: 0.0004029273986816406
ell 257, elapsed: 0.00038504600524902344
ell 256, elapsed: 0.0003859996795654297
ell 255, elapsed: 0.00038814544677734375
ell 254, elapsed: 0.00038886070251464844
ell 253, elapsed: 0.00038313865661621094
ell 252, elapsed: 0.0004229545593261719
ell 251, elapsed: 0.0003910064697265625
ell 250, elapsed: 0.00038504600524902344
ell 249, elapsed: 0.00039696693420410156
ell 248, elapsed: 0.00038909912109375
ell 247, elapsed: 0.00038695335388183594
ell 246, elapsed: 0.0003871917724609375
ell 245, elapsed: 0.0003829002380371094
ell 244, elapsed: 0.00038909912109375
ell 243, elapsed: 0.00043010711669921875
ell 242, elapsed: 0.00039315223693847656
ell 241, elapsed: 0.00038909912109375
ell 240, elapsed: 0.0004010200500488281
ell 239, elapsed: 0.0003859996795654297
ell 238, elapsed: 0.0003879070281982422
ell 237, elapsed: 0.0003859996795654297
ell 236, elapsed: 0.0003879070281982422
ell 235, elapsed: 0.00038504600524902344
ell 234, elapsed: 0.0003941059112548828
ell 233, elapsed: 0.0003859996795654297
ell 232, elapsed: 0.00039005279541015625
ell 231, elapsed: 0.0003859996795654297
ell 230, elapsed: 0.00039505958557128906
ell 229, elapsed: 0.0003871917724609375
ell 228, elapsed: 0.00039005279541015625
ell 227, elapsed: 0.00038504600524902344
ell 226, elapsed: 0.0003840923309326172
ell 225, elapsed: 0.00038695335388183594
ell 224, elapsed: 0.00038814544677734375
ell 223, elapsed: 0.00038695335388183594
ell 222, elapsed: 0.00038909912109375
ell 221, elapsed: 0.0003979206085205078
ell 220, elapsed: 0.00038814544677734375
ell 219, elapsed: 0.00038504600524902344
ell 218, elapsed: 0.0003859996795654297
ell 217, elapsed: 0.0003921985626220703
ell 216, elapsed: 0.0003879070281982422
ell 215, elapsed: 0.00038695335388183594
ell 214, elapsed: 0.0003838539123535156
ell 213, elapsed: 0.0003859996795654297
ell 212, elapsed: 0.0004010200500488281
ell 211, elapsed: 0.00038504600524902344
ell 210, elapsed: 0.00038695335388183594
ell 209, elapsed: 0.0003859996795654297
ell 208, elapsed: 0.0004241466522216797
ell 207, elapsed: 0.0004000663757324219
ell 206, elapsed: 0.00038909912109375
ell 205, elapsed: 0.000392913818359375
ell 204, elapsed: 0.0003859996795654297
ell 203, elapsed: 0.00039887428283691406
ell 202, elapsed: 0.00039196014404296875
ell 201, elapsed: 0.0003879070281982422
ell 200, elapsed: 0.00039386749267578125
ell 199, elapsed: 0.00038886070251464844
ell 198, elapsed: 0.0003859996795654297
ell 197, elapsed: 0.0003910064697265625
ell 196, elapsed: 0.00038504600524902344
ell 195, elapsed: 0.00039196014404296875
ell 194, elapsed: 0.0003848075866699219
ell 193, elapsed: 0.0004100799560546875
ell 192, elapsed: 0.0003879070281982422
ell 191, elapsed: 0.0003840923309326172
ell 190, elapsed: 0.0003910064697265625
ell 189, elapsed: 0.0003840923309326172
ell 188, elapsed: 0.000392913818359375
ell 187, elapsed: 0.0003829002380371094
ell 186, elapsed: 0.0003848075866699219
ell 185, elapsed: 0.0003910064697265625
ell 184, elapsed: 0.0003972053527832031
ell 183, elapsed: 0.0003898143768310547
ell 182, elapsed: 0.0004220008850097656
ell 181, elapsed: 0.00038695335388183594
ell 180, elapsed: 0.00039196014404296875
ell 179, elapsed: 0.0003840923309326172
ell 178, elapsed: 0.00038814544677734375
ell 177, elapsed: 0.0003829002380371094
ell 176, elapsed: 0.00038695335388183594
ell 175, elapsed: 0.00039887428283691406
ell 174, elapsed: 0.0003981590270996094
ell 173, elapsed: 0.00040602684020996094
ell 172, elapsed: 0.00039196014404296875
ell 171, elapsed: 0.0003848075866699219
ell 170, elapsed: 0.0004010200500488281
ell 169, elapsed: 0.0003838539123535156
ell 168, elapsed: 0.00038886070251464844
ell 167, elapsed: 0.0003800392150878906
ell 166, elapsed: 0.00038695335388183594
ell 165, elapsed: 0.0003960132598876953
ell 164, elapsed: 0.00038504600524902344
ell 163, elapsed: 0.0003879070281982422
ell 162, elapsed: 0.00038504600524902344
ell 161, elapsed: 0.0003871917724609375
ell 160, elapsed: 0.0003838539123535156
ell 159, elapsed: 0.0003840923309326172
ell 158, elapsed: 0.0003859996795654297
ell 157, elapsed: 0.0003859996795654297
ell 156, elapsed: 0.00039696693420410156
ell 155, elapsed: 0.0003859996795654297
ell 154, elapsed: 0.0003840923309326172
ell 153, elapsed: 0.00038695335388183594
ell 152, elapsed: 0.0003819465637207031
ell 151, elapsed: 0.0003879070281982422
ell 150, elapsed: 0.00038504600524902344
ell 149, elapsed: 0.0003838539123535156
ell 148, elapsed: 0.00038695335388183594
ell 147, elapsed: 0.00039696693420410156
ell 146, elapsed: 0.0003871917724609375
ell 145, elapsed: 0.00038695335388183594
ell 144, elapsed: 0.00038313865661621094
ell 143, elapsed: 0.0003879070281982422
ell 142, elapsed: 0.0003859996795654297
ell 141, elapsed: 0.00038909912109375
ell 140, elapsed: 0.0003838539123535156
ell 139, elapsed: 0.00038504600524902344
ell 138, elapsed: 0.0004239082336425781
ell 137, elapsed: 0.0004029273986816406
ell 136, elapsed: 0.0003859996795654297
ell 135, elapsed: 0.0003859996795654297
ell 134, elapsed: 0.00038695335388183594
ell 133, elapsed: 0.0003840923309326172
ell 132, elapsed: 0.0003829002380371094
ell 131, elapsed: 0.00038695335388183594
ell 130, elapsed: 0.0003840923309326172
ell 129, elapsed: 0.0003859996795654297
ell 128, elapsed: 0.00039505958557128906
ell 127, elapsed: 0.0003840923309326172
ell 126, elapsed: 0.0003848075866699219
ell 125, elapsed: 0.00038313865661621094
ell 124, elapsed: 0.00038695335388183594
ell 123, elapsed: 0.0003829002380371094
ell 122, elapsed: 0.0003859996795654297
ell 121, elapsed: 0.00038504600524902344
ell 120, elapsed: 0.00038504600524902344
ell 119, elapsed: 0.0003898143768310547
ell 118, elapsed: 0.0003859996795654297
ell 117, elapsed: 0.00038313865661621094
ell 116, elapsed: 0.00039005279541015625
ell 115, elapsed: 0.00038504600524902344
ell 114, elapsed: 0.00039196014404296875
ell 113, elapsed: 0.0003840923309326172
ell 112, elapsed: 0.0003859996795654297
ell 111, elapsed: 0.00039005279541015625
ell 110, elapsed: 0.00039005279541015625
ell 109, elapsed: 0.0004069805145263672
ell 108, elapsed: 0.0003859996795654297
ell 107, elapsed: 0.00038504600524902344
ell 106, elapsed: 0.0003859996795654297
ell 105, elapsed: 0.0003829002380371094
ell 104, elapsed: 0.00038909912109375
ell 103, elapsed: 0.0004279613494873047
ell 102, elapsed: 0.0003991127014160156
ell 101, elapsed: 0.00038504600524902344
ell 100, elapsed: 0.0004010200500488281
ell 99, elapsed: 0.0003879070281982422
ell 98, elapsed: 0.00038695335388183594
ell 97, elapsed: 0.0003859996795654297
ell 96, elapsed: 0.0003829002380371094
ell 95, elapsed: 0.0003979206085205078
ell 94, elapsed: 0.0003848075866699219
ell 93, elapsed: 0.00038695335388183594
ell 92, elapsed: 0.0003859996795654297
ell 91, elapsed: 0.0003819465637207031
ell 90, elapsed: 0.0003879070281982422
ell 89, elapsed: 0.0003859996795654297
ell 88, elapsed: 0.0003879070281982422
ell 87, elapsed: 0.00038504600524902344
ell 86, elapsed: 0.0003821849822998047
ell 85, elapsed: 0.0003840923309326172
ell 84, elapsed: 0.00038504600524902344
ell 83, elapsed: 0.0003840923309326172
ell 82, elapsed: 0.00038313865661621094
ell 81, elapsed: 0.00044608116149902344
ell 80, elapsed: 0.00038504600524902344
ell 79, elapsed: 0.00038695335388183594
ell 78, elapsed: 0.0003800392150878906
ell 77, elapsed: 0.0003859996795654297
ell 76, elapsed: 0.0003788471221923828
ell 75, elapsed: 0.0003840923309326172
ell 74, elapsed: 0.00038504600524902344
ell 73, elapsed: 0.0003840923309326172
ell 72, elapsed: 0.00044918060302734375
ell 71, elapsed: 0.00038695335388183594
ell 70, elapsed: 0.0003848075866699219
ell 69, elapsed: 0.0003879070281982422
ell 68, elapsed: 0.0004138946533203125
ell 67, elapsed: 0.0003960132598876953
ell 66, elapsed: 0.0003829002380371094
ell 65, elapsed: 0.0003838539123535156
ell 64, elapsed: 0.0003819465637207031
ell 63, elapsed: 0.0004520416259765625
ell 62, elapsed: 0.0003941059112548828
ell 61, elapsed: 0.00038504600524902344
ell 60, elapsed: 0.0003848075866699219
ell 59, elapsed: 0.0003809928894042969
ell 58, elapsed: 0.0003859996795654297
ell 57, elapsed: 0.0003838539123535156
ell 56, elapsed: 0.0003829002380371094
ell 55, elapsed: 0.0003840923309326172
ell 54, elapsed: 0.00038313865661621094
ell 53, elapsed: 0.00044798851013183594
ell 52, elapsed: 0.0003910064697265625
ell 51, elapsed: 0.00038313865661621094
ell 50, elapsed: 0.00038695335388183594
ell 49, elapsed: 0.0003809928894042969
ell 48, elapsed: 0.00038909912109375
ell 47, elapsed: 0.0003821849822998047
ell 46, elapsed: 0.0003819465637207031
ell 45, elapsed: 0.0003848075866699219
ell 44, elapsed: 0.0004489421844482422
ell 43, elapsed: 0.0003859996795654297
ell 42, elapsed: 0.0003840923309326172
ell 41, elapsed: 0.00038504600524902344
ell 40, elapsed: 0.0003879070281982422
ell 39, elapsed: 0.00037980079650878906
ell 38, elapsed: 0.00038695335388183594
ell 37, elapsed: 0.00038886070251464844
ell 36, elapsed: 0.00038695335388183594
ell 35, elapsed: 0.0004601478576660156
ell 34, elapsed: 0.0004100799560546875
ell 33, elapsed: 0.0004038810729980469
ell 32, elapsed: 0.00038886070251464844
ell 31, elapsed: 0.0003859996795654297
ell 30, elapsed: 0.00038504600524902344
ell 29, elapsed: 0.00038313865661621094
ell 28, elapsed: 0.00038504600524902344
ell 27, elapsed: 0.00039696693420410156
ell 26, elapsed: 0.0003809928894042969
ell 25, elapsed: 0.00039696693420410156
ell 24, elapsed: 0.00038313865661621094
ell 23, elapsed: 0.00038695335388183594
ell 22, elapsed: 0.0003879070281982422
ell 21, elapsed: 0.00038695335388183594
ell 20, elapsed: 0.0003879070281982422
ell 19, elapsed: 0.0003898143768310547
ell 18, elapsed: 0.00038695335388183594
ell 17, elapsed: 0.00038909912109375
ell 16, elapsed: 0.0003979206085205078
ell 15, elapsed: 0.00039005279541015625
ell 14, elapsed: 0.0003838539123535156
ell 13, elapsed: 0.00038695335388183594
ell 12, elapsed: 0.00038504600524902344
ell 11, elapsed: 0.00038909912109375
ell 10, elapsed: 0.00038695335388183594
ell 9, elapsed: 0.00038695335388183594
ell 8, elapsed: 0.00038814544677734375
ell 7, elapsed: 0.0003979206085205078
ell 6, elapsed: 0.00038886070251464844
ell 5, elapsed: 0.00038909912109375
ell 4, elapsed: 0.00039315223693847656
ell 3, elapsed: 0.00039005279541015625
ell 2, elapsed: 0.00039005279541015625
ell 1, elapsed: 0.00038695335388183594
ell 0, elapsed: 0.00038814544677734375
  0.554445 seconds (102.45 k allocations: 3.952 MiB)
elapsed: 0.0005128383636474609
step:          0.057613 sec (0 allocations: 0 byte, 0.0% gc time)
swapping:      0.000574 sec (0 allocations: 0 byte, 0.0% gc time)
calc_Mellell!: 0.008969 sec (0 allocations: 0 byte, 0.0% gc time)
  t0 :  0.001747 sec (0 allocations: 0 byte, 0.0% gc time)
  tm2 : 0.08207 sec (0 allocations: 0 byte, 0.0% gc time)
  tm2s: 0.001534 sec (0 allocations: 0 byte, 0.0% gc time)
  tm4 : 0.227697 sec (0 allocations: 0 byte, 0.0% gc time)
  tp2 : 0.0 sec (0 allocations: 0 byte, 0.0% gc time)
  tp2s: 0.0 sec (0 allocations: 0 byte, 0.0% gc time)
  tp4 : 0.0 sec (0 allocations: 0 byte, 0.0% gc time)
calc_wtdll!:   0.345412 sec (9.9 k allocations: 1.047 MB, 0.0% gc time)
calc_wljj!:    0.035973 sec (689 allocations: 10.766 KB, 0.0% gc time)
mult_prefac!:  0.0 sec (0 allocations: 0 byte, 0.0% gc time)
convert:       0.0 sec (0 allocations: 0 byte, 0.0% gc time)
write:         0.031566 sec (0 allocations: 0 byte, 0.0% gc time)
test_rand_2f1: 0.0 sec (0 allocations: 0 byte, 0.0% gc time)
Closing outfile out/Ml21-cache.bin...   0.000008 seconds
  0.000443 seconds (36 allocations: 27.953 KiB)
make_phi():   0.002645 seconds (8.18 k allocations: 237.844 KiB)
  0.213773 seconds (141.90 k allocations: 3.483 MiB)
tskip:       0.00478 sec (0 allocations: 0 byte, 0.0% gc time)
tread:       0.022723 sec (17 allocations: 10.641 KB, 0.0% gc time)
tmultphi:    0.016144 sec (0 allocations: 0 byte, 0.0% gc time)
tbrfft:      0.043681 sec (0 allocations: 0 byte, 0.0% gc time)
tmultprefac: 0.048073 sec (0 allocations: 0 byte, 0.0% gc time)
toutfunc:    0.07471 sec (127.507 k allocations: 2.312 MB, 0.0% gc time)
Testing R=1.0 ... passed
Calculating fmax: 
  dlrec    = 4
  dlrecRg1 = -4
  q=1.1, R=0.9:	  0.506714 seconds (105.76 k allocations: 15.287 MiB)

  0.507010 seconds (105.99 k allocations: 15.324 MiB)
ℓ = 1202
Δℓ = 4
ΔℓRg1 = -4
N = 1600
q = 1.1
kmin = 1.0e-5
kmax = 100000.00000000004
χ0 = 0.023029999999999995
RR = RR.tsv
ℓmax = ℓmax.bin
f21 = f21.bin
kmin = 1.0e-5
kmax = 100000.0
dlrec    = 4
dlrecRg1 = -4
Output size: 5741568 bytes = 0.005347251892089844 GiB
Output size: 51264 bytes = 4.774332046508789e-5 GiB
Reading 'out/F21EllCache'...   0.002041 seconds (197 allocations: 84.203 KiB)
ellmax: 1202
lmaxcache: 1202
fell[:,1,1] = ComplexF64[1.3482014726274674e-57 - 3.302141236118086e-73im, 1.357860004724329e-57 - 3.3257978169518355e-73im]
ell 1202, elapsed: 2.5033950805664062e-5
ell 1201, elapsed: 0.0004680156707763672
ell 1200, elapsed: 0.0004229545593261719
ell 1199, elapsed: 0.0004138946533203125
ell 1198, elapsed: 0.0004189014434814453
ell 1002, elapsed: 0.01022195816040039
ell 1001, elapsed: 0.0003440380096435547
ell 1000, elapsed: 0.00032901763916015625
ell 999, elapsed: 0.0003299713134765625
ell 998, elapsed: 0.00032901763916015625
ell 902, elapsed: 0.005063056945800781
ell 901, elapsed: 0.0003352165222167969
ell 900, elapsed: 0.0003330707550048828
ell 899, elapsed: 0.000331878662109375
ell 898, elapsed: 0.00035691261291503906
ell 802, elapsed: 0.005213022232055664
ell 801, elapsed: 0.0003390312194824219
ell 800, elapsed: 0.00033402442932128906
ell 799, elapsed: 0.00033092498779296875
ell 798, elapsed: 0.000331878662109375
ell 702, elapsed: 0.0050508975982666016
ell 701, elapsed: 0.00033402442932128906
ell 700, elapsed: 0.0003311634063720703
ell 699, elapsed: 0.000331878662109375
ell 698, elapsed: 0.00033092498779296875
ell 602, elapsed: 0.0051059722900390625
ell 601, elapsed: 0.0003380775451660156
ell 600, elapsed: 0.0003330707550048828
ell 599, elapsed: 0.000331878662109375
ell 598, elapsed: 0.000331878662109375
ell 502, elapsed: 0.005063056945800781
ell 501, elapsed: 0.00033402442932128906
ell 500, elapsed: 0.0003330707550048828
ell 499, elapsed: 0.00033211708068847656
ell 498, elapsed: 0.00033211708068847656
ell 402, elapsed: 0.009151935577392578
ell 401, elapsed: 0.00034999847412109375
ell 400, elapsed: 0.000331878662109375
ell 399, elapsed: 0.00033283233642578125
ell 398, elapsed: 0.0003311634063720703
ell 302, elapsed: 0.005057811737060547
ell 301, elapsed: 0.00033593177795410156
ell 300, elapsed: 0.00033092498779296875
ell 299, elapsed: 0.00033402442932128906
ell 298, elapsed: 0.0003428459167480469
ell 202, elapsed: 0.005115032196044922
ell 201, elapsed: 0.0003349781036376953
ell 200, elapsed: 0.00033402442932128906
ell 199, elapsed: 0.000331878662109375
ell 198, elapsed: 0.00033211708068847656
ell 152, elapsed: 0.0026171207427978516
ell 151, elapsed: 0.00032901763916015625
ell 150, elapsed: 0.0003330707550048828
ell 149, elapsed: 0.00032901763916015625
ell 148, elapsed: 0.00033402442932128906
ell 127, elapsed: 0.0013790130615234375
ell 126, elapsed: 0.00033092498779296875
ell 125, elapsed: 0.0003311634063720703
ell 124, elapsed: 0.000331878662109375
ell 123, elapsed: 0.0003299713134765625
ell 114, elapsed: 0.0007879734039306641
ell 113, elapsed: 0.0003299713134765625
ell 112, elapsed: 0.00032901763916015625
ell 111, elapsed: 0.00032901763916015625
ell 110, elapsed: 0.00033283233642578125
ell 102, elapsed: 0.0007309913635253906
ell 101, elapsed: 0.000370025634765625
ell 100, elapsed: 0.0003428459167480469
ell 99, elapsed: 0.0003287792205810547
ell 98, elapsed: 0.0003299713134765625
ell 97, elapsed: 0.00039887428283691406
ell 96, elapsed: 0.0003941059112548828
ell 95, elapsed: 0.00039386749267578125
ell 94, elapsed: 0.00039196014404296875
ell 93, elapsed: 0.0003921985626220703
ell 92, elapsed: 0.00039196014404296875
ell 91, elapsed: 0.0003859996795654297
ell 90, elapsed: 0.00038909912109375
ell 89, elapsed: 0.00039005279541015625
ell 88, elapsed: 0.00038909912109375
ell 87, elapsed: 0.00038909912109375
ell 86, elapsed: 0.0003859996795654297
ell 85, elapsed: 0.0003998279571533203
ell 84, elapsed: 0.0003910064697265625
ell 83, elapsed: 0.00038909912109375
ell 82, elapsed: 0.00039505958557128906
ell 81, elapsed: 0.00038695335388183594
ell 80, elapsed: 0.00038695335388183594
ell 79, elapsed: 0.00039386749267578125
ell 78, elapsed: 0.0003879070281982422
ell 77, elapsed: 0.000392913818359375
ell 76, elapsed: 0.0003998279571533203
ell 75, elapsed: 0.0003879070281982422
ell 74, elapsed: 0.00039315223693847656
ell 73, elapsed: 0.0003910064697265625
ell 72, elapsed: 0.00039696693420410156
ell 71, elapsed: 0.0003910064697265625
ell 70, elapsed: 0.00038909912109375
ell 69, elapsed: 0.0003960132598876953
ell 68, elapsed: 0.0003879070281982422
ell 67, elapsed: 0.0004029273986816406
ell 66, elapsed: 0.0004229545593261719
ell 65, elapsed: 0.0004138946533203125
ell 64, elapsed: 0.0003981590270996094
ell 63, elapsed: 0.0003859996795654297
ell 62, elapsed: 0.00039386749267578125
ell 61, elapsed: 0.00039076805114746094
ell 60, elapsed: 0.00038814544677734375
ell 59, elapsed: 0.0003972053527832031
ell 58, elapsed: 0.00039005279541015625
ell 57, elapsed: 0.0003941059112548828
ell 56, elapsed: 0.0003879070281982422
ell 55, elapsed: 0.00039196014404296875
ell 54, elapsed: 0.0003910064697265625
ell 53, elapsed: 0.00038909912109375
ell 52, elapsed: 0.00039315223693847656
ell 51, elapsed: 0.00039196014404296875
ell 50, elapsed: 0.00038504600524902344
ell 49, elapsed: 0.000392913818359375
ell 48, elapsed: 0.0004019737243652344
ell 47, elapsed: 0.0003948211669921875
ell 46, elapsed: 0.0003871917724609375
ell 45, elapsed: 0.00038909912109375
ell 44, elapsed: 0.0003910064697265625
ell 43, elapsed: 0.00038814544677734375
ell 42, elapsed: 0.000392913818359375
ell 41, elapsed: 0.00038695335388183594
ell 40, elapsed: 0.00038909912109375
ell 39, elapsed: 0.00041484832763671875
ell 38, elapsed: 0.0003910064697265625
ell 37, elapsed: 0.0003941059112548828
ell 36, elapsed: 0.0003879070281982422
ell 35, elapsed: 0.000392913818359375
ell 34, elapsed: 0.00039005279541015625
ell 33, elapsed: 0.0003910064697265625
ell 32, elapsed: 0.0003979206085205078
ell 31, elapsed: 0.0004248619079589844
ell 30, elapsed: 0.0004150867462158203
ell 29, elapsed: 0.00039315223693847656
ell 28, elapsed: 0.00038886070251464844
ell 27, elapsed: 0.0003960132598876953
ell 26, elapsed: 0.00039005279541015625
ell 25, elapsed: 0.00039005279541015625
ell 24, elapsed: 0.00039196014404296875
ell 23, elapsed: 0.00038695335388183594
ell 22, elapsed: 0.00039196014404296875
ell 21, elapsed: 0.0003981590270996094
ell 20, elapsed: 0.0003979206085205078
ell 19, elapsed: 0.00038695335388183594
ell 18, elapsed: 0.00039196014404296875
ell 17, elapsed: 0.0003910064697265625
ell 16, elapsed: 0.00039076805114746094
ell 15, elapsed: 0.0003910064697265625
ell 14, elapsed: 0.0003879070281982422
ell 13, elapsed: 0.0003859996795654297
ell 12, elapsed: 0.0003960132598876953
ell 11, elapsed: 0.0004057884216308594
ell 10, elapsed: 0.000392913818359375
ell 9, elapsed: 0.0003921985626220703
ell 8, elapsed: 0.00039196014404296875
ell 7, elapsed: 0.00039196014404296875
ell 6, elapsed: 0.00039005279541015625
ell 5, elapsed: 0.000392913818359375
ell 4, elapsed: 0.00038814544677734375
ell 3, elapsed: 0.00038886070251464844
ell 2, elapsed: 0.0004029273986816406
ell 1, elapsed: 0.00038886070251464844
ell 0, elapsed: 0.00039196014404296875
  0.125586 seconds (19.65 k allocations: 846.906 KiB)
elapsed: 0.00047087669372558594
step:          0.061411 sec (0 allocations: 0 byte, 0.0% gc time)
swapping:      0.000476 sec (0 allocations: 0 byte, 0.0% gc time)
calc_Mellell!: 0.001266 sec (0 allocations: 0 byte, 0.0% gc time)
  t0 :  0.000315 sec (0 allocations: 0 byte, 0.0% gc time)
  tm2 : 0.011473 sec (0 allocations: 0 byte, 0.0% gc time)
  tm2s: 0.000276 sec (0 allocations: 0 byte, 0.0% gc time)
  tm4 : 0.032016 sec (0 allocations: 0 byte, 0.0% gc time)
  tp2 : 0.0 sec (0 allocations: 0 byte, 0.0% gc time)
  tp2s: 0.0 sec (0 allocations: 0 byte, 0.0% gc time)
  tp4 : 0.0 sec (0 allocations: 0 byte, 0.0% gc time)
calc_wtdll!:   0.044556 sec (1.344 k allocations: 147.0 KB, 0.0% gc time)
calc_wljj!:    0.003423 sec (6 allocations: 96 byte, 0.0% gc time)
mult_prefac!:  0.0 sec (0 allocations: 0 byte, 0.0% gc time)
convert:       0.0 sec (0 allocations: 0 byte, 0.0% gc time)
write:         0.003317 sec (0 allocations: 0 byte, 0.0% gc time)
test_rand_2f1: 0.0 sec (0 allocations: 0 byte, 0.0% gc time)
Closing outfile out/Ml21-cache.bin...   0.000006 seconds
  0.000405 seconds (36 allocations: 27.953 KiB)
make_phi():   0.002693 seconds (8.18 k allocations: 237.844 KiB)
  0.018835 seconds (11.65 k allocations: 308.688 KiB)
tskip:       1.8e-5 sec (0 allocations: 0 byte, 0.0% gc time)
tread:       0.002519 sec (17 allocations: 2.125 KB, 0.0% gc time)
tmultphi:    0.001536 sec (0 allocations: 0 byte, 0.0% gc time)
tbrfft:      0.003984 sec (0 allocations: 0 byte, 0.0% gc time)
tmultprefac: 0.004495 sec (0 allocations: 0 byte, 0.0% gc time)
toutfunc:    0.005955 sec (10.304 k allocations: 196.0 KB, 0.0% gc time)
Testing R=0.9 ... passed
Calculating fmax: 
  dlrec    = 4
  dlrecRg1 = -4
  q=1.1, R=0.8:	  0.409522 seconds (103.25 k allocations: 14.856 MiB)

  0.409798 seconds (103.48 k allocations: 14.893 MiB)
ℓ = 1202
Δℓ = 4
ΔℓRg1 = -4
N = 1600
q = 1.1
kmin = 1.0e-5
kmax = 100000.00000000004
χ0 = 0.023029999999999995
RR = RR.tsv
ℓmax = ℓmax.bin
f21 = f21.bin
kmin = 1.0e-5
kmax = 100000.0
dlrec    = 4
dlrecRg1 = -4
Output size: 5741568 bytes = 0.005347251892089844 GiB
Output size: 51264 bytes = 4.774332046508789e-5 GiB
Reading 'out/F21EllCache'...   0.000991 seconds (197 allocations: 84.203 KiB)
ellmax: 1202
lmaxcache: 1202
fell[:,1,1] = ComplexF64[7.519068145690986e-120 - 1.8416405474382574e-135im, 7.541664537386155e-120 - 1.847175067190611e-135im]
ell 1202, elapsed: 2.3126602172851562e-5
ell 1201, elapsed: 0.00041604042053222656
ell 1200, elapsed: 0.00033402442932128906
ell 1199, elapsed: 0.0003311634063720703
ell 1198, elapsed: 0.0004029273986816406
ell 1002, elapsed: 0.010041952133178711
ell 1001, elapsed: 0.000347137451171875
ell 1000, elapsed: 0.00033283233642578125
ell 999, elapsed: 0.00033092498779296875
ell 998, elapsed: 0.00033092498779296875
ell 902, elapsed: 0.005079984664916992
ell 901, elapsed: 0.0003390312194824219
ell 900, elapsed: 0.0003311634063720703
ell 899, elapsed: 0.00033211708068847656
ell 898, elapsed: 0.00033211708068847656
ell 802, elapsed: 0.005099058151245117
ell 801, elapsed: 0.0003380775451660156
ell 800, elapsed: 0.0003838539123535156
ell 799, elapsed: 0.0003311634063720703
ell 798, elapsed: 0.0003299713134765625
ell 702, elapsed: 0.005053997039794922
ell 701, elapsed: 0.00033402442932128906
ell 700, elapsed: 0.0003311634063720703
ell 699, elapsed: 0.0003330707550048828
ell 698, elapsed: 0.0003330707550048828
ell 602, elapsed: 0.005097150802612305
ell 601, elapsed: 0.0003390312194824219
ell 600, elapsed: 0.00033092498779296875
ell 599, elapsed: 0.0003299713134765625
ell 598, elapsed: 0.0003311634063720703
ell 502, elapsed: 0.0050601959228515625
ell 501, elapsed: 0.0003330707550048828
ell 500, elapsed: 0.0003399848937988281
ell 499, elapsed: 0.0003330707550048828
ell 498, elapsed: 0.000331878662109375
ell 402, elapsed: 0.0050508975982666016
ell 401, elapsed: 0.0003349781036376953
ell 400, elapsed: 0.00033211708068847656
ell 399, elapsed: 0.0003352165222167969
ell 398, elapsed: 0.00037407875061035156
ell 302, elapsed: 0.005079984664916992
ell 301, elapsed: 0.0003330707550048828
ell 300, elapsed: 0.00033283233642578125
ell 299, elapsed: 0.00033092498779296875
ell 298, elapsed: 0.00033211708068847656
ell 202, elapsed: 0.005048990249633789
ell 201, elapsed: 0.0003349781036376953
ell 200, elapsed: 0.0003399848937988281
ell 199, elapsed: 0.0003299713134765625
ell 198, elapsed: 0.0003299713134765625
ell 152, elapsed: 0.002653837203979492
ell 151, elapsed: 0.0003371238708496094
ell 150, elapsed: 0.0003840923309326172
ell 149, elapsed: 0.0003330707550048828
ell 148, elapsed: 0.00033402442932128906
ell 127, elapsed: 0.0013780593872070312
ell 126, elapsed: 0.0003311634063720703
ell 125, elapsed: 0.00033092498779296875
ell 124, elapsed: 0.00033092498779296875
ell 123, elapsed: 0.00034308433532714844
ell 114, elapsed: 0.0007898807525634766
ell 113, elapsed: 0.0003299713134765625
ell 112, elapsed: 0.000331878662109375
ell 111, elapsed: 0.00033020973205566406
ell 110, elapsed: 0.00033092498779296875
ell 102, elapsed: 0.0007350444793701172
ell 101, elapsed: 0.0003311634063720703
ell 100, elapsed: 0.0003311634063720703
ell 99, elapsed: 0.00033211708068847656
ell 98, elapsed: 0.00033283233642578125
ell 97, elapsed: 0.0003979206085205078
ell 96, elapsed: 0.00039196014404296875
ell 95, elapsed: 0.00039005279541015625
ell 94, elapsed: 0.00039005279541015625
ell 93, elapsed: 0.0003910064697265625
ell 92, elapsed: 0.00039005279541015625
ell 91, elapsed: 0.0003910064697265625
ell 90, elapsed: 0.0004010200500488281
ell 89, elapsed: 0.0003898143768310547
ell 88, elapsed: 0.00038909912109375
ell 87, elapsed: 0.00039196014404296875
ell 86, elapsed: 0.00043582916259765625
ell 85, elapsed: 0.0003998279571533203
ell 84, elapsed: 0.00039505958557128906
ell 83, elapsed: 0.00038695335388183594
ell 82, elapsed: 0.00038909912109375
ell 81, elapsed: 0.000408172607421875
ell 80, elapsed: 0.00038695335388183594
ell 79, elapsed: 0.00038909912109375
ell 78, elapsed: 0.0003879070281982422
ell 77, elapsed: 0.00038504600524902344
ell 76, elapsed: 0.0003921985626220703
ell 75, elapsed: 0.0003871917724609375
ell 74, elapsed: 0.00039315223693847656
ell 73, elapsed: 0.00038504600524902344
ell 72, elapsed: 0.0004019737243652344
ell 71, elapsed: 0.00038814544677734375
ell 70, elapsed: 0.0003991127014160156
ell 69, elapsed: 0.0003898143768310547
ell 68, elapsed: 0.00038695335388183594
ell 67, elapsed: 0.0003910064697265625
ell 66, elapsed: 0.0003910064697265625
ell 65, elapsed: 0.00038886070251464844
ell 64, elapsed: 0.00039696693420410156
ell 63, elapsed: 0.0003910064697265625
ell 62, elapsed: 0.0004410743713378906
ell 61, elapsed: 0.00039696693420410156
ell 60, elapsed: 0.0003910064697265625
ell 59, elapsed: 0.0003941059112548828
ell 58, elapsed: 0.0003859996795654297
ell 57, elapsed: 0.0003910064697265625
ell 56, elapsed: 0.00038909912109375
ell 55, elapsed: 0.0003910064697265625
ell 54, elapsed: 0.0003921985626220703
ell 53, elapsed: 0.00039005279541015625
ell 52, elapsed: 0.0004210472106933594
ell 51, elapsed: 0.00040602684020996094
[...]
ell 789, elapsed: 0.0005750656127929688
ell 788, elapsed: 0.0005829334259033203
ell 782, elapsed: 0.001010894775390625
ell 781, elapsed: 0.0005719661712646484
ell 780, elapsed: 0.0005941390991210938
ell 779, elapsed: 0.0005757808685302734
ell 778, elapsed: 0.0005772113800048828
ell 772, elapsed: 0.0010030269622802734
ell 771, elapsed: 0.0005788803100585938
ell 770, elapsed: 0.0005869865417480469
ell 769, elapsed: 0.0008587837219238281
ell 768, elapsed: 0.0007419586181640625
ell 762, elapsed: 0.0013341903686523438
ell 761, elapsed: 0.0007369518280029297
ell 760, elapsed: 0.0012698173522949219
ell 759, elapsed: 0.0008471012115478516
ell 758, elapsed: 0.0009541511535644531
ell 752, elapsed: 0.002107858657836914
ell 751, elapsed: 0.0013680458068847656
ell 750, elapsed: 0.0013020038604736328
ell 749, elapsed: 0.0014071464538574219
ell 748, elapsed: 0.0011348724365234375
ell 742, elapsed: 0.0018570423126220703
ell 741, elapsed: 0.001291036605834961
ell 740, elapsed: 0.0012881755828857422
ell 739, elapsed: 0.0010530948638916016
ell 738, elapsed: 0.0014700889587402344
ell 732, elapsed: 0.0019910335540771484
ell 731, elapsed: 0.0009050369262695312
ell 730, elapsed: 0.000904083251953125
ell 729, elapsed: 0.0009021759033203125
ell 728, elapsed: 0.0009031295776367188
ell 722, elapsed: 0.002493143081665039
ell 721, elapsed: 0.001180887222290039
ell 720, elapsed: 0.0010390281677246094
ell 719, elapsed: 0.0013430118560791016
ell 718, elapsed: 0.0010609626770019531
ell 712, elapsed: 0.0018799304962158203
ell 711, elapsed: 0.0008568763732910156
ell 710, elapsed: 0.0013508796691894531
ell 709, elapsed: 0.001280069351196289
ell 708, elapsed: 0.0014410018920898438
ell 702, elapsed: 0.0013079643249511719
ell 701, elapsed: 0.0006480216979980469
ell 700, elapsed: 0.0006618499755859375
ell 699, elapsed: 0.0006701946258544922
ell 698, elapsed: 0.0006630420684814453
ell 692, elapsed: 0.001127004623413086
ell 691, elapsed: 0.0005748271942138672
ell 690, elapsed: 0.0005869865417480469
ell 689, elapsed: 0.0005791187286376953
ell 688, elapsed: 0.000598907470703125
ell 682, elapsed: 0.001027822494506836
ell 681, elapsed: 0.0005838871002197266
ell 680, elapsed: 0.0005869865417480469
ell 679, elapsed: 0.0005779266357421875
ell 678, elapsed: 0.0006079673767089844
ell 672, elapsed: 0.0010089874267578125
ell 671, elapsed: 0.0005779266357421875
ell 670, elapsed: 0.0005788803100585938
ell 669, elapsed: 0.0005679130554199219
ell 668, elapsed: 0.0005710124969482422
ell 662, elapsed: 0.0010368824005126953
ell 661, elapsed: 0.0005748271942138672
ell 660, elapsed: 0.0005807876586914062
ell 659, elapsed: 0.0005710124969482422
ell 658, elapsed: 0.0005779266357421875
ell 652, elapsed: 0.0010368824005126953
ell 651, elapsed: 0.000576019287109375
ell 650, elapsed: 0.0005891323089599609
ell 649, elapsed: 0.0005691051483154297
ell 648, elapsed: 0.0005791187286376953
ell 642, elapsed: 0.0010180473327636719
ell 641, elapsed: 0.0005960464477539062
ell 640, elapsed: 0.0005869865417480469
ell 639, elapsed: 0.0005769729614257812
ell 638, elapsed: 0.0005791187286376953
ell 632, elapsed: 0.0010149478912353516
ell 631, elapsed: 0.0005791187286376953
ell 630, elapsed: 0.0005919933319091797
ell 629, elapsed: 0.0005700588226318359
ell 628, elapsed: 0.0005869865417480469
ell 622, elapsed: 0.001035928726196289
ell 621, elapsed: 0.0005550384521484375
ell 620, elapsed: 0.0005600452423095703
ell 619, elapsed: 0.0005490779876708984
ell 618, elapsed: 0.00055694580078125
ell 612, elapsed: 0.000990152359008789
ell 611, elapsed: 0.0005519390106201172
ell 610, elapsed: 0.0005590915679931641
ell 609, elapsed: 0.0005519390106201172
ell 608, elapsed: 0.000598907470703125
ell 602, elapsed: 0.0009958744049072266
ell 601, elapsed: 0.000553131103515625
ell 600, elapsed: 0.0005590915679931641
ell 599, elapsed: 0.0005669593811035156
ell 598, elapsed: 0.0005769729614257812
ell 592, elapsed: 0.0010142326354980469
ell 591, elapsed: 0.00055694580078125
ell 590, elapsed: 0.0005629062652587891
ell 589, elapsed: 0.0005559921264648438
ell 588, elapsed: 0.0005598068237304688
ell 582, elapsed: 0.0010149478912353516
ell 581, elapsed: 0.0005571842193603516
ell 580, elapsed: 0.0005621910095214844
ell 579, elapsed: 0.0005540847778320312
ell 578, elapsed: 0.0005609989166259766
ell 572, elapsed: 0.000993967056274414
ell 571, elapsed: 0.0005679130554199219
ell 570, elapsed: 0.0005600452423095703
ell 569, elapsed: 0.000553131103515625
ell 568, elapsed: 0.0005600452423095703
ell 562, elapsed: 0.000988006591796875
ell 561, elapsed: 0.0005609989166259766
ell 560, elapsed: 0.0005691051483154297
ell 559, elapsed: 0.0005850791931152344
ell 558, elapsed: 0.0005609989166259766
ell 552, elapsed: 0.0009970664978027344
ell 551, elapsed: 0.0005550384521484375
ell 550, elapsed: 0.0005979537963867188
ell 549, elapsed: 0.0009169578552246094
ell 548, elapsed: 0.0008578300476074219
ell 542, elapsed: 0.0017728805541992188
ell 541, elapsed: 0.0010449886322021484
ell 540, elapsed: 0.0010309219360351562
ell 539, elapsed: 0.0010280609130859375
ell 538, elapsed: 0.0010449886322021484
ell 532, elapsed: 0.0018439292907714844
ell 531, elapsed: 0.0010328292846679688
ell 530, elapsed: 0.0010421276092529297
ell 529, elapsed: 0.0010209083557128906
ell 528, elapsed: 0.0010249614715576172
ell 522, elapsed: 0.0018570423126220703
ell 521, elapsed: 0.0009829998016357422
ell 520, elapsed: 0.001035928726196289
ell 519, elapsed: 0.0010731220245361328
ell 518, elapsed: 0.0010387897491455078
ell 512, elapsed: 0.0018961429595947266
ell 511, elapsed: 0.0011930465698242188
ell 510, elapsed: 0.0016198158264160156
ell 509, elapsed: 0.0011000633239746094
ell 508, elapsed: 0.0010898113250732422
ell 502, elapsed: 0.0019049644470214844
ell 501, elapsed: 0.0010929107666015625
ell 500, elapsed: 0.0010828971862792969
ell 499, elapsed: 0.0011730194091796875
ell 498, elapsed: 0.0010139942169189453
ell 492, elapsed: 0.0017201900482177734
ell 491, elapsed: 0.0010569095611572266
ell 490, elapsed: 0.0013148784637451172
ell 489, elapsed: 0.0009729862213134766
ell 488, elapsed: 0.001094818115234375
ell 482, elapsed: 0.0018880367279052734
ell 481, elapsed: 0.001085042953491211
ell 480, elapsed: 0.0010900497436523438
ell 479, elapsed: 0.0013401508331298828
ell 478, elapsed: 0.0010991096496582031
ell 472, elapsed: 0.0016300678253173828
ell 471, elapsed: 0.0006649494171142578
ell 470, elapsed: 0.0006649494171142578
ell 469, elapsed: 0.0006821155548095703
ell 468, elapsed: 0.0006577968597412109
ell 462, elapsed: 0.0011129379272460938
ell 461, elapsed: 0.0005800724029541016
ell 460, elapsed: 0.0005810260772705078
ell 459, elapsed: 0.0005631446838378906
ell 458, elapsed: 0.0005939006805419922
ell 452, elapsed: 0.0010149478912353516
ell 451, elapsed: 0.0005779266357421875
ell 450, elapsed: 0.0005710124969482422
ell 449, elapsed: 0.0005598068237304688
ell 448, elapsed: 0.0006020069122314453
ell 442, elapsed: 0.001013040542602539
ell 441, elapsed: 0.0005688667297363281
ell 440, elapsed: 0.000576019287109375
ell 439, elapsed: 0.000553131103515625
ell 438, elapsed: 0.0005719661712646484
ell 432, elapsed: 0.0010221004486083984
ell 431, elapsed: 0.0005519390106201172
ell 430, elapsed: 0.0005710124969482422
ell 429, elapsed: 0.0005469322204589844
ell 428, elapsed: 0.00055694580078125
ell 422, elapsed: 0.0010151863098144531
ell 421, elapsed: 0.000553131103515625
ell 420, elapsed: 0.0005648136138916016
ell 419, elapsed: 0.0005469322204589844
ell 418, elapsed: 0.0005571842193603516
ell 412, elapsed: 0.0009670257568359375
ell 411, elapsed: 0.0005838871002197266
ell 410, elapsed: 0.0005819797515869141
ell 409, elapsed: 0.0005669593811035156
ell 408, elapsed: 0.0005748271942138672
ell 402, elapsed: 0.000988006591796875
ell 401, elapsed: 0.0005688667297363281
ell 400, elapsed: 0.0006089210510253906
ell 399, elapsed: 0.0005590915679931641
ell 398, elapsed: 0.0005741119384765625
ell 392, elapsed: 0.0010039806365966797
ell 391, elapsed: 0.0005700588226318359
ell 390, elapsed: 0.0005729198455810547
ell 389, elapsed: 0.000576019287109375
ell 388, elapsed: 0.000576019287109375
ell 382, elapsed: 0.0009920597076416016
ell 381, elapsed: 0.0005650520324707031
ell 380, elapsed: 0.0005779266357421875
ell 379, elapsed: 0.0005640983581542969
ell 378, elapsed: 0.0005939006805419922
ell 372, elapsed: 0.0009989738464355469
ell 371, elapsed: 0.0005650520324707031
ell 370, elapsed: 0.0005648136138916016
ell 369, elapsed: 0.0005481243133544922
ell 368, elapsed: 0.0005631446838378906
ell 362, elapsed: 0.001001119613647461
ell 361, elapsed: 0.0005500316619873047
ell 360, elapsed: 0.0005578994750976562
ell 359, elapsed: 0.0005459785461425781
ell 358, elapsed: 0.0005550384521484375
ell 352, elapsed: 0.0009889602661132812
ell 351, elapsed: 0.0005490779876708984
ell 350, elapsed: 0.0005559921264648438
ell 349, elapsed: 0.0005550384521484375
ell 348, elapsed: 0.0005738735198974609
ell 342, elapsed: 0.0010099411010742188
ell 341, elapsed: 0.0010399818420410156
ell 340, elapsed: 0.0016260147094726562
ell 339, elapsed: 0.0013828277587890625
ell 338, elapsed: 0.001650094985961914
ell 332, elapsed: 0.0038089752197265625
ell 331, elapsed: 0.0016138553619384766
ell 330, elapsed: 0.0013091564178466797
ell 329, elapsed: 0.0016047954559326172
ell 328, elapsed: 0.0015139579772949219
ell 322, elapsed: 0.003467082977294922
ell 321, elapsed: 0.0019459724426269531
ell 320, elapsed: 0.0015981197357177734
ell 319, elapsed: 0.0018680095672607422
ell 318, elapsed: 0.001458883285522461
ell 312, elapsed: 0.0029039382934570312
ell 311, elapsed: 0.0021059513092041016
ell 310, elapsed: 0.001664876937866211
ell 309, elapsed: 0.0013380050659179688
ell 308, elapsed: 0.0018558502197265625
ell 302, elapsed: 0.00341796875
ell 301, elapsed: 0.0014801025390625
ell 300, elapsed: 0.0014748573303222656
ell 299, elapsed: 0.001049041748046875
ell 298, elapsed: 0.001010894775390625
ell 292, elapsed: 0.0011339187622070312
ell 291, elapsed: 0.0006210803985595703
ell 290, elapsed: 0.0006289482116699219
ell 289, elapsed: 0.00061798095703125
ell 288, elapsed: 0.0005757808685302734
ell 282, elapsed: 0.0009818077087402344
ell 281, elapsed: 0.0005638599395751953
ell 280, elapsed: 0.0005559921264648438
ell 279, elapsed: 0.0005469322204589844
ell 278, elapsed: 0.0005559921264648438
ell 272, elapsed: 0.0009789466857910156
ell 271, elapsed: 0.0005488395690917969
ell 270, elapsed: 0.0005669593811035156
ell 269, elapsed: 0.0005459785461425781
ell 268, elapsed: 0.0005629062652587891
ell 262, elapsed: 0.0009899139404296875
ell 261, elapsed: 0.0005519390106201172
ell 260, elapsed: 0.00055694580078125
ell 259, elapsed: 0.0005619525909423828
ell 258, elapsed: 0.0005519390106201172
ell 252, elapsed: 0.0009679794311523438
ell 251, elapsed: 0.0005490779876708984
ell 250, elapsed: 0.0005540847778320312
ell 249, elapsed: 0.0005471706390380859
ell 248, elapsed: 0.0005609989166259766
ell 242, elapsed: 0.0009701251983642578
ell 241, elapsed: 0.0005500316619873047
ell 240, elapsed: 0.00055694580078125
ell 239, elapsed: 0.0005440711975097656
ell 238, elapsed: 0.0005509853363037109
ell 232, elapsed: 0.0009849071502685547
ell 231, elapsed: 0.0005490779876708984
ell 230, elapsed: 0.0005810260772705078
ell 229, elapsed: 0.0005450248718261719
ell 228, elapsed: 0.0005519390106201172
ell 222, elapsed: 0.0009829998016357422
ell 221, elapsed: 0.0005500316619873047
ell 220, elapsed: 0.0005550384521484375
ell 219, elapsed: 0.0005440711975097656
ell 218, elapsed: 0.0005509853363037109
ell 212, elapsed: 0.0009691715240478516
ell 211, elapsed: 0.0005478858947753906
ell 210, elapsed: 0.0005650520324707031
ell 209, elapsed: 0.0005440711975097656
ell 208, elapsed: 0.000553131103515625
ell 202, elapsed: 0.0009620189666748047
ell 201, elapsed: 0.0005447864532470703
ell 200, elapsed: 0.000553131103515625
ell 199, elapsed: 0.0005588531494140625
ell 198, elapsed: 0.0005550384521484375
ell 192, elapsed: 0.0009698867797851562
ell 191, elapsed: 0.0005478858947753906
ell 190, elapsed: 0.0005540847778320312
ell 189, elapsed: 0.0005440711975097656
ell 188, elapsed: 0.0005650520324707031
ell 182, elapsed: 0.0009760856628417969
ell 181, elapsed: 0.0005500316619873047
ell 180, elapsed: 0.0005509853363037109
ell 179, elapsed: 0.0005421638488769531
ell 178, elapsed: 0.0005509853363037109
ell 172, elapsed: 0.0009999275207519531
ell 171, elapsed: 0.0005488395690917969
ell 170, elapsed: 0.0005519390106201172
ell 169, elapsed: 0.0005459785461425781
ell 168, elapsed: 0.0005500316619873047
ell 162, elapsed: 0.0009911060333251953
ell 161, elapsed: 0.0005488395690917969
ell 160, elapsed: 0.000553131103515625
ell 159, elapsed: 0.0005440711975097656
ell 158, elapsed: 0.0005528926849365234
ell 152, elapsed: 0.0009839534759521484
ell 151, elapsed: 0.0005588531494140625
ell 150, elapsed: 0.0005559921264648438
ell 149, elapsed: 0.0005478858947753906
ell 148, elapsed: 0.0005540847778320312
ell 142, elapsed: 0.0009770393371582031
ell 141, elapsed: 0.0005521774291992188
ell 140, elapsed: 0.0006098747253417969
ell 139, elapsed: 0.0016248226165771484
ell 138, elapsed: 0.0012810230255126953
ell 132, elapsed: 0.002833127975463867
ell 131, elapsed: 0.001878976821899414
ell 130, elapsed: 0.0015850067138671875
ell 129, elapsed: 0.0015559196472167969
ell 128, elapsed: 0.0013339519500732422
ell 122, elapsed: 0.0025610923767089844
ell 121, elapsed: 0.0017778873443603516
ell 120, elapsed: 0.002106904983520508
ell 119, elapsed: 0.001603841781616211
ell 118, elapsed: 0.001931905746459961
ell 112, elapsed: 0.0017240047454833984
ell 111, elapsed: 0.0017249584197998047
ell 110, elapsed: 0.0016732215881347656
ell 109, elapsed: 0.0022230148315429688
ell 108, elapsed: 0.0017631053924560547
ell 102, elapsed: 0.003838062286376953
ell 101, elapsed: 0.0048639774322509766
ell 100, elapsed: 0.0032279491424560547
ell 99, elapsed: 0.0035932064056396484
ell 98, elapsed: 0.002485036849975586
ell 92, elapsed: 0.004724979400634766
ell 91, elapsed: 0.0023810863494873047
ell 90, elapsed: 0.002377033233642578
ell 89, elapsed: 0.002370119094848633
ell 88, elapsed: 0.0023708343505859375
ell 82, elapsed: 0.004724025726318359
ell 81, elapsed: 0.002382040023803711
ell 80, elapsed: 0.0023660659790039062
ell 79, elapsed: 0.002370119094848633
ell 78, elapsed: 0.0023670196533203125
ell 72, elapsed: 0.004701852798461914
ell 71, elapsed: 0.0023741722106933594
ell 70, elapsed: 0.002382993698120117
ell 69, elapsed: 0.002368927001953125
ell 68, elapsed: 0.0023679733276367188
ell 62, elapsed: 0.008810997009277344
ell 61, elapsed: 0.0037689208984375
ell 60, elapsed: 0.006334066390991211
ell 59, elapsed: 0.005118846893310547
ell 58, elapsed: 0.005702018737792969
ell 52, elapsed: 0.011121988296508789
ell 51, elapsed: 0.0063741207122802734
ell 50, elapsed: 0.0048940181732177734
ell 49, elapsed: 0.0024290084838867188
ell 48, elapsed: 0.002424001693725586
ell 42, elapsed: 0.004729032516479492
ell 41, elapsed: 0.0024001598358154297
ell 40, elapsed: 0.00238800048828125
ell 39, elapsed: 0.0024089813232421875
ell 38, elapsed: 0.0023810863494873047
ell 32, elapsed: 0.004746913909912109
ell 31, elapsed: 0.0023860931396484375
ell 30, elapsed: 0.002496004104614258
ell 29, elapsed: 0.0023729801177978516
ell 28, elapsed: 0.0024900436401367188
ell 22, elapsed: 0.0047149658203125
ell 21, elapsed: 0.002488851547241211
ell 20, elapsed: 0.0023789405822753906
ell 19, elapsed: 0.0023589134216308594
ell 18, elapsed: 0.0038270950317382812
ell 12, elapsed: 0.010191917419433594
ell 11, elapsed: 0.005642890930175781
ell 10, elapsed: 0.006639003753662109
ell 9, elapsed: 0.006551980972290039
ell 8, elapsed: 0.0064470767974853516
  0.752739 seconds (97.55 k allocations: 12.618 MiB)
elapsed: 0.005387067794799805
step:          0.066464 sec (0 allocations: 0 byte, 0.0% gc time)
swapping:      0.000542 sec (0 allocations: 0 byte, 0.0% gc time)
calc_Mellell!: 0.036247 sec (0 allocations: 0 byte, 0.0% gc time)
  t0 :  0.008452 sec (0 allocations: 0 byte, 0.0% gc time)
  tm2 : 0.07047 sec (0 allocations: 0 byte, 0.0% gc time)
  tm2s: 0.007605 sec (0 allocations: 0 byte, 0.0% gc time)
  tm4 : 0.160255 sec (0 allocations: 0 byte, 0.0% gc time)
  tp2 : 0.0 sec (0 allocations: 0 byte, 0.0% gc time)
  tp2s: 0.0 sec (0 allocations: 0 byte, 0.0% gc time)
  tp4 : 0.0 sec (0 allocations: 0 byte, 0.0% gc time)
calc_wtdll!:   0.518889 sec (48.6 k allocations: 11.096 MB, 0.0% gc time)
calc_wljj!:    0.030994 sec (69 allocations: 1.078 KB, 0.0% gc time)
mult_prefac!:  0.0 sec (0 allocations: 0 byte, 0.0% gc time)
convert:       0.0 sec (0 allocations: 0 byte, 0.0% gc time)
write:         0.034934 sec (0 allocations: 0 byte, 0.0% gc time)
test_rand_2f1: 0.0 sec (0 allocations: 0 byte, 0.0% gc time)
Closing outfile out/MlCache/MlCache.bin...   0.000007 seconds
xi, l=0, nu=0:   0.337764 seconds (603.11 k allocations: 32.984 MiB)
xi, l=0, nu=-2:  0.002429 seconds (114 allocations: 148.969 KiB)
Created 'out/xi.tsv'.
  q=1.1, R=0.6:	  0.857962 seconds (264.51 k allocations: 38.097 MiB)
  q=1.1, R=0.7:	  0.984791 seconds (276.48 k allocations: 40.118 MiB, 1.59% gc time)
  q=1.1, R=0.8:	  1.087898 seconds (271.73 k allocations: 39.310 MiB, 1.13% gc time)
  q=1.1, R=0.9:	  1.148109 seconds (266.62 k allocations: 38.459 MiB, 0.55% gc time)
  q=1.1, R=0.998:	 14.050435 seconds (114.96 k allocations: 7.588 MiB)
  q=1.1, R=1.0:	  0.003768 seconds (8.20 k allocations: 704.344 KiB)

ℓ = 1000
Δℓ = 4
ΔℓRg1 = -4
N = 4096
q = 1.1
kmin = 1.0e-5
kmax = 1000.0
χ0 = 0.001
RR = RR.tsv
ℓmax = ℓmax.bin
f21 = f21.bin
kmin = 1.0e-5
kmax = 1000.0
dlrec    = 4
dlrecRg1 = -4
Output size: 1573632 bytes = 0.0014655590057373047 GiB
Output size: 786816 bytes = 0.0007327795028686523 GiB
Reading 'out/F21EllCache'...   0.001348 seconds (198 allocations: 533.078 KiB)
ellmax: 1002
lmaxcache: 1000
fell[:,1,1] = ComplexF64[1.726292812820208e-224 - 4.2281979352226965e-240im, 1.7282693092099638e-224 - 4.233038955177178e-240im]
ell 1002, elapsed: 2.5033950805664062e-5
ell 1001, elapsed: 0.0004608631134033203
ell 1000, elapsed: 0.0006070137023925781
ell 999, elapsed: 0.0039031505584716797
ell 998, elapsed: 0.0039010047912597656
ell 44, elapsed: 0.7050249576568604
ell 43, elapsed: 0.004049062728881836
ell 42, elapsed: 0.003928184509277344
ell 41, elapsed: 0.00391697883605957
ell 40, elapsed: 0.003904104232788086
  0.735066 seconds (5.05 k allocations: 329.094 KiB)
elapsed: 0.004827022552490234
step:          0.704026 sec (0 allocations: 0 byte, 0.0% gc time)
swapping:      0.000337 sec (0 allocations: 0 byte, 0.0% gc time)
calc_Mellell!: 0.00073 sec (0 allocations: 0 byte, 0.0% gc time)
  t0 :  0.000382 sec (0 allocations: 0 byte, 0.0% gc time)
  tm2 : 0.007949 sec (0 allocations: 0 byte, 0.0% gc time)
  tm2s: 0.000277 sec (0 allocations: 0 byte, 0.0% gc time)
  tm4 : 0.017249 sec (0 allocations: 0 byte, 0.0% gc time)
  tp2 : 0.0 sec (0 allocations: 0 byte, 0.0% gc time)
  tp2s: 0.0 sec (0 allocations: 0 byte, 0.0% gc time)
  tp4 : 0.0 sec (0 allocations: 0 byte, 0.0% gc time)
calc_wtdll!:   0.026018 sec (480 allocations: 52.5 KB, 0.0% gc time)
calc_wljj!:    0.000832 sec (1 allocations: 16 byte, 0.0% gc time)
mult_prefac!:  0.0 sec (0 allocations: 0 byte, 0.0% gc time)
convert:       0.0 sec (0 allocations: 0 byte, 0.0% gc time)
write:         0.000786 sec (0 allocations: 0 byte, 0.0% gc time)
test_rand_2f1: 0.0 sec (0 allocations: 0 byte, 0.0% gc time)
Closing outfile out/MlCache/MlCache.bin...   0.000005 seconds
  0.466119 seconds (38 allocations: 66.859 KiB)
make_phi():   0.006896 seconds (65 allocations: 275.984 KiB)
  0.046434 seconds (11.42 k allocations: 711.851 KiB)
tskip:       3.0e-6 sec (0 allocations: 0 byte, 0.0% gc time)
tread:       0.000913 sec (17 allocations: 1.266 KB, 0.0% gc time)
tmultphi:    0.00024 sec (0 allocations: 0 byte, 0.0% gc time)
tbrfft:      0.001338 sec (0 allocations: 0 byte, 0.0% gc time)
tmultprefac: 0.001 sec (0 allocations: 0 byte, 0.0% gc time)
toutfunc:    0.000231 sec (0 allocations: 0 byte, 0.0% gc time)
Created 'out/wl42_jj00.tsv'.
Created 'out/wl42_jj02.tsv'.
    Testing TwoFAST tests passed 
