Julia Version 1.4.0
Commit 571c4c41f7 (2020-04-07 06:24 UTC)
Platform Info:
  OS: Linux (x86_64-linux-gnu)
  CPU: Intel(R) Xeon(R) Silver 4114 CPU @ 2.20GHz
  WORD_SIZE: 64
  LIBM: libopenlibm
  LLVM: libLLVM-8.0.1 (ORCJIT, skylake)
Environment:
  JULIA_DEPOT_PATH = ::/usr/local/share/julia
  JULIA_NUM_THREADS = 2

  Resolving package versions...
  Installed FFTW_jll ───────── v3.3.9+5
  Installed IncGammaBeta ───── v0.1.0
  Installed Reexport ───────── v0.2.0
  Installed URIParser ──────── v0.4.0
  Installed AbstractFFTs ───── v0.5.0
  Installed SpecialFunctions ─ v0.8.0
  Installed AbstractAlgebra ── v0.7.1
  Installed MKL_jll ────────── v2019.0.117+2
  Installed IntelOpenMP_jll ── v2018.0.3+0
  Installed FFTW ───────────── v1.2.0
  Installed BinDeps ────────── v1.0.0
  Installed BinaryProvider ─── v0.5.8
  Installed Nemo ───────────── v0.15.1
  Installed TwoFAST ────────── v0.1.0
   Updating `~/.julia/environments/v1.4/Project.toml`
  [0dd23c3e] + TwoFAST v0.1.0
   Updating `~/.julia/environments/v1.4/Manifest.toml`
  [c3fe647b] + AbstractAlgebra v0.7.1
  [621f4979] + AbstractFFTs v0.5.0
  [9e28174c] + BinDeps v1.0.0
  [b99e7846] + BinaryProvider v0.5.8
  [7a1cc6ca] + FFTW v1.2.0
  [f5851436] + FFTW_jll v3.3.9+5
  [5087d2c0] + IncGammaBeta v0.1.0
  [1d5cc7b8] + IntelOpenMP_jll v2018.0.3+0
  [856f044c] + MKL_jll v2019.0.117+2
  [2edaba10] + Nemo v0.15.1
  [189a3867] + Reexport v0.2.0
  [276daf66] + SpecialFunctions v0.8.0
  [0dd23c3e] + TwoFAST v0.1.0
  [30578b45] + URIParser v0.4.0
  [2a0f44e3] + Base64 
  [ade2ca70] + Dates 
  [8bb1440f] + DelimitedFiles 
  [8ba89e20] + Distributed 
  [b77e0a4c] + InteractiveUtils 
  [76f85450] + LibGit2 
  [8f399da3] + Libdl 
  [37e2e46d] + LinearAlgebra 
  [56ddb016] + Logging 
  [d6f4376e] + Markdown 
  [a63ad114] + Mmap 
  [44cfe95a] + Pkg 
  [de0858da] + Printf 
  [3fa0cd96] + REPL 
  [9a3f8284] + Random 
  [ea8e919c] + SHA 
  [9e88b42a] + Serialization 
  [6462fe0b] + Sockets 
  [2f01184e] + SparseArrays 
  [8dfed614] + Test 
  [cf7118a7] + UUIDs 
  [4ec0a83e] + Unicode 
   Building SpecialFunctions → `~/.julia/packages/SpecialFunctions/ne2iw/deps/build.log`
   Building FFTW ────────────→ `~/.julia/packages/FFTW/qqcBj/deps/build.log`
   Building Nemo ────────────→ `~/.julia/packages/Nemo/qzx0m/deps/build.log`
    Testing TwoFAST
Status `/tmp/jl_zHDfuc/Manifest.toml`
  [c3fe647b] AbstractAlgebra v0.7.1
  [621f4979] AbstractFFTs v0.5.0
  [9e28174c] BinDeps v1.0.0
  [b99e7846] BinaryProvider v0.5.8
  [39dd38d3] Dierckx v0.4.1
  [7a1cc6ca] FFTW v1.2.0
  [f5851436] FFTW_jll v3.3.9+5
  [5087d2c0] IncGammaBeta v0.1.0
  [1d5cc7b8] IntelOpenMP_jll v2018.0.3+0
  [856f044c] MKL_jll v2019.0.117+2
  [2edaba10] Nemo v0.15.1
  [189a3867] Reexport v0.2.0
  [276daf66] SpecialFunctions v0.8.0
  [0dd23c3e] TwoFAST v0.1.0
  [30578b45] URIParser v0.4.0
  [2a0f44e3] Base64 
  [ade2ca70] Dates 
  [8bb1440f] DelimitedFiles 
  [8ba89e20] Distributed 
  [b77e0a4c] InteractiveUtils 
  [76f85450] LibGit2 
  [8f399da3] Libdl 
  [37e2e46d] LinearAlgebra 
  [56ddb016] Logging 
  [d6f4376e] Markdown 
  [a63ad114] Mmap 
  [44cfe95a] Pkg 
  [de0858da] Printf 
  [3fa0cd96] REPL 
  [9a3f8284] Random 
  [ea8e919c] SHA 
  [9e88b42a] Serialization 
  [6462fe0b] Sockets 
  [2f01184e] SparseArrays 
  [8dfed614] Test 
  [cf7118a7] UUIDs 
  [4ec0a83e] Unicode 

Welcome to Nemo version 0.15.1

Nemo comes with absolutely no warranty whatsoever


Welcome to Nemo version 0.15.1

Nemo comes with absolutely no warranty whatsoever

Testing ξ(r), ℓ=0, ν=-1 ... passed
Testing ξ(r), ℓ=0, ν=0 ... passed
Testing ξ(r), ℓ=0, ν=1 ... passed
Testing ξ(r), ℓ=0, ν=2 ... passed
Testing ξ(r), ℓ=0, ν=3 ... passed
Testing ξ(r), ℓ=1, ν=0 ... passed
Testing ξ(r), ℓ=1, ν=1 ... passed
Testing ξ(r), ℓ=1, ν=2 ... passed
Testing ξ(r), ℓ=1, ν=3 ... passed
Testing ξ(r), ℓ=2, ν=-1 ... passed
Testing ξ(r), ℓ=2, ν=0 ... passed
Testing ξ(r), ℓ=2, ν=1 ... passed
Testing ξ(r), ℓ=2, ν=2 ... passed
Testing ξ(r), ℓ=2, ν=3 ... passed
Testing ξ(r), ℓ=3, ν=-1 ... passed
Testing ξ(r), ℓ=3, ν=0 ... passed
Testing ξ(r), ℓ=3, ν=1 ... passed
Testing ξ(r), ℓ=3, ν=2 ... passed
Testing ξ(r), ℓ=3, ν=3 ... passed
Testing ξ(r), ℓ=4, ν=-1 ... passed
Testing ξ(r), ℓ=4, ν=0 ... passed
Testing ξ(r), ℓ=4, ν=1 ... passed
Testing ξ(r), ℓ=4, ν=2 ... passed
Testing ξ(r), ℓ=4, ν=3 ... passed
Testing ξ(r) ... passed
Testing ξ′(r) ... passed
Testing ξ″(r) ... passed
Calculating fmax: 
  dlrec    = 4
  dlrecRg1 = -4
  q=1.1, R=1.1:	  4.823602 seconds (1.39 M allocations: 76.323 MiB, 1.82% gc time)

  4.858863 seconds (1.41 M allocations: 77.432 MiB, 1.81% gc time)
ℓ = 1202
Δℓ = 4
ΔℓRg1 = -4
N = 1600
q = 1.1
kmin = 1.0e-5
kmax = 100000.00000000004
χ0 = 0.023029999999999995
RR = RR.tsv
ℓmax = ℓmax.bin
f21 = f21.bin
kmin = 1.0e-5
kmax = 100000.0
dlrec    = 4
dlrecRg1 = -4
Output size: 5741568 bytes = 0.005347251892089844 GiB
Output size: 51264 bytes = 4.774332046508789e-5 GiB
Reading 'out/F21EllCache'...   0.623075 seconds (320.67 k allocations: 16.459 MiB, 4.05% gc time)
ellmax: 1202
lmaxcache: 1202
fell[:,1,1] = Complex{Float64}[3.9583795592771634e-52 - 9.695233714158177e-68im, 3.990121772925759e-52 - 9.772979714843386e-68im]
ell 1202, elapsed: 0.00011110305786132812
ell 1201, elapsed: 2.2125399112701416
ell 1200, elapsed: 0.00049591064453125
ell 1199, elapsed: 0.00046896934509277344
ell 1198, elapsed: 0.0004668235778808594
ell 1002, elapsed: 0.009850025177001953
ell 1001, elapsed: 0.0004870891571044922
ell 1000, elapsed: 0.00047707557678222656
ell 999, elapsed: 0.00047206878662109375
ell 998, elapsed: 0.00047016143798828125
ell 902, elapsed: 0.0052089691162109375
ell 901, elapsed: 0.00047898292541503906
ell 900, elapsed: 0.0005040168762207031
ell 899, elapsed: 0.0004801750183105469
ell 898, elapsed: 0.00047898292541503906
ell 802, elapsed: 0.005021810531616211
ell 801, elapsed: 0.0004940032958984375
ell 800, elapsed: 0.0004799365997314453
ell 799, elapsed: 0.0005099773406982422
ell 798, elapsed: 0.00047898292541503906
ell 702, elapsed: 0.00492405891418457
ell 701, elapsed: 0.0005021095275878906
ell 700, elapsed: 0.0004858970642089844
ell 699, elapsed: 0.0004858970642089844
ell 698, elapsed: 0.0004811286926269531
ell 602, elapsed: 0.005027055740356445
ell 601, elapsed: 0.0005040168762207031
ell 600, elapsed: 0.0004839897155761719
ell 599, elapsed: 0.0004830360412597656
ell 598, elapsed: 0.0004780292510986328
ell 502, elapsed: 0.004893064498901367
ell 501, elapsed: 0.0005700588226318359
ell 500, elapsed: 0.0004849433898925781
ell 499, elapsed: 0.00048613548278808594
ell 498, elapsed: 0.0004818439483642578
ell 402, elapsed: 0.005120038986206055
ell 401, elapsed: 0.0004999637603759766
ell 400, elapsed: 0.0005040168762207031
ell 399, elapsed: 0.0004858970642089844
ell 398, elapsed: 0.0005099773406982422
ell 302, elapsed: 0.005120038986206055
ell 301, elapsed: 0.0004909038543701172
ell 300, elapsed: 0.0004990100860595703
ell 299, elapsed: 0.0005779266357421875
ell 298, elapsed: 0.0004830360412597656
ell 202, elapsed: 0.005057811737060547
ell 201, elapsed: 0.00047707557678222656
ell 200, elapsed: 0.0004658699035644531
ell 199, elapsed: 0.0004630088806152344
ell 198, elapsed: 0.0004661083221435547
ell 152, elapsed: 0.0028028488159179688
ell 151, elapsed: 0.00051116943359375
ell 150, elapsed: 0.0005018711090087891
ell 149, elapsed: 0.0006570816040039062
ell 148, elapsed: 0.0004649162292480469
ell 127, elapsed: 0.0015099048614501953
ell 126, elapsed: 0.0004661083221435547
ell 125, elapsed: 0.0004661083221435547
ell 124, elapsed: 0.0004639625549316406
ell 123, elapsed: 0.0005929470062255859
ell 114, elapsed: 0.0009548664093017578
ell 113, elapsed: 0.0005331039428710938
ell 112, elapsed: 0.0004680156707763672
ell 111, elapsed: 0.0004680156707763672
ell 110, elapsed: 0.0004649162292480469
ell 102, elapsed: 0.0009138584136962891
ell 101, elapsed: 0.0004680156707763672
ell 100, elapsed: 0.00046896934509277344
ell 99, elapsed: 0.00046706199645996094
ell 98, elapsed: 0.0004658699035644531
ell 97, elapsed: 0.0005068778991699219
ell 96, elapsed: 0.0005648136138916016
ell 95, elapsed: 0.0005879402160644531
ell 94, elapsed: 0.0006470680236816406
ell 93, elapsed: 0.0005822181701660156
ell 92, elapsed: 0.0006129741668701172
ell 91, elapsed: 0.0005071163177490234
ell 90, elapsed: 0.0005590915679931641
ell 89, elapsed: 0.0005049705505371094
ell 88, elapsed: 0.000598907470703125
ell 87, elapsed: 0.0005068778991699219
ell 86, elapsed: 0.0007331371307373047
ell 85, elapsed: 0.0005190372467041016
ell 84, elapsed: 0.0005609989166259766
ell 83, elapsed: 0.0005040168762207031
ell 82, elapsed: 0.0005638599395751953
ell 81, elapsed: 0.0007648468017578125
ell 80, elapsed: 0.0005660057067871094
ell 79, elapsed: 0.0005049705505371094
ell 78, elapsed: 0.0005600452423095703
ell 77, elapsed: 0.0005059242248535156
ell 76, elapsed: 0.0005650520324707031
ell 75, elapsed: 0.0007779598236083984
ell 74, elapsed: 0.0005710124969482422
ell 73, elapsed: 0.0006577968597412109
ell 72, elapsed: 0.0005650520324707031
ell 71, elapsed: 0.0005080699920654297
ell 70, elapsed: 0.0005638599395751953
ell 69, elapsed: 0.0005099773406982422
ell 68, elapsed: 0.0008699893951416016
ell 67, elapsed: 0.000537872314453125
ell 66, elapsed: 0.0005741119384765625
ell 65, elapsed: 0.0005221366882324219
ell 64, elapsed: 0.0005660057067871094
ell 63, elapsed: 0.0005061626434326172
ell 62, elapsed: 0.0005810260772705078
ell 61, elapsed: 0.00051116943359375
ell 60, elapsed: 0.0005650520324707031
ell 59, elapsed: 0.0005071163177490234
ell 58, elapsed: 0.0005609989166259766
ell 57, elapsed: 0.00051116943359375
ell 56, elapsed: 0.0005600452423095703
ell 55, elapsed: 0.0005300045013427734
ell 54, elapsed: 0.0005619525909423828
ell 53, elapsed: 0.0005099773406982422
ell 52, elapsed: 0.0005638599395751953
ell 51, elapsed: 0.0005068778991699219
ell 50, elapsed: 0.0005619525909423828
ell 49, elapsed: 0.0005099773406982422
ell 48, elapsed: 0.0005700588226318359
ell 47, elapsed: 0.0005059242248535156
ell 46, elapsed: 0.0005648136138916016
ell 45, elapsed: 0.0005128383636474609
ell 44, elapsed: 0.0005609989166259766
ell 43, elapsed: 0.0005099773406982422
ell 42, elapsed: 0.0005688667297363281
ell 41, elapsed: 0.0005209445953369141
ell 40, elapsed: 0.0005700588226318359
ell 39, elapsed: 0.0005178451538085938
ell 38, elapsed: 0.0005669593811035156
ell 37, elapsed: 0.00051116943359375
ell 36, elapsed: 0.0005612373352050781
ell 35, elapsed: 0.0005121231079101562
ell 34, elapsed: 0.0005869865417480469
ell 33, elapsed: 0.0005140304565429688
ell 32, elapsed: 0.0005700588226318359
ell 31, elapsed: 0.0005109310150146484
ell 30, elapsed: 0.0005688667297363281
ell 29, elapsed: 0.00051116943359375
ell 28, elapsed: 0.0005650520324707031
ell 27, elapsed: 0.0005321502685546875
ell 26, elapsed: 0.0005550384521484375
ell 25, elapsed: 0.0005118846893310547
ell 24, elapsed: 0.0005619525909423828
ell 23, elapsed: 0.0005199909210205078
ell 22, elapsed: 0.0005719661712646484
ell 21, elapsed: 0.0005118846893310547
ell 20, elapsed: 0.0005810260772705078
ell 19, elapsed: 0.0005109310150146484
ell 18, elapsed: 0.0005640983581542969
ell 17, elapsed: 0.000514984130859375
ell 16, elapsed: 0.0005648136138916016
ell 15, elapsed: 0.0005118846893310547
ell 14, elapsed: 0.0005700588226318359
ell 13, elapsed: 0.0005209445953369141
ell 12, elapsed: 0.000576019287109375
ell 11, elapsed: 0.0005049705505371094
ell 10, elapsed: 0.0005629062652587891
ell 9, elapsed: 0.0005109310150146484
ell 8, elapsed: 0.0005609989166259766
ell 7, elapsed: 0.0005080699920654297
ell 6, elapsed: 0.0005700588226318359
ell 5, elapsed: 0.0005090236663818359
ell 4, elapsed: 0.0005679130554199219
ell 3, elapsed: 0.0005118846893310547
ell 2, elapsed: 0.0005769729614257812
ell 1, elapsed: 0.0005090236663818359
ell 0, elapsed: 0.0005600452423095703
  3.041185 seconds (2.03 M allocations: 97.996 MiB, 1.62% gc time)
elapsed: 0.0006499290466308594
step:          0.774045 sec (593.657 k allocations: 28.7 MB, 0.0% gc time)
swapping:      0.000574 sec (0 allocations: 0 byte, 0.0% gc time)
calc_Mellell!: 0.53352 sec (389.698 k allocations: 19.047 MB, 0.0% gc time)
  t0 :  0.0 sec (0 allocations: 0 byte, 0.0% gc time)
  tm2 : 0.0 sec (0 allocations: 0 byte, 0.0% gc time)
  tm2s: 0.0 sec (0 allocations: 0 byte, 0.0% gc time)
  tm4 : 0.0 sec (0 allocations: 0 byte, 0.0% gc time)
  tp2 : 0.0 sec (0 allocations: 0 byte, 0.0% gc time)
  tp2s: 0.0 sec (0 allocations: 0 byte, 0.0% gc time)
  tp4 : 0.0 sec (0 allocations: 0 byte, 0.0% gc time)
calc_wtdll!:   1.030056 sec (525.864 k allocations: 26.377 MB, 2.49% gc time)
calc_wljj!:    0.003604 sec (6 allocations: 96 byte, 0.0% gc time)
mult_prefac!:  0.0 sec (0 allocations: 0 byte, 0.0% gc time)
convert:       0.0 sec (0 allocations: 0 byte, 0.0% gc time)
write:         0.003572 sec (0 allocations: 0 byte, 0.0% gc time)
test_rand_2f1: 0.0 sec (0 allocations: 0 byte, 0.0% gc time)
Closing outfile out/Ml21-cache.bin...   0.000082 seconds
  3.248860 seconds (854.44 k allocations: 81.696 MiB, 1.71% gc time)
make_phi():   0.031702 seconds (8.33 k allocations: 250.484 KiB)
  0.257963 seconds (176.81 k allocations: 11.472 MiB)
tskip:       2.8e-5 sec (0 allocations: 0 byte, 0.0% gc time)
tread:       0.003141 sec (19 allocations: 2.172 KB, 0.0% gc time)
tmultphi:    0.042899 sec (26.022 k allocations: 1.338 MB, 0.0% gc time)
tbrfft:      0.040712 sec (56.017 k allocations: 5.613 MB, 0.0% gc time)
tmultprefac: 0.003914 sec (0 allocations: 0 byte, 0.0% gc time)
toutfunc:    0.167085 sec (94.102 k allocations: 4.45 MB, 0.0% gc time)
Testing R=1.1 ... passed
Calculating fmax: 
  dlrec    = 4
  dlrecRg1 = -4
  q=1.1, R=1.0:	  0.001782 seconds (4.00 k allocations: 300.375 KiB)

  0.002822 seconds (4.04 k allocations: 334.734 KiB)
ℓ = 1202
Δℓ = 4
ΔℓRg1 = -4
N = 1600
q = 1.1
kmin = 1.0e-5
kmax = 100000.00000000004
χ0 = 0.023029999999999995
RR = RR.tsv
ℓmax = ℓmax.bin
f21 = f21.bin
kmin = 1.0e-5
kmax = 100000.0
dlrec    = 4
dlrecRg1 = -4
Output size: 61465536 bytes = 0.05724424123764038 GiB
Output size: 51264 bytes = 4.774332046508789e-5 GiB
Reading 'out/F21EllCache'...   0.001161 seconds (267 allocations: 84.656 KiB)
ellmax: 1202
lmaxcache: 1202
fell[:,1,1] = Complex{Float64}[809.6031528389767 - 1.9829558194077161e-13im, 0.0 + 0.0im]
ell 1202, elapsed: 0.00021505355834960938
ell 1201, elapsed: 0.014805078506469727
ell 1200, elapsed: 0.0007719993591308594
ell 1199, elapsed: 0.00061798095703125
ell 1198, elapsed: 0.00045490264892578125
ell 1197, elapsed: 0.0005049705505371094
ell 1196, elapsed: 0.0005121231079101562
ell 1195, elapsed: 0.0005850791931152344
ell 1194, elapsed: 0.0005919933319091797
ell 1193, elapsed: 0.0006608963012695312
ell 1192, elapsed: 0.0005929470062255859
ell 1191, elapsed: 0.0005819797515869141
ell 1190, elapsed: 0.000576019287109375
ell 1189, elapsed: 0.0005888938903808594
ell 1188, elapsed: 0.0005850791931152344
ell 1187, elapsed: 0.0005738735198974609
ell 1186, elapsed: 0.0005910396575927734
ell 1185, elapsed: 0.0006680488586425781
ell 1184, elapsed: 0.0004858970642089844
ell 1183, elapsed: 0.0006568431854248047
ell 1182, elapsed: 0.0005939006805419922
ell 1181, elapsed: 0.0005860328674316406
ell 1180, elapsed: 0.0005030632019042969
ell 1179, elapsed: 0.0005698204040527344
ell 1178, elapsed: 0.0004990100860595703
ell 1177, elapsed: 0.0005860328674316406
ell 1176, elapsed: 0.0004999637603759766
ell 1175, elapsed: 0.0009138584136962891
ell 1174, elapsed: 0.0005919933319091797
ell 1173, elapsed: 0.0006639957427978516
ell 1172, elapsed: 0.000598907470703125
ell 1171, elapsed: 0.0006639957427978516
ell 1170, elapsed: 0.0005929470062255859
ell 1169, elapsed: 0.0006699562072753906
ell 1168, elapsed: 0.0005030632019042969
ell 1167, elapsed: 0.0005879402160644531
ell 1166, elapsed: 0.0005040168762207031
ell 1165, elapsed: 0.0006067752838134766
ell 1164, elapsed: 0.0005140304565429688
ell 1163, elapsed: 0.0009360313415527344
ell 1162, elapsed: 0.0005400180816650391
ell 1161, elapsed: 0.0005788803100585938
ell 1160, elapsed: 0.0008549690246582031
ell 1159, elapsed: 0.0005080699920654297
ell 1158, elapsed: 0.00045990943908691406
ell 1157, elapsed: 0.0005018711090087891
ell 1156, elapsed: 0.0004360675811767578
ell 1155, elapsed: 0.0006659030914306641
ell 1154, elapsed: 0.0005021095275878906
ell 1153, elapsed: 0.0004980564117431641
ell 1152, elapsed: 0.0004360675811767578
ell 1151, elapsed: 0.0005509853363037109
ell 1150, elapsed: 0.0004680156707763672
ell 1149, elapsed: 0.000518798828125
ell 1148, elapsed: 0.0004642009735107422
ell 1147, elapsed: 0.0007250308990478516
ell 1146, elapsed: 0.0004889965057373047
ell 1145, elapsed: 0.0005350112915039062
ell 1144, elapsed: 0.0004730224609375
ell 1143, elapsed: 0.0005328655242919922
ell 1142, elapsed: 0.0005929470062255859
ell 1141, elapsed: 0.0005400180816650391
ell 1140, elapsed: 0.0004699230194091797
ell 1139, elapsed: 0.0005791187286376953
ell 1138, elapsed: 0.0004909038543701172
ell 1137, elapsed: 0.0005469322204589844
ell 1136, elapsed: 0.00045299530029296875
ell 1135, elapsed: 0.0005810260772705078
ell 1134, elapsed: 0.0004889965057373047
ell 1133, elapsed: 0.0005400180816650391
ell 1132, elapsed: 0.0005950927734375
ell 1131, elapsed: 0.0005450248718261719
ell 1130, elapsed: 0.00047206878662109375
ell 1129, elapsed: 0.0005438327789306641
ell 1128, elapsed: 0.00047397613525390625
ell 1127, elapsed: 0.0007450580596923828
ell 1126, elapsed: 0.0006911754608154297
ell 1125, elapsed: 0.0005500316619873047
ell 1124, elapsed: 0.0004730224609375
ell 1123, elapsed: 0.0005588531494140625
ell 1122, elapsed: 0.0006449222564697266
ell 1121, elapsed: 0.0005810260772705078
ell 1120, elapsed: 0.0004668235778808594
ell 1119, elapsed: 0.0005578994750976562
ell 1118, elapsed: 0.0004851818084716797
ell 1117, elapsed: 0.0005538463592529297
ell 1116, elapsed: 0.00046896934509277344
ell 1115, elapsed: 0.0005731582641601562
ell 1114, elapsed: 0.0004601478576660156
ell 1113, elapsed: 0.0005578994750976562
ell 1112, elapsed: 0.0005009174346923828
ell 1111, elapsed: 0.0005350112915039062
ell 1110, elapsed: 0.0004279613494873047
ell 1109, elapsed: 0.0004780292510986328
ell 1108, elapsed: 0.0003910064697265625
ell 1107, elapsed: 0.0004608631134033203
ell 1106, elapsed: 0.0003910064697265625
ell 1105, elapsed: 0.00045990943908691406
ell 1104, elapsed: 0.00039005279541015625
ell 1103, elapsed: 0.0004601478576660156
ell 1102, elapsed: 0.0005099773406982422
ell 1101, elapsed: 0.0006208419799804688
ell 1100, elapsed: 0.0005159378051757812
ell 1099, elapsed: 0.0005540847778320312
ell 1098, elapsed: 0.0004901885986328125
ell 1097, elapsed: 0.0005371570587158203
ell 1096, elapsed: 0.0005028247833251953
ell 1095, elapsed: 0.0007278919219970703
ell 1094, elapsed: 0.0004928112030029297
ell 1093, elapsed: 0.0005669593811035156
ell 1092, elapsed: 0.0004889965057373047
ell 1091, elapsed: 0.0005409717559814453
ell 1090, elapsed: 0.0007109642028808594
ell 1089, elapsed: 0.0008158683776855469
ell 1088, elapsed: 0.0004940032958984375
ell 1087, elapsed: 0.0005528926849365234
ell 1086, elapsed: 0.000492095947265625
ell 1085, elapsed: 0.0005269050598144531
ell 1084, elapsed: 0.0004889965057373047
ell 1083, elapsed: 0.0005469322204589844
ell 1082, elapsed: 0.0005240440368652344
ell 1081, elapsed: 0.0005290508270263672
ell 1080, elapsed: 0.0004558563232421875
ell 1079, elapsed: 0.0006070137023925781
ell 1078, elapsed: 0.0005450248718261719
ell 1077, elapsed: 0.0005688667297363281
ell 1076, elapsed: 0.00047898292541503906
ell 1075, elapsed: 0.0005500316619873047
ell 1074, elapsed: 0.0006139278411865234
ell 1073, elapsed: 0.0006511211395263672
ell 1072, elapsed: 0.0004968643188476562
ell 1071, elapsed: 0.0005540847778320312
ell 1070, elapsed: 0.00045490264892578125
ell 1069, elapsed: 0.0005199909210205078
ell 1068, elapsed: 0.0005741119384765625
ell 1067, elapsed: 0.0005578994750976562
ell 1066, elapsed: 0.00047898292541503906
ell 1065, elapsed: 0.0007259845733642578
ell 1064, elapsed: 0.00047707557678222656
ell 1063, elapsed: 0.0005300045013427734
ell 1062, elapsed: 0.0004730224609375
ell 1061, elapsed: 0.0005509853363037109
ell 1060, elapsed: 0.00047206878662109375
ell 1059, elapsed: 0.0005400180816650391
ell 1058, elapsed: 0.0004730224609375
ell 1057, elapsed: 0.0005271434783935547
ell 1056, elapsed: 0.0004620552062988281
ell 1055, elapsed: 0.0005431175231933594
ell 1054, elapsed: 0.0004608631134033203
ell 1053, elapsed: 0.0005440711975097656
ell 1052, elapsed: 0.00047397613525390625
ell 1051, elapsed: 0.0005509853363037109
ell 1050, elapsed: 0.00047516822814941406
ell 1049, elapsed: 0.0005388259887695312
ell 1048, elapsed: 0.00047206878662109375
ell 1047, elapsed: 0.0005478858947753906
ell 1046, elapsed: 0.0004818439483642578
ell 1045, elapsed: 0.0005409717559814453
ell 1044, elapsed: 0.0004889965057373047
ell 1043, elapsed: 0.000553131103515625
ell 1042, elapsed: 0.0005729198455810547
ell 1041, elapsed: 0.0007021427154541016
ell 1040, elapsed: 0.00046896934509277344
ell 1039, elapsed: 0.0005581378936767578
ell 1038, elapsed: 0.00047588348388671875
ell 1037, elapsed: 0.00055694580078125
ell 1036, elapsed: 0.0006430149078369141
ell 1035, elapsed: 0.0005438327789306641
ell 1034, elapsed: 0.0004870891571044922
ell 1033, elapsed: 0.0005590915679931641
ell 1032, elapsed: 0.00047898292541503906
ell 1031, elapsed: 0.0005290508270263672
ell 1030, elapsed: 0.0004851818084716797
ell 1029, elapsed: 0.0007238388061523438
ell 1028, elapsed: 0.0004990100860595703
ell 1027, elapsed: 0.0005309581756591797
ell 1026, elapsed: 0.0006961822509765625
ell 1025, elapsed: 0.0004730224609375
ell 1024, elapsed: 0.0003960132598876953
ell 1023, elapsed: 0.000476837158203125
ell 1022, elapsed: 0.00039196014404296875
ell 1021, elapsed: 0.0004551410675048828
ell 1020, elapsed: 0.0005338191986083984
ell 1019, elapsed: 0.0005309581756591797
ell 1018, elapsed: 0.00045108795166015625
ell 1017, elapsed: 0.0005180835723876953
ell 1016, elapsed: 0.0004661083221435547
ell 1015, elapsed: 0.0005121231079101562
ell 1014, elapsed: 0.0005478858947753906
ell 1013, elapsed: 0.0005781650543212891
ell 1012, elapsed: 0.0004439353942871094
ell 1011, elapsed: 0.0005099773406982422
ell 1010, elapsed: 0.0004611015319824219
ell 1009, elapsed: 0.0005350112915039062
ell 1008, elapsed: 0.0004780292510986328
ell 1007, elapsed: 0.0005481243133544922
ell 1006, elapsed: 0.0004911422729492188
ell 1005, elapsed: 0.0007979869842529297
ell 1004, elapsed: 0.00048804283142089844
ell 1003, elapsed: 0.0007128715515136719
ell 1002, elapsed: 0.0004911422729492188
ell 1001, elapsed: 0.0005550384521484375
ell 1000, elapsed: 0.0005028247833251953
ell 999, elapsed: 0.0005581378936767578
ell 998, elapsed: 0.00046706199645996094
ell 997, elapsed: 0.0007829666137695312
ell 996, elapsed: 0.00048279762268066406
ell 995, elapsed: 0.0005629062652587891
ell 994, elapsed: 0.0004940032958984375
ell 993, elapsed: 0.0007610321044921875
ell 992, elapsed: 0.00047707557678222656
ell 991, elapsed: 0.0005438327789306641
ell 990, elapsed: 0.0005631446838378906
ell 989, elapsed: 0.0005521774291992188
ell 988, elapsed: 0.0006320476531982422
ell 987, elapsed: 0.0005640983581542969
ell 986, elapsed: 0.0004799365997314453
ell 985, elapsed: 0.0005590915679931641
ell 984, elapsed: 0.00047206878662109375
ell 983, elapsed: 0.0005450248718261719
ell 982, elapsed: 0.0004839897155761719
ell 981, elapsed: 0.0005550384521484375
ell 980, elapsed: 0.00048279762268066406
ell 979, elapsed: 0.0005359649658203125
ell 978, elapsed: 0.00046706199645996094
ell 977, elapsed: 0.0007550716400146484
ell 976, elapsed: 0.0004718303680419922
ell 975, elapsed: 0.0005338191986083984
ell 974, elapsed: 0.0004749298095703125
ell 973, elapsed: 0.0005381107330322266
ell 972, elapsed: 0.0006508827209472656
ell 971, elapsed: 0.0007770061492919922
ell 970, elapsed: 0.0005090236663818359
ell 969, elapsed: 0.0005550384521484375
ell 968, elapsed: 0.0004699230194091797
ell 967, elapsed: 0.0005488395690917969
ell 966, elapsed: 0.0006527900695800781
ell 965, elapsed: 0.0005691051483154297
ell 964, elapsed: 0.0004730224609375
ell 963, elapsed: 0.0005359649658203125
ell 962, elapsed: 0.00046706199645996094
ell 961, elapsed: 0.0005519390106201172
ell 960, elapsed: 0.00047898292541503906
ell 959, elapsed: 0.0005419254302978516
ell 958, elapsed: 0.0004911422729492188
ell 957, elapsed: 0.0005340576171875
ell 956, elapsed: 0.0007150173187255859
ell 955, elapsed: 0.0005419254302978516
ell 954, elapsed: 0.0004839897155761719
ell 953, elapsed: 0.0005409717559814453
ell 952, elapsed: 0.0004680156707763672
ell 951, elapsed: 0.0005459785461425781
ell 950, elapsed: 0.0004830360412597656
ell 949, elapsed: 0.0005588531494140625
ell 948, elapsed: 0.0004780292510986328
ell 947, elapsed: 0.0005559921264648438
ell 946, elapsed: 0.0004730224609375
ell 945, elapsed: 0.0007879734039306641
ell 944, elapsed: 0.0005109310150146484
ell 943, elapsed: 0.0005359649658203125
ell 942, elapsed: 0.00047087669372558594
ell 941, elapsed: 0.00055694580078125
ell 940, elapsed: 0.00048804283142089844
ell 939, elapsed: 0.00055694580078125
ell 938, elapsed: 0.00048804283142089844
ell 937, elapsed: 0.0005350112915039062
ell 936, elapsed: 0.0004928112030029297
ell 935, elapsed: 0.0007500648498535156
ell 934, elapsed: 0.0004799365997314453
ell 933, elapsed: 0.0005509853363037109
ell 932, elapsed: 0.0004878044128417969
ell 931, elapsed: 0.00055694580078125
ell 930, elapsed: 0.0004839897155761719
ell 929, elapsed: 0.0005490779876708984
ell 928, elapsed: 0.0005030632019042969
ell 927, elapsed: 0.0005428791046142578
ell 926, elapsed: 0.0004658699035644531
ell 925, elapsed: 0.0005609989166259766
ell 924, elapsed: 0.0004909038543701172
ell 923, elapsed: 0.0007309913635253906
ell 922, elapsed: 0.0004839897155761719
ell 921, elapsed: 0.0005300045013427734
ell 920, elapsed: 0.00041103363037109375
ell 919, elapsed: 0.0004608631134033203
ell 918, elapsed: 0.00038695335388183594
ell 917, elapsed: 0.0005021095275878906
ell 916, elapsed: 0.000392913818359375
ell 915, elapsed: 0.0004620552062988281
ell 914, elapsed: 0.00038695335388183594
ell 913, elapsed: 0.00044608116149902344
ell 912, elapsed: 0.0003859996795654297
ell 911, elapsed: 0.0004558563232421875
ell 910, elapsed: 0.0003941059112548828
ell 909, elapsed: 0.0004589557647705078
ell 908, elapsed: 0.0004489421844482422
ell 907, elapsed: 0.00046181678771972656
ell 906, elapsed: 0.00038695335388183594
ell 905, elapsed: 0.0006091594696044922
ell 904, elapsed: 0.0004851818084716797
ell 903, elapsed: 0.0004467964172363281
ell 902, elapsed: 0.00039005279541015625
ell 901, elapsed: 0.00044989585876464844
ell 900, elapsed: 0.0004048347473144531
ell 899, elapsed: 0.0005400180816650391
ell 898, elapsed: 0.0005319118499755859
ell 897, elapsed: 0.0004508495330810547
ell 896, elapsed: 0.00038886070251464844
ell 895, elapsed: 0.00045680999755859375
ell 894, elapsed: 0.00038695335388183594
ell 893, elapsed: 0.0004551410675048828
ell 892, elapsed: 0.00040912628173828125
ell 891, elapsed: 0.00045299530029296875
ell 890, elapsed: 0.00039005279541015625
ell 889, elapsed: 0.00045108795166015625
ell 888, elapsed: 0.0003898143768310547
ell 887, elapsed: 0.00044989585876464844
ell 886, elapsed: 0.0003910064697265625
ell 885, elapsed: 0.000453948974609375
ell 884, elapsed: 0.0003840923309326172
ell 883, elapsed: 0.00046896934509277344
ell 882, elapsed: 0.0003879070281982422
ell 881, elapsed: 0.0004451274871826172
ell 880, elapsed: 0.0003819465637207031
ell 879, elapsed: 0.000453948974609375
ell 878, elapsed: 0.0003898143768310547
ell 877, elapsed: 0.00045108795166015625
ell 876, elapsed: 0.00038909912109375
ell 875, elapsed: 0.00045418739318847656
ell 874, elapsed: 0.00040602684020996094
ell 873, elapsed: 0.0004520416259765625
ell 872, elapsed: 0.00038695335388183594
ell 871, elapsed: 0.0006189346313476562
ell 870, elapsed: 0.00044608116149902344
ell 869, elapsed: 0.00045609474182128906
ell 868, elapsed: 0.0003910064697265625
ell 867, elapsed: 0.00045800209045410156
ell 866, elapsed: 0.0004069805145263672
ell 865, elapsed: 0.0005269050598144531
ell 864, elapsed: 0.0005409717559814453
ell 863, elapsed: 0.0006239414215087891
ell 862, elapsed: 0.0004611015319824219
ell 861, elapsed: 0.0006258487701416016
ell 860, elapsed: 0.0004620552062988281
ell 859, elapsed: 0.0004699230194091797
ell 858, elapsed: 0.0005400180816650391
ell 857, elapsed: 0.0006999969482421875
ell 856, elapsed: 0.0004417896270751953
ell 855, elapsed: 0.00044989585876464844
ell 854, elapsed: 0.0003898143768310547
ell 853, elapsed: 0.0004558563232421875
ell 852, elapsed: 0.00039005279541015625
ell 851, elapsed: 0.0004630088806152344
ell 850, elapsed: 0.0003840923309326172
ell 849, elapsed: 0.0006101131439208984
ell 848, elapsed: 0.00045108795166015625
ell 847, elapsed: 0.00045490264892578125
ell 846, elapsed: 0.0003879070281982422
ell 845, elapsed: 0.0006501674652099609
ell 844, elapsed: 0.0006129741668701172
ell 843, elapsed: 0.0005228519439697266
ell 842, elapsed: 0.000492095947265625
ell 841, elapsed: 0.0005919933319091797
ell 840, elapsed: 0.00039196014404296875
ell 839, elapsed: 0.0004520416259765625
ell 838, elapsed: 0.00039005279541015625
ell 837, elapsed: 0.00045490264892578125
ell 836, elapsed: 0.00040602684020996094
ell 835, elapsed: 0.00045108795166015625
ell 834, elapsed: 0.0005500316619873047
ell 833, elapsed: 0.0005309581756591797
ell 832, elapsed: 0.00039315223693847656
ell 831, elapsed: 0.00045299530029296875
ell 830, elapsed: 0.00039315223693847656
ell 829, elapsed: 0.00045800209045410156
ell 828, elapsed: 0.0004019737243652344
ell 827, elapsed: 0.0004520416259765625
ell 826, elapsed: 0.0003859996795654297
ell 825, elapsed: 0.00045180320739746094
ell 824, elapsed: 0.0003859996795654297
ell 823, elapsed: 0.0004551410675048828
ell 822, elapsed: 0.0003910064697265625
ell 821, elapsed: 0.0004520416259765625
ell 820, elapsed: 0.0005228519439697266
ell 819, elapsed: 0.00057220458984375
ell 818, elapsed: 0.0003859996795654297
ell 817, elapsed: 0.0004620552062988281
ell 816, elapsed: 0.0003910064697265625
ell 815, elapsed: 0.00045299530029296875
ell 814, elapsed: 0.000392913818359375
ell 813, elapsed: 0.0005958080291748047
ell 812, elapsed: 0.0004909038543701172
ell 811, elapsed: 0.0004680156707763672
ell 810, elapsed: 0.0003879070281982422
ell 809, elapsed: 0.00044798851013183594
ell 808, elapsed: 0.00038886070251464844
ell 807, elapsed: 0.0004551410675048828
ell 806, elapsed: 0.0003879070281982422
ell 805, elapsed: 0.0004489421844482422
ell 804, elapsed: 0.00038313865661621094
ell 803, elapsed: 0.0006558895111083984
ell 802, elapsed: 0.00043201446533203125
ell 801, elapsed: 0.0005779266357421875
ell 800, elapsed: 0.0004940032958984375
ell 799, elapsed: 0.0004570484161376953
ell 798, elapsed: 0.00038695335388183594
ell 797, elapsed: 0.00045800209045410156
ell 796, elapsed: 0.0003859996795654297
ell 795, elapsed: 0.0004630088806152344
ell 794, elapsed: 0.0003838539123535156
ell 793, elapsed: 0.00045108795166015625
ell 792, elapsed: 0.0003879070281982422
ell 791, elapsed: 0.00045299530029296875
ell 790, elapsed: 0.00038695335388183594
ell 789, elapsed: 0.00046515464782714844
ell 788, elapsed: 0.000514984130859375
ell 787, elapsed: 0.0005860328674316406
ell 786, elapsed: 0.0004780292510986328
ell 785, elapsed: 0.0006158351898193359
ell 784, elapsed: 0.0003910064697265625
ell 783, elapsed: 0.0005729198455810547
ell 782, elapsed: 0.0006139278411865234
ell 781, elapsed: 0.0005619525909423828
ell 780, elapsed: 0.0004050731658935547
ell 779, elapsed: 0.00045180320739746094
ell 778, elapsed: 0.00038695335388183594
ell 777, elapsed: 0.00045800209045410156
ell 776, elapsed: 0.00039315223693847656
ell 775, elapsed: 0.0004470348358154297
ell 774, elapsed: 0.0003879070281982422
ell 773, elapsed: 0.0005629062652587891
ell 772, elapsed: 0.0005290508270263672
ell 771, elapsed: 0.0004630088806152344
ell 770, elapsed: 0.0003859996795654297
ell 769, elapsed: 0.0004551410675048828
ell 768, elapsed: 0.00038695335388183594
ell 767, elapsed: 0.0004611015319824219
ell 766, elapsed: 0.0003859996795654297
ell 765, elapsed: 0.00045680999755859375
ell 764, elapsed: 0.0003859996795654297
ell 763, elapsed: 0.0004661083221435547
ell 762, elapsed: 0.0003859996795654297
ell 761, elapsed: 0.00045609474182128906
ell 760, elapsed: 0.0003898143768310547
ell 759, elapsed: 0.0006008148193359375
ell 758, elapsed: 0.0004711151123046875
ell 757, elapsed: 0.0004589557647705078
ell 756, elapsed: 0.00039505958557128906
ell 755, elapsed: 0.0004699230194091797
ell 754, elapsed: 0.00039005279541015625
ell 753, elapsed: 0.00045299530029296875
ell 752, elapsed: 0.00038695335388183594
ell 751, elapsed: 0.0004551410675048828
ell 750, elapsed: 0.00039315223693847656
ell 749, elapsed: 0.0004470348358154297
ell 748, elapsed: 0.0003910064697265625
ell 747, elapsed: 0.000453948974609375
ell 746, elapsed: 0.00040602684020996094
ell 745, elapsed: 0.00045609474182128906
ell 744, elapsed: 0.00038695335388183594
ell 743, elapsed: 0.0005331039428710938
ell 742, elapsed: 0.0005390644073486328
ell 741, elapsed: 0.0005629062652587891
ell 740, elapsed: 0.0005199909210205078
ell 739, elapsed: 0.0004718303680419922
ell 738, elapsed: 0.00038695335388183594
ell 737, elapsed: 0.0006020069122314453
ell 736, elapsed: 0.0004961490631103516
ell 735, elapsed: 0.00046706199645996094
ell 734, elapsed: 0.0003981590270996094
ell 733, elapsed: 0.0004611015319824219
ell 732, elapsed: 0.00039696693420410156
ell 731, elapsed: 0.0004448890686035156
ell 730, elapsed: 0.0003979206085205078
ell 729, elapsed: 0.0004601478576660156
ell 728, elapsed: 0.0004000663757324219
ell 727, elapsed: 0.00045609474182128906
ell 726, elapsed: 0.00039386749267578125
ell 725, elapsed: 0.0004620552062988281
ell 724, elapsed: 0.0003991127014160156
ell 723, elapsed: 0.00045609474182128906
ell 722, elapsed: 0.00041294097900390625
ell 721, elapsed: 0.00044989585876464844
ell 720, elapsed: 0.0003960132598876953
ell 719, elapsed: 0.0004520416259765625
ell 718, elapsed: 0.0003991127014160156
ell 717, elapsed: 0.00045013427734375
ell 716, elapsed: 0.00039887428283691406
ell 715, elapsed: 0.00045990943908691406
ell 714, elapsed: 0.0004000663757324219
ell 713, elapsed: 0.0004718303680419922
ell 712, elapsed: 0.0003979206085205078
ell 711, elapsed: 0.0004458427429199219
ell 710, elapsed: 0.0004038810729980469
ell 709, elapsed: 0.0004661083221435547
ell 708, elapsed: 0.0004031658172607422
ell 707, elapsed: 0.0004639625549316406
ell 706, elapsed: 0.0004038810729980469
ell 705, elapsed: 0.0004639625549316406
ell 704, elapsed: 0.0004150867462158203
ell 703, elapsed: 0.0004591941833496094
ell 702, elapsed: 0.0004010200500488281
ell 701, elapsed: 0.0004601478576660156
ell 700, elapsed: 0.0004889965057373047
ell 699, elapsed: 0.0005991458892822266
ell 698, elapsed: 0.0004851818084716797
ell 697, elapsed: 0.0006158351898193359
ell 696, elapsed: 0.0003859996795654297
ell 695, elapsed: 0.00045609474182128906
ell 694, elapsed: 0.0003848075866699219
ell 693, elapsed: 0.00044608116149902344
ell 692, elapsed: 0.00039005279541015625
ell 691, elapsed: 0.00045108795166015625
ell 690, elapsed: 0.00038886070251464844
ell 689, elapsed: 0.0004489421844482422
ell 688, elapsed: 0.0003991127014160156
ell 687, elapsed: 0.0006320476531982422
ell 686, elapsed: 0.000598907470703125
ell 685, elapsed: 0.0005500316619873047
ell 684, elapsed: 0.0003859996795654297
ell 683, elapsed: 0.0005800724029541016
ell 682, elapsed: 0.0005009174346923828
ell 681, elapsed: 0.0004639625549316406
ell 680, elapsed: 0.00039196014404296875
ell 679, elapsed: 0.00045800209045410156
ell 678, elapsed: 0.0003800392150878906
ell 677, elapsed: 0.0004260540008544922
ell 676, elapsed: 0.0005650520324707031
ell 675, elapsed: 0.0005469322204589844
ell 674, elapsed: 0.0005609989166259766
ell 673, elapsed: 0.0007300376892089844
ell 672, elapsed: 0.0005960464477539062
ell 671, elapsed: 0.0005748271942138672
ell 670, elapsed: 0.00039505958557128906
ell 669, elapsed: 0.000431060791015625
ell 668, elapsed: 0.0005519390106201172
ell 667, elapsed: 0.0005209445953369141
ell 666, elapsed: 0.00039577484130859375
ell 665, elapsed: 0.0004551410675048828
ell 664, elapsed: 0.0003910064697265625
ell 663, elapsed: 0.00044989585876464844
ell 662, elapsed: 0.00038886070251464844
ell 661, elapsed: 0.00044608116149902344
ell 660, elapsed: 0.00038909912109375
ell 659, elapsed: 0.00045490264892578125
ell 658, elapsed: 0.0004069805145263672
ell 657, elapsed: 0.0005500316619873047
ell 656, elapsed: 0.0005228519439697266
ell 655, elapsed: 0.0005700588226318359
ell 654, elapsed: 0.0005011558532714844
ell 653, elapsed: 0.0006320476531982422
ell 652, elapsed: 0.0004489421844482422
ell 651, elapsed: 0.0005171298980712891
ell 650, elapsed: 0.0005438327789306641
ell 649, elapsed: 0.0005609989166259766
ell 648, elapsed: 0.00039005279541015625
ell 647, elapsed: 0.00044798851013183594
ell 646, elapsed: 0.0003941059112548828
ell 645, elapsed: 0.00045299530029296875
ell 644, elapsed: 0.00039196014404296875
ell 643, elapsed: 0.0004620552062988281
ell 642, elapsed: 0.00038504600524902344
ell 641, elapsed: 0.0005359649658203125
ell 640, elapsed: 0.0005528926849365234
ell 639, elapsed: 0.0004658699035644531
ell 638, elapsed: 0.00038695335388183594
ell 637, elapsed: 0.00045490264892578125
ell 636, elapsed: 0.00039196014404296875
ell 635, elapsed: 0.0004661083221435547
ell 634, elapsed: 0.0003879070281982422
ell 633, elapsed: 0.00045490264892578125
ell 632, elapsed: 0.00039005279541015625
ell 631, elapsed: 0.00044798851013183594
ell 630, elapsed: 0.0003871917724609375
ell 629, elapsed: 0.0004489421844482422
ell 628, elapsed: 0.0005631446838378906
ell 627, elapsed: 0.0004999637603759766
ell 626, elapsed: 0.0004050731658935547
ell 625, elapsed: 0.0004458427429199219
ell 624, elapsed: 0.00038695335388183594
ell 623, elapsed: 0.00044798851013183594
ell 622, elapsed: 0.00038695335388183594
ell 621, elapsed: 0.0006220340728759766
ell 620, elapsed: 0.0004730224609375
ell 619, elapsed: 0.0004601478576660156
ell 618, elapsed: 0.0004248619079589844
ell 617, elapsed: 0.000453948974609375
ell 616, elapsed: 0.0004019737243652344
ell 615, elapsed: 0.0004780292510986328
ell 614, elapsed: 0.0003991127014160156
ell 613, elapsed: 0.0004608631134033203
ell 612, elapsed: 0.0004010200500488281
ell 611, elapsed: 0.0004558563232421875
ell 610, elapsed: 0.0004019737243652344
ell 609, elapsed: 0.0004558563232421875
ell 608, elapsed: 0.0004010200500488281
ell 607, elapsed: 0.00045108795166015625
ell 606, elapsed: 0.0003979206085205078
ell 605, elapsed: 0.0004558563232421875
ell 604, elapsed: 0.0003991127014160156
ell 603, elapsed: 0.00044989585876464844
ell 602, elapsed: 0.0004010200500488281
ell 601, elapsed: 0.0004699230194091797
ell 600, elapsed: 0.00039887428283691406
ell 599, elapsed: 0.00044918060302734375
ell 598, elapsed: 0.0003960132598876953
ell 597, elapsed: 0.0004591941833496094
ell 596, elapsed: 0.0003991127014160156
ell 595, elapsed: 0.000453948974609375
ell 594, elapsed: 0.00040411949157714844
ell 593, elapsed: 0.0004489421844482422
ell 592, elapsed: 0.0004210472106933594
ell 591, elapsed: 0.0004520416259765625
ell 590, elapsed: 0.00040078163146972656
ell 589, elapsed: 0.0004520416259765625
ell 588, elapsed: 0.0004000663757324219
ell 587, elapsed: 0.00045299530029296875
ell 586, elapsed: 0.0004000663757324219
ell 585, elapsed: 0.00045299530029296875
ell 584, elapsed: 0.0003979206085205078
ell 583, elapsed: 0.0004639625549316406
ell 582, elapsed: 0.00039696693420410156
ell 581, elapsed: 0.00045013427734375
ell 580, elapsed: 0.0003981590270996094
ell 579, elapsed: 0.0004520416259765625
ell 578, elapsed: 0.0003979206085205078
ell 577, elapsed: 0.00045299530029296875
ell 576, elapsed: 0.0003979206085205078
ell 575, elapsed: 0.00045418739318847656
ell 574, elapsed: 0.0004088878631591797
ell 573, elapsed: 0.00045299530029296875
ell 572, elapsed: 0.0003991127014160156
ell 571, elapsed: 0.00045013427734375
ell 570, elapsed: 0.0004000663757324219
ell 569, elapsed: 0.00045800209045410156
ell 568, elapsed: 0.0003979206085205078
ell 567, elapsed: 0.00045299530029296875
ell 566, elapsed: 0.0004100799560546875
ell 565, elapsed: 0.0004551410675048828
ell 564, elapsed: 0.0004000663757324219
ell 563, elapsed: 0.0004589557647705078
ell 562, elapsed: 0.00039887428283691406
ell 561, elapsed: 0.000453948974609375
ell 560, elapsed: 0.0004031658172607422
ell 559, elapsed: 0.0004570484161376953
ell 558, elapsed: 0.00040411949157714844
ell 557, elapsed: 0.00046896934509277344
ell 556, elapsed: 0.00040078163146972656
ell 555, elapsed: 0.000453948974609375
ell 554, elapsed: 0.00039696693420410156
ell 553, elapsed: 0.0004551410675048828
ell 552, elapsed: 0.0004000663757324219
ell 551, elapsed: 0.00045299530029296875
ell 550, elapsed: 0.0004010200500488281
ell 549, elapsed: 0.00045013427734375
ell 548, elapsed: 0.00041103363037109375
ell 547, elapsed: 0.00045990943908691406
ell 546, elapsed: 0.0003979206085205078
ell 545, elapsed: 0.00045299530029296875
ell 544, elapsed: 0.0004019737243652344
ell 543, elapsed: 0.00045108795166015625
ell 542, elapsed: 0.00039887428283691406
ell 541, elapsed: 0.0004570484161376953
ell 540, elapsed: 0.0004019737243652344
ell 539, elapsed: 0.0004611015319824219
ell 538, elapsed: 0.0004019737243652344
ell 537, elapsed: 0.0006239414215087891
ell 536, elapsed: 0.0004761219024658203
ell 535, elapsed: 0.0005850791931152344
ell 534, elapsed: 0.00045013427734375
ell 533, elapsed: 0.0004448890686035156
ell 532, elapsed: 0.0004432201385498047
ell 531, elapsed: 0.000453948974609375
ell 530, elapsed: 0.00038695335388183594
ell 529, elapsed: 0.0004420280456542969
ell 528, elapsed: 0.00038504600524902344
ell 527, elapsed: 0.00044083595275878906
ell 526, elapsed: 0.00038814544677734375
ell 525, elapsed: 0.0006029605865478516
ell 524, elapsed: 0.00048279762268066406
ell 523, elapsed: 0.00045108795166015625
ell 522, elapsed: 0.0004849433898925781
ell 521, elapsed: 0.000698089599609375
ell 520, elapsed: 0.0006110668182373047
ell 519, elapsed: 0.0005290508270263672
ell 518, elapsed: 0.00038886070251464844
ell 517, elapsed: 0.00046515464782714844
ell 516, elapsed: 0.00038695335388183594
ell 515, elapsed: 0.0004520416259765625
ell 514, elapsed: 0.00038695335388183594
ell 513, elapsed: 0.0005259513854980469
ell 512, elapsed: 0.0005540847778320312
ell 511, elapsed: 0.000576019287109375
ell 510, elapsed: 0.0005159378051757812
ell 509, elapsed: 0.0004658699035644531
ell 508, elapsed: 0.0003910064697265625
ell 507, elapsed: 0.0005359649658203125
ell 506, elapsed: 0.0006060600280761719
ell 505, elapsed: 0.0005838871002197266
ell 504, elapsed: 0.00038886070251464844
ell 503, elapsed: 0.00045490264892578125
ell 502, elapsed: 0.00038886070251464844
ell 501, elapsed: 0.00046706199645996094
ell 500, elapsed: 0.0003829002380371094
ell 499, elapsed: 0.0005998611450195312
ell 498, elapsed: 0.0004558563232421875
ell 497, elapsed: 0.00045490264892578125
ell 496, elapsed: 0.00039005279541015625
ell 495, elapsed: 0.0004439353942871094
ell 494, elapsed: 0.000453948974609375
ell 493, elapsed: 0.0006270408630371094
ell 492, elapsed: 0.0003879070281982422
ell 491, elapsed: 0.0004520416259765625
ell 490, elapsed: 0.00039196014404296875
ell 489, elapsed: 0.00044798851013183594
ell 488, elapsed: 0.0003871917724609375
ell 487, elapsed: 0.00044989585876464844
ell 486, elapsed: 0.00038504600524902344
ell 485, elapsed: 0.0006220340728759766
ell 484, elapsed: 0.0004558563232421875
ell 483, elapsed: 0.0006070137023925781
ell 482, elapsed: 0.0004620552062988281
ell 481, elapsed: 0.0004630088806152344
ell 480, elapsed: 0.0005450248718261719
ell 479, elapsed: 0.0005278587341308594
ell 478, elapsed: 0.00040602684020996094
ell 477, elapsed: 0.0004570484161376953
ell 476, elapsed: 0.0003859996795654297
ell 475, elapsed: 0.0004489421844482422
ell 474, elapsed: 0.00038814544677734375
ell 473, elapsed: 0.00045108795166015625
ell 472, elapsed: 0.00038814544677734375
ell 471, elapsed: 0.0004439353942871094
ell 470, elapsed: 0.0003859996795654297
ell 469, elapsed: 0.00047707557678222656
ell 468, elapsed: 0.0005340576171875
ell 467, elapsed: 0.0005521774291992188
ell 466, elapsed: 0.00038909912109375
ell 465, elapsed: 0.00045800209045410156
ell 464, elapsed: 0.0004630088806152344
ell 463, elapsed: 0.0005781650543212891
ell 462, elapsed: 0.0004949569702148438
ell 461, elapsed: 0.0005528926849365234
ell 460, elapsed: 0.0004849433898925781
ell 459, elapsed: 0.0005669593811035156
ell 458, elapsed: 0.0005180835723876953
ell 457, elapsed: 0.0005681514739990234
ell 456, elapsed: 0.0004889965057373047
ell 455, elapsed: 0.00074005126953125
ell 454, elapsed: 0.0010440349578857422
ell 453, elapsed: 0.0005748271942138672
ell 452, elapsed: 0.0004971027374267578
ell 451, elapsed: 0.0007560253143310547
ell 450, elapsed: 0.0005228519439697266
ell 449, elapsed: 0.0005688667297363281
ell 448, elapsed: 0.000492095947265625
ell 447, elapsed: 0.0005700588226318359
ell 446, elapsed: 0.0004940032958984375
ell 445, elapsed: 0.0005669593811035156
ell 444, elapsed: 0.0005331039428710938
ell 443, elapsed: 0.0007469654083251953
ell 442, elapsed: 0.0005068778991699219
ell 441, elapsed: 0.0006251335144042969
ell 440, elapsed: 0.0005419254302978516
ell 439, elapsed: 0.0008349418640136719
ell 438, elapsed: 0.0005488395690917969
ell 437, elapsed: 0.0006299018859863281
ell 436, elapsed: 0.0005309581756591797
ell 435, elapsed: 0.0006148815155029297
ell 434, elapsed: 0.0005319118499755859
ell 433, elapsed: 0.0006201267242431641
ell 432, elapsed: 0.0005209445953369141
ell 431, elapsed: 0.0005791187286376953
ell 430, elapsed: 0.0004999637603759766
ell 429, elapsed: 0.0008900165557861328
ell 428, elapsed: 0.0005700588226318359
ell 427, elapsed: 0.0006380081176757812
ell 426, elapsed: 0.0005350112915039062
ell 425, elapsed: 0.0006070137023925781
ell 424, elapsed: 0.0005400180816650391
ell 423, elapsed: 0.0006210803985595703
ell 422, elapsed: 0.0005879402160644531
ell 421, elapsed: 0.0006029605865478516
ell 420, elapsed: 0.0005249977111816406
ell 419, elapsed: 0.0005888938903808594
ell 418, elapsed: 0.0005359649658203125
ell 417, elapsed: 0.0006108283996582031
ell 416, elapsed: 0.0005271434783935547
ell 415, elapsed: 0.0005919933319091797
ell 414, elapsed: 0.0005381107330322266
ell 413, elapsed: 0.0005929470062255859
ell 412, elapsed: 0.0005240440368652344
ell 411, elapsed: 0.0006349086761474609
ell 410, elapsed: 0.0005528926849365234
ell 409, elapsed: 0.0006198883056640625
ell 408, elapsed: 0.0005970001220703125
ell 407, elapsed: 0.0005838871002197266
ell 406, elapsed: 0.0005347728729248047
ell 405, elapsed: 0.0006098747253417969
ell 404, elapsed: 0.000537872314453125
ell 403, elapsed: 0.00061798095703125
ell 402, elapsed: 0.0005240440368652344
ell 401, elapsed: 0.0005459785461425781
ell 400, elapsed: 0.0004749298095703125
ell 399, elapsed: 0.0006618499755859375
ell 398, elapsed: 0.0005359649658203125
ell 397, elapsed: 0.0006029605865478516
ell 396, elapsed: 0.0005328655242919922
ell 395, elapsed: 0.0006170272827148438
ell 394, elapsed: 0.0005400180816650391
ell 393, elapsed: 0.0006020069122314453
ell 392, elapsed: 0.0004851818084716797
ell 391, elapsed: 0.0006270408630371094
ell 390, elapsed: 0.00051116943359375
ell 389, elapsed: 0.0007948875427246094
ell 388, elapsed: 0.000476837158203125
ell 387, elapsed: 0.0005178451538085938
ell 386, elapsed: 0.0004658699035644531
ell 385, elapsed: 0.0005319118499755859
ell 384, elapsed: 0.00047206878662109375
ell 383, elapsed: 0.0005810260772705078
ell 382, elapsed: 0.0004658699035644531
ell 381, elapsed: 0.0006451606750488281
ell 380, elapsed: 0.0004801750183105469
ell 379, elapsed: 0.0004620552062988281
ell 378, elapsed: 0.0004138946533203125
ell 377, elapsed: 0.000637054443359375
ell 376, elapsed: 0.0006029605865478516
ell 375, elapsed: 0.0006780624389648438
ell 374, elapsed: 0.0004870891571044922
ell 373, elapsed: 0.0004658699035644531
ell 372, elapsed: 0.0005400180816650391
ell 371, elapsed: 0.0006289482116699219
ell 370, elapsed: 0.0005440711975097656
ell 369, elapsed: 0.0007061958312988281
ell 368, elapsed: 0.0004639625549316406
ell 367, elapsed: 0.00044989585876464844
ell 366, elapsed: 0.0005700588226318359
ell 365, elapsed: 0.0007231235504150391
ell 364, elapsed: 0.0006258487701416016
ell 363, elapsed: 0.0007059574127197266
ell 362, elapsed: 0.0004940032958984375
ell 361, elapsed: 0.0006248950958251953
ell 360, elapsed: 0.0004699230194091797
ell 359, elapsed: 0.00044608116149902344
ell 358, elapsed: 0.000553131103515625
ell 357, elapsed: 0.0005481243133544922
ell 356, elapsed: 0.00039196014404296875
ell 355, elapsed: 0.00044989585876464844
ell 354, elapsed: 0.0005609989166259766
ell 353, elapsed: 0.0006830692291259766
ell 352, elapsed: 0.0004448890686035156
ell 351, elapsed: 0.0005638599395751953
ell 350, elapsed: 0.0006270408630371094
ell 349, elapsed: 0.000701904296875
ell 348, elapsed: 0.0005319118499755859
ell 347, elapsed: 0.0006361007690429688
ell 346, elapsed: 0.0006031990051269531
ell 345, elapsed: 0.0006959438323974609
ell 344, elapsed: 0.0006079673767089844
ell 343, elapsed: 0.0006320476531982422
ell 342, elapsed: 0.00039505958557128906
ell 341, elapsed: 0.0006241798400878906
ell 340, elapsed: 0.0004639625549316406
ell 339, elapsed: 0.0005078315734863281
ell 338, elapsed: 0.0005259513854980469
ell 337, elapsed: 0.0005979537963867188
ell 336, elapsed: 0.0004899501800537109
ell 335, elapsed: 0.0006070137023925781
ell 334, elapsed: 0.00038814544677734375
ell 333, elapsed: 0.0004451274871826172
ell 332, elapsed: 0.0003838539123535156
ell 331, elapsed: 0.0004608631134033203
ell 330, elapsed: 0.0003800392150878906
ell 329, elapsed: 0.0004401206970214844
ell 328, elapsed: 0.0003838539123535156
ell 327, elapsed: 0.0004439353942871094
ell 326, elapsed: 0.0003859996795654297
ell 325, elapsed: 0.0004780292510986328
ell 324, elapsed: 0.0005271434783935547
ell 323, elapsed: 0.0005669593811035156
ell 322, elapsed: 0.0003998279571533203
ell 321, elapsed: 0.0004601478576660156
ell 320, elapsed: 0.0003960132598876953
ell 319, elapsed: 0.0004620552062988281
ell 318, elapsed: 0.0004088878631591797
ell 317, elapsed: 0.0004601478576660156
ell 316, elapsed: 0.00040221214294433594
ell 315, elapsed: 0.0004608631134033203
ell 314, elapsed: 0.0004260540008544922
ell 313, elapsed: 0.0004570484161376953
ell 312, elapsed: 0.00041294097900390625
ell 311, elapsed: 0.0005409717559814453
ell 310, elapsed: 0.0004119873046875
ell 309, elapsed: 0.0004858970642089844
ell 308, elapsed: 0.0004010200500488281
ell 307, elapsed: 0.0004839897155761719
ell 306, elapsed: 0.0004010200500488281
ell 305, elapsed: 0.0004611015319824219
ell 304, elapsed: 0.0004000663757324219
ell 303, elapsed: 0.0005140304565429688
ell 302, elapsed: 0.000659942626953125
ell 301, elapsed: 0.0005030632019042969
ell 300, elapsed: 0.0006508827209472656
ell 299, elapsed: 0.0006160736083984375
ell 298, elapsed: 0.0007770061492919922
ell 297, elapsed: 0.0006301403045654297
ell 296, elapsed: 0.0007750988006591797
ell 295, elapsed: 0.0006041526794433594
ell 294, elapsed: 0.0007081031799316406
ell 293, elapsed: 0.0006740093231201172
ell 292, elapsed: 0.0004420280456542969
ell 291, elapsed: 0.0006799697875976562
ell 290, elapsed: 0.0005450248718261719
ell 289, elapsed: 0.0005888938903808594
ell 288, elapsed: 0.0005400180816650391
ell 287, elapsed: 0.0007441043853759766
ell 286, elapsed: 0.0005509853363037109
ell 285, elapsed: 0.0007638931274414062
ell 284, elapsed: 0.0006709098815917969
ell 283, elapsed: 0.0006330013275146484
ell 282, elapsed: 0.0004990100860595703
ell 281, elapsed: 0.0006361007690429688
ell 280, elapsed: 0.0006220340728759766
ell 279, elapsed: 0.0005371570587158203
ell 278, elapsed: 0.0005748271942138672
ell 277, elapsed: 0.0007889270782470703
ell 276, elapsed: 0.0005190372467041016
ell 275, elapsed: 0.0007498264312744141
ell 274, elapsed: 0.00047898292541503906
ell 273, elapsed: 0.0005409717559814453
ell 272, elapsed: 0.0005970001220703125
ell 271, elapsed: 0.0005500316619873047
ell 270, elapsed: 0.00047206878662109375
ell 269, elapsed: 0.0006518363952636719
ell 268, elapsed: 0.0004801750183105469
ell 267, elapsed: 0.0007300376892089844
ell 266, elapsed: 0.0005240440368652344
ell 265, elapsed: 0.00043082237243652344
ell 264, elapsed: 0.0005159378051757812
ell 263, elapsed: 0.0005609989166259766
ell 262, elapsed: 0.0005052089691162109
ell 261, elapsed: 0.000698089599609375
ell 260, elapsed: 0.0006361007690429688
ell 259, elapsed: 0.0006289482116699219
ell 258, elapsed: 0.00039696693420410156
ell 257, elapsed: 0.0006260871887207031
ell 256, elapsed: 0.0004858970642089844
ell 255, elapsed: 0.0006291866302490234
ell 254, elapsed: 0.000476837158203125
ell 253, elapsed: 0.0004470348358154297
ell 252, elapsed: 0.0003750324249267578
ell 251, elapsed: 0.0004470348358154297
ell 250, elapsed: 0.00038695335388183594
ell 249, elapsed: 0.00044608116149902344
ell 248, elapsed: 0.0003941059112548828
ell 247, elapsed: 0.000598907470703125
ell 246, elapsed: 0.0006699562072753906
ell 245, elapsed: 0.0005640983581542969
ell 244, elapsed: 0.0005609989166259766
ell 243, elapsed: 0.0006940364837646484
ell 242, elapsed: 0.00045609474182128906
ell 241, elapsed: 0.0006501674652099609
ell 240, elapsed: 0.0005018711090087891
ell 239, elapsed: 0.0006480216979980469
ell 238, elapsed: 0.0004699230194091797
ell 237, elapsed: 0.0005900859832763672
ell 236, elapsed: 0.0004868507385253906
ell 235, elapsed: 0.0004470348358154297
ell 234, elapsed: 0.0005609989166259766
ell 233, elapsed: 0.0006999969482421875
ell 232, elapsed: 0.0006170272827148438
ell 231, elapsed: 0.0007021427154541016
ell 230, elapsed: 0.0004551410675048828
ell 229, elapsed: 0.0004489421844482422
ell 228, elapsed: 0.0005660057067871094
ell 227, elapsed: 0.0005199909210205078
ell 226, elapsed: 0.0005939006805419922
ell 225, elapsed: 0.0005300045013427734
ell 224, elapsed: 0.00046706199645996094
ell 223, elapsed: 0.0006358623504638672
ell 222, elapsed: 0.0003879070281982422
ell 221, elapsed: 0.0004451274871826172
ell 220, elapsed: 0.0003910064697265625
ell 219, elapsed: 0.0004570484161376953
ell 218, elapsed: 0.0004119873046875
ell 217, elapsed: 0.0005600452423095703
ell 216, elapsed: 0.0006160736083984375
ell 215, elapsed: 0.0005669593811035156
ell 214, elapsed: 0.000392913818359375
ell 213, elapsed: 0.0006129741668701172
ell 212, elapsed: 0.0006189346313476562
ell 211, elapsed: 0.0006270408630371094
ell 210, elapsed: 0.0003910064697265625
ell 209, elapsed: 0.0006079673767089844
ell 208, elapsed: 0.0004999637603759766
ell 207, elapsed: 0.0006229877471923828
ell 206, elapsed: 0.00045299530029296875
ell 205, elapsed: 0.0005888938903808594
ell 204, elapsed: 0.0006170272827148438
ell 203, elapsed: 0.0007011890411376953
ell 202, elapsed: 0.0006160736083984375
ell 201, elapsed: 0.0005939006805419922
ell 200, elapsed: 0.00039386749267578125
ell 199, elapsed: 0.0004558563232421875
ell 198, elapsed: 0.0004878044128417969
ell 197, elapsed: 0.0006248950958251953
ell 196, elapsed: 0.00039315223693847656
ell 195, elapsed: 0.00044798851013183594
ell 194, elapsed: 0.0005481243133544922
ell 193, elapsed: 0.0005528926849365234
ell 192, elapsed: 0.00039315223693847656
ell 191, elapsed: 0.00047206878662109375
ell 190, elapsed: 0.00041985511779785156
ell 189, elapsed: 0.0004489421844482422
ell 188, elapsed: 0.0005431175231933594
ell 187, elapsed: 0.0007059574127197266
ell 186, elapsed: 0.0004420280456542969
ell 185, elapsed: 0.0004410743713378906
ell 184, elapsed: 0.0005240440368652344
ell 183, elapsed: 0.000614166259765625
ell 182, elapsed: 0.0005218982696533203
ell 181, elapsed: 0.0006060600280761719
ell 180, elapsed: 0.0005400180816650391
ell 179, elapsed: 0.0007109642028808594
ell 178, elapsed: 0.0004448890686035156
ell 177, elapsed: 0.0005500316619873047
ell 176, elapsed: 0.000514984130859375
ell 175, elapsed: 0.0006270408630371094
ell 174, elapsed: 0.0004858970642089844
ell 173, elapsed: 0.0005609989166259766
ell 172, elapsed: 0.0005371570587158203
ell 171, elapsed: 0.00045299530029296875
ell 170, elapsed: 0.0005919933319091797
ell 169, elapsed: 0.0005640983581542969
ell 168, elapsed: 0.00048804283142089844
ell 167, elapsed: 0.0006139278411865234
ell 166, elapsed: 0.0004858970642089844
ell 165, elapsed: 0.0006167888641357422
ell 164, elapsed: 0.0004010200500488281
ell 163, elapsed: 0.00047397613525390625
ell 162, elapsed: 0.0004858970642089844
ell 161, elapsed: 0.0006880760192871094
ell 160, elapsed: 0.0004811286926269531
ell 159, elapsed: 0.0004589557647705078
ell 158, elapsed: 0.00038814544677734375
ell 157, elapsed: 0.0006339550018310547
ell 156, elapsed: 0.0004949569702148438
ell 155, elapsed: 0.0006420612335205078
ell 154, elapsed: 0.0006248950958251953
ell 153, elapsed: 0.0007030963897705078
ell 152, elapsed: 0.0005211830139160156
ell 151, elapsed: 0.0005869865417480469
ell 150, elapsed: 0.0004909038543701172
ell 149, elapsed: 0.0006508827209472656
ell 148, elapsed: 0.0005450248718261719
ell 147, elapsed: 0.0006029605865478516
ell 146, elapsed: 0.0005249977111816406
ell 145, elapsed: 0.0007038116455078125
ell 144, elapsed: 0.0004849433898925781
ell 143, elapsed: 0.0006568431854248047
ell 142, elapsed: 0.000598907470703125
ell 141, elapsed: 0.0005850791931152344
ell 140, elapsed: 0.000392913818359375
ell 139, elapsed: 0.0005879402160644531
ell 138, elapsed: 0.0004909038543701172
ell 137, elapsed: 0.0005431175231933594
ell 136, elapsed: 0.0005838871002197266
ell 135, elapsed: 0.0005729198455810547
ell 134, elapsed: 0.0005140304565429688
ell 133, elapsed: 0.0005471706390380859
ell 132, elapsed: 0.0005290508270263672
ell 131, elapsed: 0.000640869140625
ell 130, elapsed: 0.0005438327789306641
ell 129, elapsed: 0.0004291534423828125
ell 128, elapsed: 0.0005581378936767578
ell 127, elapsed: 0.0006251335144042969
ell 126, elapsed: 0.00037407875061035156
ell 125, elapsed: 0.0006039142608642578
ell 124, elapsed: 0.0005190372467041016
ell 123, elapsed: 0.00045108795166015625
ell 122, elapsed: 0.0005490779876708984
ell 121, elapsed: 0.0006809234619140625
ell 120, elapsed: 0.0006310939788818359
ell 119, elapsed: 0.0005791187286376953
ell 118, elapsed: 0.0004649162292480469
ell 117, elapsed: 0.0006279945373535156
ell 116, elapsed: 0.0005619525909423828
ell 115, elapsed: 0.0006887912750244141
ell 114, elapsed: 0.0005438327789306641
ell 113, elapsed: 0.0006549358367919922
ell 112, elapsed: 0.0004811286926269531
ell 111, elapsed: 0.0004551410675048828
ell 110, elapsed: 0.0005359649658203125
ell 109, elapsed: 0.00057220458984375
ell 108, elapsed: 0.0003829002380371094
ell 107, elapsed: 0.0004451274871826172
ell 106, elapsed: 0.00038695335388183594
ell 105, elapsed: 0.0004417896270751953
ell 104, elapsed: 0.0003859996795654297
ell 103, elapsed: 0.00045108795166015625
ell 102, elapsed: 0.0004818439483642578
ell 101, elapsed: 0.0006189346313476562
ell 100, elapsed: 0.0005331039428710938
ell 99, elapsed: 0.0005660057067871094
ell 98, elapsed: 0.0003910064697265625
ell 97, elapsed: 0.0004520416259765625
ell 96, elapsed: 0.00045299530029296875
ell 95, elapsed: 0.0006380081176757812
ell 94, elapsed: 0.0004200935363769531
ell 93, elapsed: 0.00045299530029296875
ell 92, elapsed: 0.0003941059112548828
ell 91, elapsed: 0.0004639625549316406
ell 90, elapsed: 0.0004699230194091797
ell 89, elapsed: 0.0006201267242431641
ell 88, elapsed: 0.0003941059112548828
ell 87, elapsed: 0.00044608116149902344
ell 86, elapsed: 0.00038313865661621094
ell 85, elapsed: 0.0004611015319824219
ell 84, elapsed: 0.00039196014404296875
ell 83, elapsed: 0.00045609474182128906
ell 82, elapsed: 0.00039696693420410156
ell 81, elapsed: 0.00045299530029296875
ell 80, elapsed: 0.00039386749267578125
ell 79, elapsed: 0.00044918060302734375
ell 78, elapsed: 0.000392913818359375
ell 77, elapsed: 0.0004620552062988281
ell 76, elapsed: 0.00038695335388183594
ell 75, elapsed: 0.0004820823669433594
ell 74, elapsed: 0.00039386749267578125
ell 73, elapsed: 0.0006799697875976562
ell 72, elapsed: 0.0004868507385253906
ell 71, elapsed: 0.0004558563232421875
ell 70, elapsed: 0.0004150867462158203
ell 69, elapsed: 0.0005280971527099609
ell 68, elapsed: 0.0003879070281982422
ell 67, elapsed: 0.00045299530029296875
ell 66, elapsed: 0.00039005279541015625
ell 65, elapsed: 0.0004439353942871094
ell 64, elapsed: 0.00038313865661621094
ell 63, elapsed: 0.0004439353942871094
ell 62, elapsed: 0.0003879070281982422
ell 61, elapsed: 0.00046896934509277344
ell 60, elapsed: 0.00039005279541015625
ell 59, elapsed: 0.00044798851013183594
ell 58, elapsed: 0.00038695335388183594
ell 57, elapsed: 0.0004458427429199219
ell 56, elapsed: 0.0003871917724609375
ell 55, elapsed: 0.0004482269287109375
ell 54, elapsed: 0.0003848075866699219
ell 53, elapsed: 0.00044798851013183594
ell 52, elapsed: 0.0004010200500488281
ell 51, elapsed: 0.00045299530029296875
ell 50, elapsed: 0.0004000663757324219
ell 49, elapsed: 0.0004458427429199219
ell 48, elapsed: 0.00038886070251464844
ell 47, elapsed: 0.0004570484161376953
ell 46, elapsed: 0.0004000663757324219
ell 45, elapsed: 0.0004489421844482422
ell 44, elapsed: 0.00039196014404296875
ell 43, elapsed: 0.00047898292541503906
ell 42, elapsed: 0.0003879070281982422
ell 41, elapsed: 0.00044989585876464844
ell 40, elapsed: 0.00038886070251464844
ell 39, elapsed: 0.0004470348358154297
ell 38, elapsed: 0.0003998279571533203
ell 37, elapsed: 0.0004470348358154297
ell 36, elapsed: 0.00038909912109375
ell 35, elapsed: 0.0004439353942871094
ell 34, elapsed: 0.0003871917724609375
ell 33, elapsed: 0.0004551410675048828
ell 32, elapsed: 0.00038886070251464844
ell 31, elapsed: 0.0004558563232421875
ell 30, elapsed: 0.00038886070251464844
ell 29, elapsed: 0.0004589557647705078
ell 28, elapsed: 0.0003910064697265625
ell 27, elapsed: 0.0006148815155029297
ell 26, elapsed: 0.0004611015319824219
ell 25, elapsed: 0.0004520416259765625
ell 24, elapsed: 0.0003859996795654297
ell 23, elapsed: 0.0004420280456542969
ell 22, elapsed: 0.0003941059112548828
ell 21, elapsed: 0.0006470680236816406
ell 20, elapsed: 0.0004279613494873047
ell 19, elapsed: 0.000453948974609375
ell 18, elapsed: 0.00040602684020996094
ell 17, elapsed: 0.00045490264892578125
ell 16, elapsed: 0.00039887428283691406
ell 15, elapsed: 0.00045680999755859375
ell 14, elapsed: 0.0003898143768310547
ell 13, elapsed: 0.00045108795166015625
ell 12, elapsed: 0.00039505958557128906
ell 11, elapsed: 0.0004570484161376953
ell 10, elapsed: 0.00039196014404296875
ell 9, elapsed: 0.00051116943359375
ell 8, elapsed: 0.000469207763671875
ell 7, elapsed: 0.0006239414215087891
ell 6, elapsed: 0.0003898143768310547
ell 5, elapsed: 0.0004570484161376953
ell 4, elapsed: 0.0003859996795654297
ell 3, elapsed: 0.0004551410675048828
ell 2, elapsed: 0.0003910064697265625
ell 1, elapsed: 0.00046706199645996094
ell 0, elapsed: 0.00038909912109375
  0.765923 seconds (41.19 k allocations: 2.939 MiB)
elapsed: 0.0005459785461425781
step:          0.065739 sec (0 allocations: 0 byte, 0.0% gc time)
swapping:      0.000927 sec (0 allocations: 0 byte, 0.0% gc time)
calc_Mellell!: 0.011955 sec (0 allocations: 0 byte, 0.0% gc time)
  t0 :  0.002516 sec (0 allocations: 0 byte, 0.0% gc time)
  tm2 : 0.101965 sec (0 allocations: 0 byte, 0.0% gc time)
  tm2s: 0.001994 sec (0 allocations: 0 byte, 0.0% gc time)
  tm4 : 0.258004 sec (0 allocations: 0 byte, 0.0% gc time)
  tp2 : 0.0 sec (0 allocations: 0 byte, 0.0% gc time)
  tp2s: 0.0 sec (0 allocations: 0 byte, 0.0% gc time)
  tp4 : 0.0 sec (0 allocations: 0 byte, 0.0% gc time)
calc_wtdll!:   0.383253 sec (9.87 k allocations: 1.043 MB, 0.0% gc time)
calc_wljj!:    0.041323 sec (689 allocations: 10.766 KB, 0.0% gc time)
mult_prefac!:  0.0 sec (0 allocations: 0 byte, 0.0% gc time)
convert:       0.0 sec (0 allocations: 0 byte, 0.0% gc time)
write:         0.045934 sec (0 allocations: 0 byte, 0.0% gc time)
test_rand_2f1: 0.0 sec (0 allocations: 0 byte, 0.0% gc time)
Closing outfile out/Ml21-cache.bin...   0.000045 seconds
  0.000758 seconds (52 allocations: 28.297 KiB)
make_phi():   0.003011 seconds (8.33 k allocations: 250.516 KiB)
  0.674943 seconds (738.46 k allocations: 63.300 MiB, 4.22% gc time)
tskip:       0.001495 sec (0 allocations: 0 byte, 0.0% gc time)
tread:       0.036578 sec (19 allocations: 10.688 KB, 0.0% gc time)
tmultphi:    0.015271 sec (0 allocations: 0 byte, 0.0% gc time)
tbrfft:      0.498393 sec (601.361 k allocations: 60.11 MB, 5.71% gc time)
tmultprefac: 0.042408 sec (0 allocations: 0 byte, 0.0% gc time)
toutfunc:    0.074224 sec (129.905 k allocations: 2.421 MB, 0.0% gc time)
Testing R=1.0 ... passed
Calculating fmax: 
  dlrec    = 4
  dlrecRg1 = -4
  q=1.1, R=0.9:	  0.537146 seconds (116.47 k allocations: 15.614 MiB)

  0.537525 seconds (116.50 k allocations: 15.647 MiB)
ℓ = 1202
Δℓ = 4
ΔℓRg1 = -4
N = 1600
q = 1.1
kmin = 1.0e-5
kmax = 100000.00000000004
χ0 = 0.023029999999999995
RR = RR.tsv
ℓmax = ℓmax.bin
f21 = f21.bin
kmin = 1.0e-5
kmax = 100000.0
dlrec    = 4
dlrecRg1 = -4
Output size: 5741568 bytes = 0.005347251892089844 GiB
Output size: 51264 bytes = 4.774332046508789e-5 GiB
Reading 'out/F21EllCache'...   0.001653 seconds (267 allocations: 84.656 KiB)
ellmax: 1202
lmaxcache: 1202
fell[:,1,1] = Complex{Float64}[1.3482014726274674e-57 - 3.302141236118086e-73im, 1.357860004724329e-57 - 3.3257978169518355e-73im]
ell 1202, elapsed: 0.00012993812561035156
ell 1201, elapsed: 0.0005688667297363281
ell 1200, elapsed: 0.0005319118499755859
ell 1199, elapsed: 0.0005278587341308594
ell 1198, elapsed: 0.0005130767822265625
ell 1002, elapsed: 0.0099639892578125
ell 1001, elapsed: 0.0004968643188476562
ell 1000, elapsed: 0.0005598068237304688
ell 999, elapsed: 0.0005178451538085938
ell 998, elapsed: 0.0004661083221435547
ell 902, elapsed: 0.005453824996948242
ell 901, elapsed: 0.0005011558532714844
ell 900, elapsed: 0.000453948974609375
ell 899, elapsed: 0.00046181678771972656
ell 898, elapsed: 0.00045609474182128906
ell 802, elapsed: 0.005755901336669922
ell 801, elapsed: 0.0004849433898925781
ell 800, elapsed: 0.00045299530029296875
ell 799, elapsed: 0.0005381107330322266
ell 798, elapsed: 0.00042510032653808594
ell 702, elapsed: 0.005379199981689453
ell 701, elapsed: 0.0005571842193603516
ell 700, elapsed: 0.00045299530029296875
ell 699, elapsed: 0.0004699230194091797
ell 698, elapsed: 0.0004448890686035156
ell 602, elapsed: 0.005273103713989258
ell 601, elapsed: 0.0004799365997314453
ell 600, elapsed: 0.0004730224609375
ell 599, elapsed: 0.00041604042053222656
ell 598, elapsed: 0.0004169940948486328
ell 502, elapsed: 0.004842042922973633
ell 501, elapsed: 0.0005409717559814453
ell 500, elapsed: 0.0004620552062988281
ell 499, elapsed: 0.0004220008850097656
ell 498, elapsed: 0.00041604042053222656
ell 402, elapsed: 0.005197048187255859
ell 401, elapsed: 0.0004630088806152344
ell 400, elapsed: 0.00045013427734375
ell 399, elapsed: 0.0004138946533203125
ell 398, elapsed: 0.0004291534423828125
ell 302, elapsed: 0.004827976226806641
ell 301, elapsed: 0.00044417381286621094
ell 300, elapsed: 0.00043201446533203125
ell 299, elapsed: 0.00044608116149902344
ell 298, elapsed: 0.000431060791015625
ell 202, elapsed: 0.004920005798339844
ell 201, elapsed: 0.0004520416259765625
ell 200, elapsed: 0.0005960464477539062
ell 199, elapsed: 0.0004558563232421875
ell 198, elapsed: 0.0004138946533203125
ell 152, elapsed: 0.0025789737701416016
ell 151, elapsed: 0.00037288665771484375
ell 150, elapsed: 0.0003769397735595703
ell 149, elapsed: 0.00037598609924316406
ell 148, elapsed: 0.0003750324249267578
ell 127, elapsed: 0.0014688968658447266
ell 126, elapsed: 0.0003809928894042969
ell 125, elapsed: 0.0003979206085205078
ell 124, elapsed: 0.0003719329833984375
ell 123, elapsed: 0.00034999847412109375
ell 114, elapsed: 0.0007998943328857422
ell 113, elapsed: 0.00034999847412109375
ell 112, elapsed: 0.00034809112548828125
ell 111, elapsed: 0.000347137451171875
ell 110, elapsed: 0.0003509521484375
ell 102, elapsed: 0.0008358955383300781
ell 101, elapsed: 0.0003521442413330078
ell 100, elapsed: 0.0003490447998046875
ell 99, elapsed: 0.0003490447998046875
ell 98, elapsed: 0.00034809112548828125
ell 97, elapsed: 0.0003910064697265625
ell 96, elapsed: 0.00045013427734375
ell 95, elapsed: 0.00038909912109375
ell 94, elapsed: 0.00044608116149902344
ell 93, elapsed: 0.0004131793975830078
ell 92, elapsed: 0.00045108795166015625
ell 91, elapsed: 0.00039005279541015625
ell 90, elapsed: 0.0004439353942871094
ell 89, elapsed: 0.0003898143768310547
ell 88, elapsed: 0.0004520416259765625
ell 87, elapsed: 0.0003910064697265625
ell 86, elapsed: 0.0004451274871826172
ell 85, elapsed: 0.00039005279541015625
ell 84, elapsed: 0.0004649162292480469
ell 83, elapsed: 0.00038695335388183594
ell 82, elapsed: 0.00044798851013183594
ell 81, elapsed: 0.00039005279541015625
ell 80, elapsed: 0.00044989585876464844
ell 79, elapsed: 0.00038814544677734375
ell 78, elapsed: 0.00045013427734375
ell 77, elapsed: 0.000392913818359375
ell 76, elapsed: 0.0004451274871826172
ell 75, elapsed: 0.0004050731658935547
ell 74, elapsed: 0.0004508495330810547
ell 73, elapsed: 0.000392913818359375
ell 72, elapsed: 0.00044989585876464844
ell 71, elapsed: 0.00039386749267578125
ell 70, elapsed: 0.0004470348358154297
ell 69, elapsed: 0.0003941059112548828
ell 68, elapsed: 0.00045108795166015625
ell 67, elapsed: 0.00039196014404296875
ell 66, elapsed: 0.0005121231079101562
ell 65, elapsed: 0.00039315223693847656
ell 64, elapsed: 0.0004429817199707031
ell 63, elapsed: 0.00039005279541015625
ell 62, elapsed: 0.0004470348358154297
ell 61, elapsed: 0.0005168914794921875
ell 60, elapsed: 0.00045490264892578125
ell 59, elapsed: 0.00039196014404296875
ell 58, elapsed: 0.0004661083221435547
ell 57, elapsed: 0.0003910064697265625
ell 56, elapsed: 0.0004489421844482422
ell 55, elapsed: 0.00039196014404296875
ell 54, elapsed: 0.0004429817199707031
ell 53, elapsed: 0.000392913818359375
ell 52, elapsed: 0.0004470348358154297
ell 51, elapsed: 0.0003910064697265625
ell 50, elapsed: 0.00044798851013183594
ell 49, elapsed: 0.0004031658172607422
ell 48, elapsed: 0.0005671977996826172
ell 47, elapsed: 0.00039505958557128906
ell 46, elapsed: 0.00044798851013183594
ell 45, elapsed: 0.0003910064697265625
ell 44, elapsed: 0.0004451274871826172
ell 43, elapsed: 0.00039315223693847656
ell 42, elapsed: 0.00044989585876464844
ell 41, elapsed: 0.00039196014404296875
ell 40, elapsed: 0.0004668235778808594
ell 39, elapsed: 0.00039315223693847656
ell 38, elapsed: 0.000453948974609375
ell 37, elapsed: 0.000392913818359375
ell 36, elapsed: 0.0004470348358154297
ell 35, elapsed: 0.00039315223693847656
ell 34, elapsed: 0.0004420280456542969
ell 33, elapsed: 0.00039196014404296875
ell 32, elapsed: 0.0004620552062988281
ell 31, elapsed: 0.0003948211669921875
ell 30, elapsed: 0.00044989585876464844
ell 29, elapsed: 0.00039196014404296875
ell 28, elapsed: 0.0004508495330810547
ell 27, elapsed: 0.000392913818359375
ell 26, elapsed: 0.0004508495330810547
ell 25, elapsed: 0.0003998279571533203
ell 24, elapsed: 0.00044989585876464844
ell 23, elapsed: 0.0004138946533203125
ell 22, elapsed: 0.0004520416259765625
ell 21, elapsed: 0.0004010200500488281
ell 20, elapsed: 0.00045418739318847656
ell 19, elapsed: 0.0003960132598876953
ell 18, elapsed: 0.0004520416259765625
ell 17, elapsed: 0.0003941059112548828
ell 16, elapsed: 0.00044989585876464844
ell 15, elapsed: 0.00039315223693847656
ell 14, elapsed: 0.0004680156707763672
ell 13, elapsed: 0.0003960132598876953
ell 12, elapsed: 0.0004467964172363281
ell 11, elapsed: 0.00039505958557128906
ell 10, elapsed: 0.00044918060302734375
ell 9, elapsed: 0.00039505958557128906
ell 8, elapsed: 0.00045180320739746094
ell 7, elapsed: 0.00039505958557128906
ell 6, elapsed: 0.00045299530029296875
ell 5, elapsed: 0.00040793418884277344
ell 4, elapsed: 0.00045180320739746094
ell 3, elapsed: 0.00039505958557128906
ell 2, elapsed: 0.0004470348358154297
ell 1, elapsed: 0.000392913818359375
ell 0, elapsed: 0.00045013427734375
  0.140515 seconds (10.83 k allocations: 697.938 KiB)
elapsed: 0.0006611347198486328
step:          0.056387 sec (0 allocations: 0 byte, 0.0% gc time)
swapping:      0.000571 sec (0 allocations: 0 byte, 0.0% gc time)
calc_Mellell!: 0.001889 sec (0 allocations: 0 byte, 0.0% gc time)
  t0 :  0.000429 sec (0 allocations: 0 byte, 0.0% gc time)
  tm2 : 0.013331 sec (0 allocations: 0 byte, 0.0% gc time)
  tm2s: 0.000345 sec (0 allocations: 0 byte, 0.0% gc time)
  tm4 : 0.033498 sec (0 allocations: 0 byte, 0.0% gc time)
  tp2 : 0.0 sec (0 allocations: 0 byte, 0.0% gc time)
  tp2s: 0.0 sec (0 allocations: 0 byte, 0.0% gc time)
  tp4 : 0.0 sec (0 allocations: 0 byte, 0.0% gc time)
calc_wtdll!:   0.048304 sec (1.344 k allocations: 147.0 KB, 0.0% gc time)
calc_wljj!:    0.003829 sec (6 allocations: 96 byte, 0.0% gc time)
mult_prefac!:  0.0 sec (0 allocations: 0 byte, 0.0% gc time)
convert:       0.0 sec (0 allocations: 0 byte, 0.0% gc time)
write:         0.003732 sec (0 allocations: 0 byte, 0.0% gc time)
test_rand_2f1: 0.0 sec (0 allocations: 0 byte, 0.0% gc time)
Closing outfile out/Ml21-cache.bin...   0.000080 seconds
  0.001490 seconds (52 allocations: 28.297 KiB)
make_phi():   0.011370 seconds (8.33 k allocations: 250.531 KiB)
  0.057349 seconds (67.14 k allocations: 5.885 MiB)
tskip:       2.9e-5 sec (0 allocations: 0 byte, 0.0% gc time)
tread:       0.002605 sec (19 allocations: 2.172 KB, 0.0% gc time)
tmultphi:    0.001407 sec (0 allocations: 0 byte, 0.0% gc time)
tbrfft:      0.038369 sec (55.941 k allocations: 5.611 MB, 0.0% gc time)
tmultprefac: 0.004052 sec (0 allocations: 0 byte, 0.0% gc time)
toutfunc:    0.010796 sec (10.528 k allocations: 206.5 KB, 0.0% gc time)
Testing R=0.9 ... passed
Calculating fmax: 
  dlrec    = 4
  dlrecRg1 = -4
  q=1.1, R=0.8:	  0.567657 seconds (113.61 k allocations: 15.166 MiB, 31.12% gc time)

  0.568297 seconds (113.66 k allocations: 15.200 MiB, 31.08% gc time)
ℓ = 1202
Δℓ = 4
ΔℓRg1 = -4
N = 1600
q = 1.1
kmin = 1.0e-5
kmax = 100000.00000000004
χ0 = 0.023029999999999995
RR = RR.tsv
ℓmax = ℓmax.bin
f21 = f21.bin
kmin = 1.0e-5
kmax = 100000.0
dlrec    = 4
dlrecRg1 = -4
Output size: 5741568 bytes = 0.005347251892089844 GiB
Output size: 51264 bytes = 4.774332046508789e-5 GiB
Reading 'out/F21EllCache'...   0.001092 seconds (267 allocations: 84.656 KiB)
ellmax: 1202
lmaxcache: 1202
fell[:,1,1] = Complex{Float64}[7.519068145690986e-120 - 1.8416405474382574e-135im, 7.541664537386155e-120 - 1.847175067190611e-135im]
ell 1202, elapsed: 7.605552673339844e-5
ell 1201, elapsed: 0.0005409717559814453
ell 1200, elapsed: 0.0004889965057373047
ell 1199, elapsed: 0.00067901611328125
ell 1198, elapsed: 0.0005769729614257812
ell 1002, elapsed: 0.009681940078735352
ell 1001, elapsed: 0.0004909038543701172
ell 1000, elapsed: 0.0006968975067138672
ell 999, elapsed: 0.00044417381286621094
ell 998, elapsed: 0.0004439353942871094
ell 902, elapsed: 0.0056650638580322266
ell 901, elapsed: 0.0005030632019042969
ell 900, elapsed: 0.0006880760192871094
ell 899, elapsed: 0.0004930496215820312
ell 898, elapsed: 0.0005829334259033203
ell 802, elapsed: 0.0054950714111328125
ell 801, elapsed: 0.0006411075592041016
ell 800, elapsed: 0.0006351470947265625
ell 799, elapsed: 0.0006148815155029297
ell 798, elapsed: 0.00047397613525390625
ell 702, elapsed: 0.005408048629760742
ell 701, elapsed: 0.00048804283142089844
ell 700, elapsed: 0.0005800724029541016
ell 699, elapsed: 0.0006499290466308594
ell 698, elapsed: 0.000514984130859375
ell 602, elapsed: 0.005311012268066406
ell 601, elapsed: 0.0007369518280029297
ell 600, elapsed: 0.0007190704345703125
ell 599, elapsed: 0.0005970001220703125
ell 598, elapsed: 0.00067901611328125
ell 502, elapsed: 0.005636930465698242
ell 501, elapsed: 0.0006861686706542969
ell 500, elapsed: 0.00047898292541503906
ell 499, elapsed: 0.0006771087646484375
ell 498, elapsed: 0.00046896934509277344
ell 402, elapsed: 0.005448818206787109
ell 401, elapsed: 0.0007040500640869141
ell 400, elapsed: 0.00041484832763671875
ell 399, elapsed: 0.0005578994750976562
ell 398, elapsed: 0.0005009174346923828
ell 302, elapsed: 0.004995107650756836
ell 301, elapsed: 0.000553131103515625
ell 300, elapsed: 0.0004639625549316406
ell 299, elapsed: 0.00042510032653808594
ell 298, elapsed: 0.0005931854248046875
ell 202, elapsed: 0.00518798828125
ell 201, elapsed: 0.0005049705505371094
ell 200, elapsed: 0.0003819465637207031
ell 199, elapsed: 0.0004489421844482422
ell 198, elapsed: 0.0004220008850097656
ell 152, elapsed: 0.0025911331176757812
ell 151, elapsed: 0.00045800209045410156
ell 150, elapsed: 0.0004730224609375
ell 149, elapsed: 0.00044989585876464844
ell 148, elapsed: 0.0004470348358154297
ell 127, elapsed: 0.0016391277313232422
ell 126, elapsed: 0.00043892860412597656
ell 125, elapsed: 0.0004341602325439453
ell 124, elapsed: 0.00045800209045410156
ell 123, elapsed: 0.00047588348388671875
ell 114, elapsed: 0.0009257793426513672
ell 113, elapsed: 0.00046896934509277344
ell 112, elapsed: 0.0004551410675048828
ell 111, elapsed: 0.00045609474182128906
ell 110, elapsed: 0.0004699230194091797
ell 102, elapsed: 0.0011589527130126953
ell 101, elapsed: 0.0006539821624755859
ell 100, elapsed: 0.0006489753723144531
ell 99, elapsed: 0.0004639625549316406
ell 98, elapsed: 0.0004558563232421875
ell 97, elapsed: 0.0005068778991699219
ell 96, elapsed: 0.0005450248718261719
ell 95, elapsed: 0.0007169246673583984
ell 94, elapsed: 0.0007688999176025391
ell 93, elapsed: 0.00048089027404785156
ell 92, elapsed: 0.0005578994750976562
ell 91, elapsed: 0.0005040168762207031
ell 90, elapsed: 0.0005469322204589844
ell 89, elapsed: 0.00047397613525390625
ell 88, elapsed: 0.0007541179656982422
ell 87, elapsed: 0.0005919933319091797
ell 86, elapsed: 0.0005650520324707031
ell 85, elapsed: 0.0006868839263916016
ell 84, elapsed: 0.0007588863372802734
ell 83, elapsed: 0.0005419254302978516
ell 82, elapsed: 0.0005850791931152344
ell 81, elapsed: 0.0005168914794921875
ell 80, elapsed: 0.0005490779876708984
ell 79, elapsed: 0.0006170272827148438
ell 78, elapsed: 0.0005860328674316406
ell 77, elapsed: 0.0005090236663818359
ell 76, elapsed: 0.0007789134979248047
ell 75, elapsed: 0.0006461143493652344
ell 74, elapsed: 0.0008580684661865234
ell 73, elapsed: 0.0007271766662597656
ell 72, elapsed: 0.0007610321044921875
ell 71, elapsed: 0.0005030632019042969
ell 70, elapsed: 0.0005857944488525391
ell 69, elapsed: 0.0004951953887939453
ell 68, elapsed: 0.0005590915679931641
ell 67, elapsed: 0.00047588348388671875
ell 66, elapsed: 0.0005700588226318359
ell 65, elapsed: 0.0007681846618652344
ell 64, elapsed: 0.0005719661712646484
ell 63, elapsed: 0.0006229877471923828
ell 62, elapsed: 0.0008480548858642578
ell 61, elapsed: 0.0007710456848144531
ell 60, elapsed: 0.0008180141448974609
ell 59, elapsed: 0.0005869865417480469
ell 58, elapsed: 0.0007569789886474609
ell 57, elapsed: 0.0006840229034423828
ell 56, elapsed: 0.0005719661712646484
ell 55, elapsed: 0.0006690025329589844
ell 54, elapsed: 0.0005710124969482422
ell 53, elapsed: 0.0004971027374267578
ell 52, elapsed: 0.0005941390991210938
ell 51, elapsed: 0.0004870891571044922
ell 50, elapsed: 0.0005340576171875
ell 49, elapsed: 0.0004699230194091797
ell 48, elapsed: 0.0005419254302978516
ell 47, elapsed: 0.0004990100860595703
ell 46, elapsed: 0.0007829666137695312
ell 45, elapsed: 0.0005819797515869141
ell 44, elapsed: 0.0005221366882324219
ell 43, elapsed: 0.00046896934509277344
ell 42, elapsed: 0.0005578994750976562
ell 41, elapsed: 0.00047206878662109375
ell 40, elapsed: 0.0005431175231933594
ell 39, elapsed: 0.0004820823669433594
ell 38, elapsed: 0.0007929801940917969
ell 37, elapsed: 0.000659942626953125
ell 36, elapsed: 0.0005400180816650391
ell 35, elapsed: 0.0004801750183105469
ell 34, elapsed: 0.0005528926849365234
ell 33, elapsed: 0.0004830360412597656
ell 32, elapsed: 0.00055694580078125
ell 31, elapsed: 0.00047278404235839844
ell 30, elapsed: 0.0005509853363037109
ell 29, elapsed: 0.0006940364837646484
ell 28, elapsed: 0.0006499290466308594
ell 27, elapsed: 0.0006420612335205078
ell 26, elapsed: 0.0007250308990478516
ell 25, elapsed: 0.0005109310150146484
ell 24, elapsed: 0.0007989406585693359
ell 23, elapsed: 0.0007481575012207031
ell 22, elapsed: 0.0008361339569091797
ell 21, elapsed: 0.0007429122924804688
ell 20, elapsed: 0.0008018016815185547
[...]
ell 782, elapsed: 0.0016911029815673828
ell 781, elapsed: 0.0009400844573974609
ell 780, elapsed: 0.00096893310546875
ell 779, elapsed: 0.0009558200836181641
ell 778, elapsed: 0.0009298324584960938
ell 772, elapsed: 0.001683950424194336
ell 771, elapsed: 0.0009350776672363281
ell 770, elapsed: 0.0009520053863525391
ell 769, elapsed: 0.0009200572967529297
ell 768, elapsed: 0.0009758472442626953
ell 762, elapsed: 0.0016829967498779297
ell 761, elapsed: 0.0009868144989013672
ell 760, elapsed: 0.000865936279296875
ell 759, elapsed: 0.0009348392486572266
ell 758, elapsed: 0.0009391307830810547
ell 752, elapsed: 0.001644134521484375
ell 751, elapsed: 0.0009450912475585938
ell 750, elapsed: 0.0009188652038574219
ell 749, elapsed: 0.0008859634399414062
ell 748, elapsed: 0.0008840560913085938
ell 742, elapsed: 0.001667022705078125
ell 741, elapsed: 0.000904083251953125
ell 740, elapsed: 0.0009009838104248047
ell 739, elapsed: 0.0008997917175292969
ell 738, elapsed: 0.0008919239044189453
ell 732, elapsed: 0.0018229484558105469
ell 731, elapsed: 0.0008299350738525391
ell 730, elapsed: 0.0009138584136962891
ell 729, elapsed: 0.0009160041809082031
ell 728, elapsed: 0.0009050369262695312
ell 722, elapsed: 0.0016651153564453125
ell 721, elapsed: 0.0009300708770751953
ell 720, elapsed: 0.0009810924530029297
ell 719, elapsed: 0.0009350776672363281
ell 718, elapsed: 0.000904083251953125
ell 712, elapsed: 0.0016150474548339844
ell 711, elapsed: 0.0009150505065917969
ell 710, elapsed: 0.0008931159973144531
ell 709, elapsed: 0.0008649826049804688
ell 708, elapsed: 0.0008320808410644531
ell 702, elapsed: 0.0015528202056884766
ell 701, elapsed: 0.0008871555328369141
ell 700, elapsed: 0.0009219646453857422
ell 699, elapsed: 0.0009210109710693359
ell 698, elapsed: 0.0009028911590576172
ell 692, elapsed: 0.0016579627990722656
ell 691, elapsed: 0.0009210109710693359
ell 690, elapsed: 0.0009021759033203125
ell 689, elapsed: 0.0009100437164306641
ell 688, elapsed: 0.0008950233459472656
ell 682, elapsed: 0.0016770362854003906
ell 681, elapsed: 0.0009379386901855469
ell 680, elapsed: 0.0008890628814697266
ell 679, elapsed: 0.0009369850158691406
ell 678, elapsed: 0.0009350776672363281
ell 672, elapsed: 0.0016808509826660156
ell 671, elapsed: 0.0009241104125976562
ell 670, elapsed: 0.0009369850158691406
ell 669, elapsed: 0.0009150505065917969
ell 668, elapsed: 0.0009508132934570312
ell 662, elapsed: 0.0019497871398925781
ell 661, elapsed: 0.0009679794311523438
ell 660, elapsed: 0.0009419918060302734
ell 659, elapsed: 0.0009500980377197266
ell 658, elapsed: 0.0009169578552246094
ell 652, elapsed: 0.0018880367279052734
ell 651, elapsed: 0.0009241104125976562
ell 650, elapsed: 0.000843048095703125
ell 649, elapsed: 0.0008571147918701172
ell 648, elapsed: 0.0009281635284423828
ell 642, elapsed: 0.0016639232635498047
ell 641, elapsed: 0.0008308887481689453
ell 640, elapsed: 0.0008270740509033203
ell 639, elapsed: 0.0009629726409912109
ell 638, elapsed: 0.0007758140563964844
ell 632, elapsed: 0.0015549659729003906
ell 631, elapsed: 0.0007729530334472656
ell 630, elapsed: 0.0009701251983642578
ell 629, elapsed: 0.0008249282836914062
ell 628, elapsed: 0.0008211135864257812
ell 622, elapsed: 0.001744985580444336
ell 621, elapsed: 0.0008318424224853516
ell 620, elapsed: 0.0008320808410644531
ell 619, elapsed: 0.0008070468902587891
ell 618, elapsed: 0.0008308887481689453
ell 612, elapsed: 0.001748800277709961
ell 611, elapsed: 0.0008370876312255859
ell 610, elapsed: 0.0008249282836914062
ell 609, elapsed: 0.0008409023284912109
ell 608, elapsed: 0.0008380413055419922
ell 602, elapsed: 0.0015299320220947266
ell 601, elapsed: 0.000782012939453125
ell 600, elapsed: 0.0008268356323242188
ell 599, elapsed: 0.0010120868682861328
ell 598, elapsed: 0.0008080005645751953
ell 592, elapsed: 0.0016758441925048828
ell 591, elapsed: 0.000782012939453125
ell 590, elapsed: 0.0008289813995361328
ell 589, elapsed: 0.0007970333099365234
ell 588, elapsed: 0.0008118152618408203
ell 582, elapsed: 0.0015358924865722656
ell 581, elapsed: 0.000804901123046875
ell 580, elapsed: 0.0008230209350585938
ell 579, elapsed: 0.0008180141448974609
ell 578, elapsed: 0.0008318424224853516
ell 572, elapsed: 0.0015289783477783203
ell 571, elapsed: 0.0008230209350585938
ell 570, elapsed: 0.0008320808410644531
ell 569, elapsed: 0.0008351802825927734
ell 568, elapsed: 0.0008358955383300781
ell 562, elapsed: 0.0014920234680175781
ell 561, elapsed: 0.0008039474487304688
ell 560, elapsed: 0.0008370876312255859
ell 559, elapsed: 0.000782012939453125
ell 558, elapsed: 0.0008180141448974609
ell 552, elapsed: 0.001714944839477539
ell 551, elapsed: 0.0007998943328857422
ell 550, elapsed: 0.0008339881896972656
ell 549, elapsed: 0.001010894775390625
ell 548, elapsed: 0.0008149147033691406
ell 542, elapsed: 0.0015377998352050781
ell 541, elapsed: 0.0008180141448974609
ell 540, elapsed: 0.0008218288421630859
ell 539, elapsed: 0.0008161067962646484
ell 538, elapsed: 0.0008320808410644531
ell 532, elapsed: 0.0017650127410888672
ell 531, elapsed: 0.0007331371307373047
ell 530, elapsed: 0.0008080005645751953
ell 529, elapsed: 0.0008230209350585938
ell 528, elapsed: 0.000823974609375
ell 522, elapsed: 0.0015461444854736328
ell 521, elapsed: 0.0008981227874755859
ell 520, elapsed: 0.0008289813995361328
ell 519, elapsed: 0.0008289813995361328
ell 518, elapsed: 0.0008208751678466797
ell 512, elapsed: 0.0015959739685058594
ell 511, elapsed: 0.0010759830474853516
ell 510, elapsed: 0.0008139610290527344
ell 509, elapsed: 0.0007967948913574219
ell 508, elapsed: 0.0008411407470703125
ell 502, elapsed: 0.0015192031860351562
ell 501, elapsed: 0.0008208751678466797
ell 500, elapsed: 0.0008151531219482422
ell 499, elapsed: 0.0009181499481201172
ell 498, elapsed: 0.0007998943328857422
ell 492, elapsed: 0.0015459060668945312
ell 491, elapsed: 0.0008139610290527344
ell 490, elapsed: 0.0009360313415527344
ell 489, elapsed: 0.0008249282836914062
ell 488, elapsed: 0.0008480548858642578
ell 482, elapsed: 0.001544952392578125
ell 481, elapsed: 0.0008578300476074219
ell 480, elapsed: 0.0008208751678466797
ell 479, elapsed: 0.0008339881896972656
ell 478, elapsed: 0.0008070468902587891
ell 472, elapsed: 0.0015680789947509766
ell 471, elapsed: 0.0008308887481689453
ell 470, elapsed: 0.0008039474487304688
ell 469, elapsed: 0.0008320808410644531
ell 468, elapsed: 0.0008389949798583984
ell 462, elapsed: 0.001519918441772461
ell 461, elapsed: 0.0008070468902587891
ell 460, elapsed: 0.0008420944213867188
ell 459, elapsed: 0.0008339881896972656
ell 458, elapsed: 0.0008299350738525391
ell 452, elapsed: 0.001508951187133789
ell 451, elapsed: 0.0008242130279541016
ell 450, elapsed: 0.0008559226989746094
ell 449, elapsed: 0.0008308887481689453
ell 448, elapsed: 0.0008180141448974609
ell 442, elapsed: 0.001538991928100586
ell 441, elapsed: 0.000823974609375
ell 440, elapsed: 0.0008189678192138672
ell 439, elapsed: 0.0008180141448974609
ell 438, elapsed: 0.0008230209350585938
ell 432, elapsed: 0.0016651153564453125
ell 431, elapsed: 0.001065969467163086
ell 430, elapsed: 0.00109100341796875
ell 429, elapsed: 0.0009250640869140625
ell 428, elapsed: 0.0008249282836914062
ell 422, elapsed: 0.0015559196472167969
ell 421, elapsed: 0.0008120536804199219
ell 420, elapsed: 0.0008769035339355469
ell 419, elapsed: 0.000823974609375
ell 418, elapsed: 0.0008261203765869141
ell 412, elapsed: 0.001435995101928711
ell 411, elapsed: 0.0009140968322753906
ell 410, elapsed: 0.0008020401000976562
ell 409, elapsed: 0.0008029937744140625
ell 408, elapsed: 0.0008139610290527344
ell 402, elapsed: 0.0016329288482666016
ell 401, elapsed: 0.0008180141448974609
ell 400, elapsed: 0.0010750293731689453
ell 399, elapsed: 0.000782012939453125
ell 398, elapsed: 0.0009050369262695312
ell 392, elapsed: 0.001561880111694336
ell 391, elapsed: 0.0008218288421630859
ell 390, elapsed: 0.0007898807525634766
ell 389, elapsed: 0.0008831024169921875
ell 388, elapsed: 0.0007979869842529297
ell 382, elapsed: 0.001569986343383789
ell 381, elapsed: 0.0009038448333740234
ell 380, elapsed: 0.0008230209350585938
ell 379, elapsed: 0.0008230209350585938
ell 378, elapsed: 0.0008292198181152344
ell 372, elapsed: 0.0016529560089111328
ell 371, elapsed: 0.0008261203765869141
ell 370, elapsed: 0.0008080005645751953
ell 369, elapsed: 0.0008039474487304688
ell 368, elapsed: 0.0008149147033691406
ell 362, elapsed: 0.001661062240600586
ell 361, elapsed: 0.0008130073547363281
ell 360, elapsed: 0.0007829666137695312
ell 359, elapsed: 0.0009160041809082031
ell 358, elapsed: 0.0008180141448974609
ell 352, elapsed: 0.0017230510711669922
ell 351, elapsed: 0.0007739067077636719
ell 350, elapsed: 0.0009348392486572266
ell 349, elapsed: 0.0008389949798583984
ell 348, elapsed: 0.0008170604705810547
ell 342, elapsed: 0.002009153366088867
ell 341, elapsed: 0.0007808208465576172
ell 340, elapsed: 0.0008139610290527344
ell 339, elapsed: 0.0008139610290527344
ell 338, elapsed: 0.0008180141448974609
ell 332, elapsed: 0.001837015151977539
ell 331, elapsed: 0.0008189678192138672
ell 330, elapsed: 0.0008080005645751953
ell 329, elapsed: 0.0010750293731689453
ell 328, elapsed: 0.0008139610290527344
ell 322, elapsed: 0.0015270709991455078
ell 321, elapsed: 0.0008299350738525391
ell 320, elapsed: 0.0010900497436523438
ell 319, elapsed: 0.0007791519165039062
ell 318, elapsed: 0.0008020401000976562
ell 312, elapsed: 0.0017850399017333984
ell 311, elapsed: 0.0008339881896972656
ell 310, elapsed: 0.0008251667022705078
ell 309, elapsed: 0.0008060932159423828
ell 308, elapsed: 0.0008208751678466797
ell 302, elapsed: 0.0017359256744384766
ell 301, elapsed: 0.0008199214935302734
ell 300, elapsed: 0.001065969467163086
ell 299, elapsed: 0.0010919570922851562
ell 298, elapsed: 0.0008280277252197266
ell 292, elapsed: 0.0015461444854736328
ell 291, elapsed: 0.0013499259948730469
ell 290, elapsed: 0.0008339881896972656
ell 289, elapsed: 0.0008149147033691406
ell 288, elapsed: 0.000823974609375
ell 282, elapsed: 0.0018091201782226562
ell 281, elapsed: 0.0008199214935302734
ell 280, elapsed: 0.0008349418640136719
ell 279, elapsed: 0.0008289813995361328
ell 278, elapsed: 0.0010759830474853516
ell 272, elapsed: 0.0015749931335449219
ell 271, elapsed: 0.0007979869842529297
ell 270, elapsed: 0.0008118152618408203
ell 269, elapsed: 0.0011229515075683594
ell 268, elapsed: 0.0008230209350585938
ell 262, elapsed: 0.0015408992767333984
ell 261, elapsed: 0.0009319782257080078
ell 260, elapsed: 0.0007798671722412109
ell 259, elapsed: 0.0007929801940917969
ell 258, elapsed: 0.0008168220520019531
ell 252, elapsed: 0.0017690658569335938
ell 251, elapsed: 0.0009949207305908203
ell 250, elapsed: 0.0008509159088134766
ell 249, elapsed: 0.000823974609375
ell 248, elapsed: 0.0009679794311523438
ell 242, elapsed: 0.0015327930450439453
ell 241, elapsed: 0.0011870861053466797
ell 240, elapsed: 0.0008490085601806641
ell 239, elapsed: 0.0008370876312255859
ell 238, elapsed: 0.0008378028869628906
ell 232, elapsed: 0.0015349388122558594
ell 231, elapsed: 0.0008399486541748047
ell 230, elapsed: 0.0008280277252197266
ell 229, elapsed: 0.0008301734924316406
ell 228, elapsed: 0.0008211135864257812
ell 222, elapsed: 0.0015671253204345703
ell 221, elapsed: 0.0008230209350585938
ell 220, elapsed: 0.0008261203765869141
ell 219, elapsed: 0.0008499622344970703
ell 218, elapsed: 0.0008349418640136719
ell 212, elapsed: 0.0017452239990234375
ell 211, elapsed: 0.0007829666137695312
ell 210, elapsed: 0.0008299350738525391
ell 209, elapsed: 0.0008540153503417969
ell 208, elapsed: 0.0008409023284912109
ell 202, elapsed: 0.0015649795532226562
ell 201, elapsed: 0.0008339881896972656
ell 200, elapsed: 0.000843048095703125
ell 199, elapsed: 0.0008349418640136719
ell 198, elapsed: 0.0008409023284912109
ell 192, elapsed: 0.0016009807586669922
ell 191, elapsed: 0.0008320808410644531
ell 190, elapsed: 0.0008339881896972656
ell 189, elapsed: 0.0008268356323242188
ell 188, elapsed: 0.0008327960968017578
ell 182, elapsed: 0.0018699169158935547
ell 181, elapsed: 0.000843048095703125
ell 180, elapsed: 0.0008141994476318359
ell 179, elapsed: 0.0008258819580078125
ell 178, elapsed: 0.0008320808410644531
ell 172, elapsed: 0.0015490055084228516
ell 171, elapsed: 0.0008211135864257812
ell 170, elapsed: 0.0008528232574462891
ell 169, elapsed: 0.0008440017700195312
ell 168, elapsed: 0.0008318424224853516
ell 162, elapsed: 0.001750946044921875
ell 161, elapsed: 0.0008080005645751953
ell 160, elapsed: 0.0008349418640136719
ell 159, elapsed: 0.0008399486541748047
ell 158, elapsed: 0.0008399486541748047
ell 152, elapsed: 0.0018429756164550781
ell 151, elapsed: 0.0008420944213867188
ell 150, elapsed: 0.0008299350738525391
ell 149, elapsed: 0.0008230209350585938
ell 148, elapsed: 0.0008409023284912109
ell 142, elapsed: 0.001583099365234375
ell 141, elapsed: 0.0008511543273925781
ell 140, elapsed: 0.001085042953491211
ell 139, elapsed: 0.0007891654968261719
ell 138, elapsed: 0.0008280277252197266
ell 132, elapsed: 0.0015571117401123047
ell 131, elapsed: 0.0009179115295410156
ell 130, elapsed: 0.0008361339569091797
ell 129, elapsed: 0.0008099079132080078
ell 128, elapsed: 0.0008399486541748047
ell 122, elapsed: 0.0015850067138671875
ell 121, elapsed: 0.0008549690246582031
ell 120, elapsed: 0.000843048095703125
ell 119, elapsed: 0.0008480548858642578
ell 118, elapsed: 0.0008318424224853516
ell 112, elapsed: 0.0015320777893066406
ell 111, elapsed: 0.0010709762573242188
ell 110, elapsed: 0.0007979869842529297
ell 109, elapsed: 0.000843048095703125
ell 108, elapsed: 0.000823974609375
ell 102, elapsed: 0.0015060901641845703
ell 101, elapsed: 0.003431081771850586
ell 100, elapsed: 0.003432035446166992
ell 99, elapsed: 0.004594087600708008
ell 98, elapsed: 0.0038840770721435547
ell 92, elapsed: 0.006952047348022461
ell 91, elapsed: 0.0040929317474365234
ell 90, elapsed: 0.003980875015258789
ell 89, elapsed: 0.0036439895629882812
ell 88, elapsed: 0.004021167755126953
ell 82, elapsed: 0.006534099578857422
ell 81, elapsed: 0.003820180892944336
ell 80, elapsed: 0.0031778812408447266
ell 79, elapsed: 0.0036628246307373047
ell 78, elapsed: 0.0037310123443603516
ell 72, elapsed: 0.005864143371582031
ell 71, elapsed: 0.004348039627075195
ell 70, elapsed: 0.004271984100341797
ell 69, elapsed: 0.0042650699615478516
ell 68, elapsed: 0.003525972366333008
ell 62, elapsed: 0.006371974945068359
ell 61, elapsed: 0.004263877868652344
ell 60, elapsed: 0.003841876983642578
ell 59, elapsed: 0.0031890869140625
ell 58, elapsed: 0.003679037094116211
ell 52, elapsed: 0.006751060485839844
ell 51, elapsed: 0.003242969512939453
ell 50, elapsed: 0.003957033157348633
ell 49, elapsed: 0.003921031951904297
ell 48, elapsed: 0.00418400764465332
ell 42, elapsed: 0.00639796257019043
ell 41, elapsed: 0.0037012100219726562
ell 40, elapsed: 0.004538059234619141
ell 39, elapsed: 0.0025491714477539062
ell 38, elapsed: 0.0025560855865478516
ell 32, elapsed: 0.004717111587524414
ell 31, elapsed: 0.002552032470703125
ell 30, elapsed: 0.002733945846557617
ell 29, elapsed: 0.003371000289916992
ell 28, elapsed: 0.003453969955444336
ell 22, elapsed: 0.007066965103149414
ell 21, elapsed: 0.004388093948364258
ell 20, elapsed: 0.0036602020263671875
ell 19, elapsed: 0.0040819644927978516
ell 18, elapsed: 0.0045168399810791016
ell 12, elapsed: 0.006966829299926758
ell 11, elapsed: 0.0033309459686279297
ell 10, elapsed: 0.0043489933013916016
ell 9, elapsed: 0.004588127136230469
ell 8, elapsed: 0.0036728382110595703
  0.819313 seconds (66.75 k allocations: 12.139 MiB)
elapsed: 0.004628181457519531
step:          0.07452 sec (0 allocations: 0 byte, 0.0% gc time)
swapping:      0.000847 sec (0 allocations: 0 byte, 0.0% gc time)
calc_Mellell!: 0.036707 sec (0 allocations: 0 byte, 0.0% gc time)
  t0 :  0.010721 sec (0 allocations: 0 byte, 0.0% gc time)
  tm2 : 0.079221 sec (0 allocations: 0 byte, 0.0% gc time)
  tm2s: 0.009359 sec (0 allocations: 0 byte, 0.0% gc time)
  tm4 : 0.19156 sec (0 allocations: 0 byte, 0.0% gc time)
  tp2 : 0.0 sec (0 allocations: 0 byte, 0.0% gc time)
  tp2s: 0.0 sec (0 allocations: 0 byte, 0.0% gc time)
  tp4 : 0.0 sec (0 allocations: 0 byte, 0.0% gc time)
calc_wtdll!:   0.555407 sec (49.2 k allocations: 11.133 MB, 0.0% gc time)
calc_wljj!:    0.040452 sec (69 allocations: 1.078 KB, 0.0% gc time)
mult_prefac!:  0.0 sec (0 allocations: 0 byte, 0.0% gc time)
convert:       0.0 sec (0 allocations: 0 byte, 0.0% gc time)
write:         0.033709 sec (0 allocations: 0 byte, 0.0% gc time)
test_rand_2f1: 0.0 sec (0 allocations: 0 byte, 0.0% gc time)
Closing outfile out/MlCache/MlCache.bin...   0.000005 seconds
xi, l=0, nu=0:   0.486189 seconds (650.31 k allocations: 31.235 MiB, 3.22% gc time)
xi, l=0, nu=-2:  0.002901 seconds (407 allocations: 176.828 KiB)
Created 'out/xi.tsv'.
  q=1.1, R=0.6:	  0.787604 seconds (291.08 k allocations: 38.895 MiB, 1.72% gc time)
  q=1.1, R=0.7:	  0.945275 seconds (304.75 k allocations: 40.996 MiB, 3.89% gc time)
  q=1.1, R=0.8:	  0.878287 seconds (299.14 k allocations: 40.132 MiB, 0.91% gc time)
  q=1.1, R=0.9:	  0.993592 seconds (293.57 k allocations: 39.286 MiB, 0.79% gc time)
  q=1.1, R=0.998:	 22.485389 seconds (10.67 M allocations: 823.453 MiB, 0.32% gc time)
  q=1.1, R=1.0:	  0.004204 seconds (10.24 k allocations: 768.375 KiB)

ℓ = 1000
Δℓ = 4
ΔℓRg1 = -4
N = 4096
q = 1.1
kmin = 1.0e-5
kmax = 1000.0
χ0 = 0.001
RR = RR.tsv
ℓmax = ℓmax.bin
f21 = f21.bin
kmin = 1.0e-5
kmax = 1000.0
dlrec    = 4
dlrecRg1 = -4
Output size: 1573632 bytes = 0.0014655590057373047 GiB
Output size: 786816 bytes = 0.0007327795028686523 GiB
Reading 'out/F21EllCache'...   0.001454 seconds (268 allocations: 533.531 KiB)
ellmax: 1002
lmaxcache: 1000
fell[:,1,1] = Complex{Float64}[1.7262928128202118e-224 - 4.2281979352226944e-240im, 1.7282693092099662e-224 - 4.233038955177176e-240im]
ell 1002, elapsed: 2.5987625122070312e-5
ell 1001, elapsed: 0.0007050037384033203
ell 1000, elapsed: 0.0006880760192871094
ell 999, elapsed: 0.005156040191650391
ell 998, elapsed: 0.005380153656005859
ell 44, elapsed: 0.6562261581420898
ell 43, elapsed: 0.0064051151275634766
ell 42, elapsed: 0.007213115692138672
ell 41, elapsed: 0.006113767623901367
ell 40, elapsed: 0.005651950836181641
  0.700891 seconds (4.55 k allocations: 320.359 KiB)
elapsed: 0.006912946701049805
step:          0.652497 sec (0 allocations: 0 byte, 0.0% gc time)
swapping:      0.000581 sec (0 allocations: 0 byte, 0.0% gc time)
calc_Mellell!: 0.001164 sec (0 allocations: 0 byte, 0.0% gc time)
  t0 :  0.000428 sec (0 allocations: 0 byte, 0.0% gc time)
  tm2 : 0.010961 sec (0 allocations: 0 byte, 0.0% gc time)
  tm2s: 0.000295 sec (0 allocations: 0 byte, 0.0% gc time)
  tm4 : 0.028803 sec (0 allocations: 0 byte, 0.0% gc time)
  tp2 : 0.0 sec (0 allocations: 0 byte, 0.0% gc time)
  tp2s: 0.0 sec (0 allocations: 0 byte, 0.0% gc time)
  tp4 : 0.0 sec (0 allocations: 0 byte, 0.0% gc time)
calc_wtdll!:   0.040726 sec (480 allocations: 52.5 KB, 0.0% gc time)
calc_wljj!:    0.001514 sec (1 allocations: 16 byte, 0.0% gc time)
mult_prefac!:  0.0 sec (0 allocations: 0 byte, 0.0% gc time)
convert:       0.0 sec (0 allocations: 0 byte, 0.0% gc time)
write:         0.000919 sec (0 allocations: 0 byte, 0.0% gc time)
test_rand_2f1: 0.0 sec (0 allocations: 0 byte, 0.0% gc time)
Closing outfile out/MlCache/MlCache.bin...   0.000007 seconds
  1.415875 seconds (583.14 k allocations: 56.920 MiB, 0.69% gc time)
make_phi():   0.022267 seconds (224 allocations: 290.891 KiB)
  0.007459 seconds (6.00 k allocations: 616.906 KiB)
tskip:       1.0e-6 sec (0 allocations: 0 byte, 0.0% gc time)
tread:       0.000707 sec (19 allocations: 1.312 KB, 0.0% gc time)
tmultphi:    0.000418 sec (0 allocations: 0 byte, 0.0% gc time)
tbrfft:      0.005158 sec (5.99 k allocations: 615.594 KB, 0.0% gc time)
tmultprefac: 0.001146 sec (0 allocations: 0 byte, 0.0% gc time)
toutfunc:    0.000155 sec (0 allocations: 0 byte, 0.0% gc time)
Created 'out/wl42_jj00.tsv'.
Created 'out/wl42_jj02.tsv'.
    Testing TwoFAST tests passed 
