Julia Version 1.4.0-DEV.591
Commit 8a47793b37 (2019-12-12 10:31 UTC)
Platform Info:
  OS: Linux (x86_64-pc-linux-gnu)
  CPU: Intel(R) Xeon(R) Silver 4114 CPU @ 2.20GHz
  WORD_SIZE: 64
  LIBM: libopenlibm
  LLVM: libLLVM-8.0.1 (ORCJIT, skylake)
Environment:
  JULIA_DEPOT_PATH = ::/usr/local/share/julia

 Resolving package versions...
 Installed VersionParsing ─── v1.1.3
 Installed URIParser ──────── v0.4.0
 Installed Compat ─────────── v2.2.0
 Installed Parsers ────────── v0.3.10
 Installed SpecialFunctions ─ v0.8.0
 Installed AbstractAlgebra ── v0.7.1
 Installed TwoFAST ────────── v0.1.0
 Installed Nemo ───────────── v0.15.1
 Installed BinaryProvider ─── v0.5.8
 Installed Conda ──────────── v1.3.0
 Installed JSON ───────────── v0.21.0
 Installed IncGammaBeta ───── v0.1.0
 Installed Reexport ───────── v0.2.0
 Installed BinDeps ────────── v1.0.0
 Installed AbstractFFTs ───── v0.5.0
 Installed FFTW ───────────── v1.1.0
  Updating `~/.julia/environments/v1.4/Project.toml`
  [0dd23c3e] + TwoFAST v0.1.0
  Updating `~/.julia/environments/v1.4/Manifest.toml`
  [c3fe647b] + AbstractAlgebra v0.7.1
  [621f4979] + AbstractFFTs v0.5.0
  [9e28174c] + BinDeps v1.0.0
  [b99e7846] + BinaryProvider v0.5.8
  [34da2185] + Compat v2.2.0
  [8f4d0f93] + Conda v1.3.0
  [7a1cc6ca] + FFTW v1.1.0
  [5087d2c0] + IncGammaBeta v0.1.0
  [682c06a0] + JSON v0.21.0
  [2edaba10] + Nemo v0.15.1
  [69de0a69] + Parsers v0.3.10
  [189a3867] + Reexport v0.2.0
  [276daf66] + SpecialFunctions v0.8.0
  [0dd23c3e] + TwoFAST v0.1.0
  [30578b45] + URIParser v0.4.0
  [81def892] + VersionParsing v1.1.3
  [2a0f44e3] + Base64 
  [ade2ca70] + Dates 
  [8bb1440f] + DelimitedFiles 
  [8ba89e20] + Distributed 
  [b77e0a4c] + InteractiveUtils 
  [76f85450] + LibGit2 
  [8f399da3] + Libdl 
  [37e2e46d] + LinearAlgebra 
  [56ddb016] + Logging 
  [d6f4376e] + Markdown 
  [a63ad114] + Mmap 
  [44cfe95a] + Pkg 
  [de0858da] + Printf 
  [3fa0cd96] + REPL 
  [9a3f8284] + Random 
  [ea8e919c] + SHA 
  [9e88b42a] + Serialization 
  [1a1011a3] + SharedArrays 
  [6462fe0b] + Sockets 
  [2f01184e] + SparseArrays 
  [10745b16] + Statistics 
  [8dfed614] + Test 
  [cf7118a7] + UUIDs 
  [4ec0a83e] + Unicode 
  Building Nemo ────────────→ `~/.julia/packages/Nemo/qzx0m/deps/build.log`
  Building SpecialFunctions → `~/.julia/packages/SpecialFunctions/ne2iw/deps/build.log`
  Building Conda ───────────→ `~/.julia/packages/Conda/kLXeC/deps/build.log`
  Building FFTW ────────────→ `~/.julia/packages/FFTW/loJ3F/deps/build.log`
   Testing TwoFAST
 Resolving package versions...

gzip: stdin: not in gzip format
tar: Child returned status 1
tar: Error is not recoverable: exiting now
┌ Warning: failed to extract archive downloaded from https://github.com/kbarbary/Dierckx.jl.git
└ @ Pkg.Operations /buildworker/worker/package_linux64/build/usr/share/julia/stdlib/v1.4/Pkg/src/Operations.jl:481
   Cloning [39dd38d3-220a-591b-8e3c-4c3a8c710a94] Dierckx from https://github.com/kbarbary/Dierckx.jl.git
[?25l    Fetching: [>                                        ]  0.0 %[2K[?25h Installed Dierckx ─ v0.4.1
  Building Dierckx → `~/.julia/packages/Dierckx/9SY4A/deps/build.log`
Status `/tmp/jl_6g5XZ2/Manifest.toml`
  [c3fe647b] AbstractAlgebra v0.7.1
  [621f4979] AbstractFFTs v0.5.0
  [9e28174c] BinDeps v1.0.0
  [b99e7846] BinaryProvider v0.5.8
  [34da2185] Compat v2.2.0
  [8f4d0f93] Conda v1.3.0
  [39dd38d3] Dierckx v0.4.1
  [7a1cc6ca] FFTW v1.1.0
  [5087d2c0] IncGammaBeta v0.1.0
  [682c06a0] JSON v0.21.0
  [2edaba10] Nemo v0.15.1
  [69de0a69] Parsers v0.3.10
  [189a3867] Reexport v0.2.0
  [276daf66] SpecialFunctions v0.8.0
  [0dd23c3e] TwoFAST v0.1.0
  [30578b45] URIParser v0.4.0
  [81def892] VersionParsing v1.1.3
  [2a0f44e3] Base64  [`@stdlib/Base64`]
  [ade2ca70] Dates  [`@stdlib/Dates`]
  [8bb1440f] DelimitedFiles  [`@stdlib/DelimitedFiles`]
  [8ba89e20] Distributed  [`@stdlib/Distributed`]
  [b77e0a4c] InteractiveUtils  [`@stdlib/InteractiveUtils`]
  [76f85450] LibGit2  [`@stdlib/LibGit2`]
  [8f399da3] Libdl  [`@stdlib/Libdl`]
  [37e2e46d] LinearAlgebra  [`@stdlib/LinearAlgebra`]
  [56ddb016] Logging  [`@stdlib/Logging`]
  [d6f4376e] Markdown  [`@stdlib/Markdown`]
  [a63ad114] Mmap  [`@stdlib/Mmap`]
  [44cfe95a] Pkg  [`@stdlib/Pkg`]
  [de0858da] Printf  [`@stdlib/Printf`]
  [3fa0cd96] REPL  [`@stdlib/REPL`]
  [9a3f8284] Random  [`@stdlib/Random`]
  [ea8e919c] SHA  [`@stdlib/SHA`]
  [9e88b42a] Serialization  [`@stdlib/Serialization`]
  [1a1011a3] SharedArrays  [`@stdlib/SharedArrays`]
  [6462fe0b] Sockets  [`@stdlib/Sockets`]
  [2f01184e] SparseArrays  [`@stdlib/SparseArrays`]
  [10745b16] Statistics  [`@stdlib/Statistics`]
  [8dfed614] Test  [`@stdlib/Test`]
  [cf7118a7] UUIDs  [`@stdlib/UUIDs`]
  [4ec0a83e] Unicode  [`@stdlib/Unicode`]

Welcome to Nemo version 0.15.1

Nemo comes with absolutely no warranty whatsoever


Welcome to Nemo version 0.15.1

Nemo comes with absolutely no warranty whatsoever

Testing ξ(r), ℓ=0, ν=-1 ... passed
Testing ξ(r), ℓ=0, ν=0 ... passed
Testing ξ(r), ℓ=0, ν=1 ... passed
Testing ξ(r), ℓ=0, ν=2 ... passed
Testing ξ(r), ℓ=0, ν=3 ... passed
Testing ξ(r), ℓ=1, ν=0 ... passed
Testing ξ(r), ℓ=1, ν=1 ... passed
Testing ξ(r), ℓ=1, ν=2 ... passed
Testing ξ(r), ℓ=1, ν=3 ... passed
Testing ξ(r), ℓ=2, ν=-1 ... passed
Testing ξ(r), ℓ=2, ν=0 ... passed
Testing ξ(r), ℓ=2, ν=1 ... passed
Testing ξ(r), ℓ=2, ν=2 ... passed
Testing ξ(r), ℓ=2, ν=3 ... passed
Testing ξ(r), ℓ=3, ν=-1 ... passed
Testing ξ(r), ℓ=3, ν=0 ... passed
Testing ξ(r), ℓ=3, ν=1 ... passed
Testing ξ(r), ℓ=3, ν=2 ... passed
Testing ξ(r), ℓ=3, ν=3 ... passed
Testing ξ(r), ℓ=4, ν=-1 ... passed
Testing ξ(r), ℓ=4, ν=0 ... passed
Testing ξ(r), ℓ=4, ν=1 ... passed
Testing ξ(r), ℓ=4, ν=2 ... passed
Testing ξ(r), ℓ=4, ν=3 ... passed
Testing ξ(r) ... passed
Testing ξ′(r) ... passed
Testing ξ″(r) ... passed
Calculating fmax: 
  dlrec    = 4
  dlrecRg1 = -4
  q=1.1, R=1.1:	  4.620442 seconds (1.20 M allocations: 67.957 MiB, 0.77% gc time)

  4.659916 seconds (1.22 M allocations: 69.068 MiB, 0.76% gc time)
ℓ = 1202
Δℓ = 4
ΔℓRg1 = -4
N = 1600
q = 1.1
kmin = 1.0e-5
kmax = 100000.00000000004
χ0 = 0.023029999999999995
RR = RR.tsv
ℓmax = ℓmax.bin
f21 = f21.bin
kmin = 1.0e-5
kmax = 100000.0
dlrec    = 4
dlrecRg1 = -4
Output size: 5741568 bytes = 0.005347251892089844 GiB
Output size: 51264 bytes = 4.774332046508789e-5 GiB
Reading 'out/F21EllCache'...   0.499417 seconds (314.30 k allocations: 16.229 MiB)
ellmax: 1202
lmaxcache: 1202
fell[:,1,1] = Complex{Float64}[3.9583795592771634e-52 - 9.695233714158177e-68im, 3.990121772925759e-52 - 9.772979714843386e-68im]
ell 1202, elapsed: 0.000247955322265625
ell 1201, elapsed: 2.075730085372925
ell 1200, elapsed: 0.0005400180816650391
ell 1199, elapsed: 0.00048804283142089844
ell 1198, elapsed: 0.00047898292541503906
ell 1002, elapsed: 0.009402990341186523
ell 1001, elapsed: 0.0004889965057373047
ell 1000, elapsed: 0.0004980564117431641
ell 999, elapsed: 0.00047087669372558594
ell 998, elapsed: 0.0004730224609375
ell 902, elapsed: 0.00483393669128418
ell 901, elapsed: 0.0004911422729492188
ell 900, elapsed: 0.0004711151123046875
ell 899, elapsed: 0.0004658699035644531
ell 898, elapsed: 0.0004811286926269531
ell 802, elapsed: 0.005422830581665039
ell 801, elapsed: 0.0006589889526367188
ell 800, elapsed: 0.00047016143798828125
ell 799, elapsed: 0.00046896934509277344
ell 798, elapsed: 0.0004680156707763672
ell 702, elapsed: 0.004800081253051758
ell 701, elapsed: 0.0004718303680419922
ell 700, elapsed: 0.0004639625549316406
ell 699, elapsed: 0.0004668235778808594
ell 698, elapsed: 0.00046706199645996094
ell 602, elapsed: 0.006701946258544922
ell 601, elapsed: 0.0004990100860595703
ell 600, elapsed: 0.0004801750183105469
ell 599, elapsed: 0.00047707557678222656
ell 598, elapsed: 0.0004930496215820312
ell 502, elapsed: 0.005040884017944336
ell 501, elapsed: 0.0004980564117431641
ell 500, elapsed: 0.0004780292510986328
ell 499, elapsed: 0.0004820823669433594
ell 498, elapsed: 0.00047397613525390625
ell 402, elapsed: 0.005026817321777344
ell 401, elapsed: 0.0005819797515869141
ell 400, elapsed: 0.0005741119384765625
ell 399, elapsed: 0.0005698204040527344
ell 398, elapsed: 0.0005688667297363281
ell 302, elapsed: 0.0050258636474609375
ell 301, elapsed: 0.0006079673767089844
ell 300, elapsed: 0.0007979869842529297
ell 299, elapsed: 0.000659942626953125
ell 298, elapsed: 0.0005290508270263672
ell 202, elapsed: 0.005365848541259766
ell 201, elapsed: 0.0005750656127929688
ell 200, elapsed: 0.000598907470703125
ell 199, elapsed: 0.0005300045013427734
ell 198, elapsed: 0.0005218982696533203
ell 152, elapsed: 0.002689838409423828
ell 151, elapsed: 0.0005860328674316406
ell 150, elapsed: 0.0005421638488769531
ell 149, elapsed: 0.0005629062652587891
ell 148, elapsed: 0.0005338191986083984
ell 127, elapsed: 0.001705169677734375
ell 126, elapsed: 0.0005359649658203125
ell 125, elapsed: 0.0005271434783935547
ell 124, elapsed: 0.0005960464477539062
ell 123, elapsed: 0.0005791187286376953
ell 114, elapsed: 0.0010139942169189453
ell 113, elapsed: 0.0005640983581542969
ell 112, elapsed: 0.0005648136138916016
ell 111, elapsed: 0.0005788803100585938
ell 110, elapsed: 0.0005619525909423828
ell 102, elapsed: 0.0010869503021240234
ell 101, elapsed: 0.0005609989166259766
ell 100, elapsed: 0.0005619525909423828
ell 99, elapsed: 0.0005757808685302734
ell 98, elapsed: 0.0005650520324707031
ell 97, elapsed: 0.0006041526794433594
ell 96, elapsed: 0.0006999969482421875
ell 95, elapsed: 0.0005970001220703125
ell 94, elapsed: 0.0006878376007080078
ell 93, elapsed: 0.0006000995635986328
ell 92, elapsed: 0.0006830692291259766
ell 91, elapsed: 0.0005960464477539062
ell 90, elapsed: 0.0007030963897705078
ell 89, elapsed: 0.0006289482116699219
ell 88, elapsed: 0.0007100105285644531
ell 87, elapsed: 0.0005991458892822266
ell 86, elapsed: 0.0006940364837646484
ell 85, elapsed: 0.0006000995635986328
ell 84, elapsed: 0.0007059574127197266
ell 83, elapsed: 0.00061798095703125
ell 82, elapsed: 0.0007488727569580078
ell 81, elapsed: 0.0005960464477539062
ell 80, elapsed: 0.0006849765777587891
ell 79, elapsed: 0.0006139278411865234
ell 78, elapsed: 0.0006940364837646484
ell 77, elapsed: 0.0006020069122314453
ell 76, elapsed: 0.0006830692291259766
ell 75, elapsed: 0.0005998611450195312
ell 74, elapsed: 0.0006868839263916016
ell 73, elapsed: 0.0005970001220703125
ell 72, elapsed: 0.0006909370422363281
ell 71, elapsed: 0.0006000995635986328
ell 70, elapsed: 0.0006871223449707031
ell 69, elapsed: 0.0006117820739746094
ell 68, elapsed: 0.0006968975067138672
ell 67, elapsed: 0.0006010532379150391
ell 66, elapsed: 0.0006899833679199219
ell 65, elapsed: 0.0006020069122314453
ell 64, elapsed: 0.0006990432739257812
ell 63, elapsed: 0.000598907470703125
ell 62, elapsed: 0.0006830692291259766
ell 61, elapsed: 0.0006010532379150391
ell 60, elapsed: 0.0006968975067138672
ell 59, elapsed: 0.0006098747253417969
ell 58, elapsed: 0.0006859302520751953
ell 57, elapsed: 0.0006000995635986328
ell 56, elapsed: 0.0006799697875976562
ell 55, elapsed: 0.0005960464477539062
ell 54, elapsed: 0.0006999969482421875
ell 53, elapsed: 0.0006010532379150391
ell 52, elapsed: 0.0006821155548095703
ell 51, elapsed: 0.0005979537963867188
ell 50, elapsed: 0.0006928443908691406
ell 49, elapsed: 0.0006220340728759766
ell 48, elapsed: 0.0006959438323974609
ell 47, elapsed: 0.0006489753723144531
ell 46, elapsed: 0.0006871223449707031
ell 45, elapsed: 0.0005960464477539062
ell 44, elapsed: 0.0007140636444091797
ell 43, elapsed: 0.0006020069122314453
ell 42, elapsed: 0.0006878376007080078
ell 41, elapsed: 0.0006008148193359375
ell 40, elapsed: 0.0006968975067138672
ell 39, elapsed: 0.0006010532379150391
ell 38, elapsed: 0.0007021427154541016
ell 37, elapsed: 0.0006029605865478516
ell 36, elapsed: 0.0006887912750244141
ell 35, elapsed: 0.0006020069122314453
ell 34, elapsed: 0.0007030963897705078
ell 33, elapsed: 0.0005970001220703125
ell 32, elapsed: 0.0006990432739257812
ell 31, elapsed: 0.000598907470703125
ell 30, elapsed: 0.0006840229034423828
ell 29, elapsed: 0.0006229877471923828
ell 28, elapsed: 0.0006968975067138672
ell 27, elapsed: 0.0006010532379150391
ell 26, elapsed: 0.0007719993591308594
ell 25, elapsed: 0.0005800724029541016
ell 24, elapsed: 0.0006568431854248047
ell 23, elapsed: 0.0005469322204589844
ell 22, elapsed: 0.000637054443359375
ell 21, elapsed: 0.0005550384521484375
ell 20, elapsed: 0.0006480216979980469
ell 19, elapsed: 0.0005750656127929688
ell 18, elapsed: 0.0006420612335205078
ell 17, elapsed: 0.0005559921264648438
ell 16, elapsed: 0.0006480216979980469
ell 15, elapsed: 0.0005409717559814453
ell 14, elapsed: 0.0006678104400634766
ell 13, elapsed: 0.0005669593811035156
ell 12, elapsed: 0.0006909370422363281
ell 11, elapsed: 0.0006070137023925781
ell 10, elapsed: 0.0006439685821533203
ell 9, elapsed: 0.0005769729614257812
ell 8, elapsed: 0.0006539821624755859
ell 7, elapsed: 0.000553131103515625
ell 6, elapsed: 0.0006208419799804688
ell 5, elapsed: 0.00055694580078125
ell 4, elapsed: 0.0006558895111083984
ell 3, elapsed: 0.0005540847778320312
ell 2, elapsed: 0.0006489753723144531
ell 1, elapsed: 0.0005578994750976562
ell 0, elapsed: 0.0006310939788818359
  2.872248 seconds (1.72 M allocations: 84.795 MiB, 0.82% gc time)
elapsed: 0.0013070106506347656
step:          0.70645 sec (402.65 k allocations: 20.278 MB, 0.0% gc time)
swapping:      0.000547 sec (0 allocations: 0 byte, 0.0% gc time)
calc_Mellell!: 0.498423 sec (296.475 k allocations: 14.961 MB, 0.0% gc time)
  t0 :  0.0 sec (0 allocations: 0 byte, 0.0% gc time)
  tm2 : 0.0 sec (0 allocations: 0 byte, 0.0% gc time)
  tm2s: 0.0 sec (0 allocations: 0 byte, 0.0% gc time)
  tm4 : 0.0 sec (0 allocations: 0 byte, 0.0% gc time)
  tp2 : 0.0 sec (0 allocations: 0 byte, 0.0% gc time)
  tp2s: 0.0 sec (0 allocations: 0 byte, 0.0% gc time)
  tp4 : 0.0 sec (0 allocations: 0 byte, 0.0% gc time)
calc_wtdll!:   0.999914 sec (525.966 k allocations: 26.38 MB, 2.36% gc time)
calc_wljj!:    0.003348 sec (6 allocations: 96 byte, 0.0% gc time)
mult_prefac!:  0.0 sec (0 allocations: 0 byte, 0.0% gc time)
convert:       0.0 sec (0 allocations: 0 byte, 0.0% gc time)
write:         0.005534 sec (0 allocations: 0 byte, 0.0% gc time)
test_rand_2f1: 0.0 sec (0 allocations: 0 byte, 0.0% gc time)
Closing outfile out/Ml21-cache.bin...   0.000122 seconds
  1.021756 seconds (8.65 k allocations: 420.781 KiB)
make_phi():   0.012995 seconds (8.20 k allocations: 238.016 KiB)
  0.207049 seconds (121.74 k allocations: 5.902 MiB)
tskip:       2.5e-5 sec (0 allocations: 0 byte, 0.0% gc time)
tread:       0.002775 sec (19 allocations: 2.172 KB, 0.0% gc time)
tmultphi:    0.040303 sec (26.042 k allocations: 1.339 MB, 0.0% gc time)
tbrfft:      0.004706 sec (896 allocations: 42.0 KB, 0.0% gc time)
tmultprefac: 0.002821 sec (0 allocations: 0 byte, 0.0% gc time)
toutfunc:    0.15636 sec (94.134 k allocations: 4.451 MB, 0.0% gc time)
Testing R=1.1 ... passed
Calculating fmax: 
  dlrec    = 4
  dlrecRg1 = -4
  q=1.1, R=1.0:	  0.001833 seconds (4.00 k allocations: 300.375 KiB)

  0.002012 seconds (4.04 k allocations: 334.734 KiB)
ℓ = 1202
Δℓ = 4
ΔℓRg1 = -4
N = 1600
q = 1.1
kmin = 1.0e-5
kmax = 100000.00000000004
χ0 = 0.023029999999999995
RR = RR.tsv
ℓmax = ℓmax.bin
f21 = f21.bin
kmin = 1.0e-5
kmax = 100000.0
dlrec    = 4
dlrecRg1 = -4
Output size: 61465536 bytes = 0.05724424123764038 GiB
Output size: 51264 bytes = 4.774332046508789e-5 GiB
Reading 'out/F21EllCache'...   0.000920 seconds (267 allocations: 84.656 KiB)
ellmax: 1202
lmaxcache: 1202
fell[:,1,1] = Complex{Float64}[809.6031528389767 - 1.9829558194077161e-13im, 0.0 + 0.0im]
ell 1202, elapsed: 0.00019598007202148438
ell 1201, elapsed: 0.014713048934936523
ell 1200, elapsed: 0.00074005126953125
ell 1199, elapsed: 0.0005810260772705078
ell 1198, elapsed: 0.0005540847778320312
ell 1197, elapsed: 0.0006239414215087891
ell 1196, elapsed: 0.0006158351898193359
ell 1195, elapsed: 0.000720977783203125
ell 1194, elapsed: 0.0008912086486816406
ell 1193, elapsed: 0.0010378360748291016
ell 1192, elapsed: 0.0009219646453857422
ell 1191, elapsed: 0.0010678768157958984
ell 1190, elapsed: 0.0009520053863525391
ell 1189, elapsed: 0.0010218620300292969
ell 1188, elapsed: 0.0008158683776855469
ell 1187, elapsed: 0.0005960464477539062
ell 1186, elapsed: 0.0008358955383300781
ell 1185, elapsed: 0.0008981227874755859
ell 1184, elapsed: 0.0009179115295410156
ell 1183, elapsed: 0.0005869865417480469
ell 1182, elapsed: 0.0008251667022705078
ell 1181, elapsed: 0.0005948543548583984
ell 1180, elapsed: 0.0007410049438476562
ell 1179, elapsed: 0.0005781650543212891
ell 1178, elapsed: 0.0004899501800537109
ell 1177, elapsed: 0.0010290145874023438
ell 1176, elapsed: 0.0009009838104248047
ell 1175, elapsed: 0.0005869865417480469
ell 1174, elapsed: 0.0007300376892089844
ell 1173, elapsed: 0.0008578300476074219
ell 1172, elapsed: 0.0007991790771484375
ell 1171, elapsed: 0.0008969306945800781
ell 1170, elapsed: 0.0007390975952148438
ell 1169, elapsed: 0.0008869171142578125
ell 1168, elapsed: 0.0004990100860595703
ell 1167, elapsed: 0.0005888938903808594
ell 1166, elapsed: 0.0007238388061523438
ell 1165, elapsed: 0.0008559226989746094
ell 1164, elapsed: 0.0007529258728027344
ell 1163, elapsed: 0.0006239414215087891
ell 1162, elapsed: 0.0007131099700927734
ell 1161, elapsed: 0.0008759498596191406
ell 1160, elapsed: 0.0008139610290527344
ell 1159, elapsed: 0.0006129741668701172
ell 1158, elapsed: 0.0005359649658203125
ell 1157, elapsed: 0.0005900859832763672
ell 1156, elapsed: 0.0004019737243652344
ell 1155, elapsed: 0.000537872314453125
ell 1154, elapsed: 0.0004420280456542969
ell 1153, elapsed: 0.0006639957427978516
ell 1152, elapsed: 0.00048804283142089844
ell 1151, elapsed: 0.0004801750183105469
ell 1150, elapsed: 0.0003819465637207031
ell 1149, elapsed: 0.0004649162292480469
ell 1148, elapsed: 0.0003879070281982422
ell 1147, elapsed: 0.0006270408630371094
ell 1146, elapsed: 0.0004589557647705078
ell 1145, elapsed: 0.0004680156707763672
ell 1144, elapsed: 0.0005528926849365234
ell 1143, elapsed: 0.0007259845733642578
ell 1142, elapsed: 0.0005998611450195312
ell 1141, elapsed: 0.0007150173187255859
ell 1140, elapsed: 0.0005879402160644531
ell 1139, elapsed: 0.0007388591766357422
ell 1138, elapsed: 0.0007569789886474609
ell 1137, elapsed: 0.0008540153503417969
ell 1136, elapsed: 0.00049591064453125
ell 1135, elapsed: 0.0008461475372314453
ell 1134, elapsed: 0.0006480216979980469
ell 1133, elapsed: 0.0005791187286376953
ell 1132, elapsed: 0.0007297992706298828
ell 1131, elapsed: 0.0009171962738037109
ell 1130, elapsed: 0.0007181167602539062
ell 1129, elapsed: 0.0008671283721923828
ell 1128, elapsed: 0.0007140636444091797
ell 1127, elapsed: 0.000827789306640625
ell 1126, elapsed: 0.0006461143493652344
ell 1125, elapsed: 0.0007648468017578125
ell 1124, elapsed: 0.0007259845733642578
ell 1123, elapsed: 0.0008099079132080078
ell 1122, elapsed: 0.0007181167602539062
ell 1121, elapsed: 0.0008180141448974609
ell 1120, elapsed: 0.0007309913635253906
ell 1119, elapsed: 0.0008199214935302734
ell 1118, elapsed: 0.0007109642028808594
ell 1117, elapsed: 0.0008578300476074219
ell 1116, elapsed: 0.0007600784301757812
ell 1115, elapsed: 0.0008749961853027344
ell 1114, elapsed: 0.0007009506225585938
ell 1113, elapsed: 0.0008161067962646484
ell 1112, elapsed: 0.0006990432739257812
ell 1111, elapsed: 0.0008199214935302734
ell 1110, elapsed: 0.0007359981536865234
ell 1109, elapsed: 0.0008101463317871094
ell 1108, elapsed: 0.0006890296936035156
ell 1107, elapsed: 0.0008399486541748047
ell 1106, elapsed: 0.0007219314575195312
ell 1105, elapsed: 0.0006039142608642578
ell 1104, elapsed: 0.0007109642028808594
ell 1103, elapsed: 0.0008637905120849609
ell 1102, elapsed: 0.0007250308990478516
ell 1101, elapsed: 0.0008788108825683594
ell 1100, elapsed: 0.0006840229034423828
ell 1099, elapsed: 0.0009000301361083984
ell 1098, elapsed: 0.0007498264312744141
ell 1097, elapsed: 0.0008709430694580078
ell 1096, elapsed: 0.0007348060607910156
ell 1095, elapsed: 0.000881195068359375
ell 1094, elapsed: 0.0007109642028808594
ell 1093, elapsed: 0.0007178783416748047
ell 1092, elapsed: 0.0007359981536865234
ell 1091, elapsed: 0.0008709430694580078
ell 1090, elapsed: 0.0006670951843261719
ell 1089, elapsed: 0.0008609294891357422
ell 1088, elapsed: 0.0007278919219970703
ell 1087, elapsed: 0.0008590221405029297
ell 1086, elapsed: 0.0006442070007324219
ell 1085, elapsed: 0.0007460117340087891
ell 1084, elapsed: 0.0006260871887207031
ell 1083, elapsed: 0.0007581710815429688
ell 1082, elapsed: 0.0006158351898193359
ell 1081, elapsed: 0.0007278919219970703
ell 1080, elapsed: 0.0006101131439208984
ell 1079, elapsed: 0.000720977783203125
ell 1078, elapsed: 0.00047516822814941406
ell 1077, elapsed: 0.0007309913635253906
ell 1076, elapsed: 0.0006079673767089844
ell 1075, elapsed: 0.000759124755859375
ell 1074, elapsed: 0.000621795654296875
ell 1073, elapsed: 0.0007359981536865234
ell 1072, elapsed: 0.0006320476531982422
ell 1071, elapsed: 0.0007538795471191406
ell 1070, elapsed: 0.0006079673767089844
ell 1069, elapsed: 0.0007288455963134766
ell 1068, elapsed: 0.0006129741668701172
ell 1067, elapsed: 0.0007119178771972656
ell 1066, elapsed: 0.0007181167602539062
ell 1065, elapsed: 0.0007319450378417969
ell 1064, elapsed: 0.0006089210510253906
ell 1063, elapsed: 0.0007460117340087891
ell 1062, elapsed: 0.00061798095703125
ell 1061, elapsed: 0.0008118152618408203
ell 1060, elapsed: 0.0006108283996582031
ell 1059, elapsed: 0.0007491111755371094
ell 1058, elapsed: 0.0005559921264648438
ell 1057, elapsed: 0.0006330013275146484
ell 1056, elapsed: 0.0005609989166259766
ell 1055, elapsed: 0.0007631778717041016
ell 1054, elapsed: 0.0006289482116699219
ell 1053, elapsed: 0.000762939453125
ell 1052, elapsed: 0.0005469322204589844
ell 1051, elapsed: 0.0007319450378417969
ell 1050, elapsed: 0.0006241798400878906
ell 1049, elapsed: 0.0007379055023193359
ell 1048, elapsed: 0.0005991458892822266
ell 1047, elapsed: 0.0007350444793701172
ell 1046, elapsed: 0.0006110668182373047
ell 1045, elapsed: 0.0006160736083984375
ell 1044, elapsed: 0.00057220458984375
ell 1043, elapsed: 0.0007569789886474609
ell 1042, elapsed: 0.0006048679351806641
ell 1041, elapsed: 0.00074005126953125
ell 1040, elapsed: 0.0006091594696044922
ell 1039, elapsed: 0.0007498264312744141
ell 1038, elapsed: 0.0006070137023925781
ell 1037, elapsed: 0.0007441043853759766
ell 1036, elapsed: 0.000492095947265625
ell 1035, elapsed: 0.0006539821624755859
ell 1034, elapsed: 0.0006051063537597656
ell 1033, elapsed: 0.0007328987121582031
ell 1032, elapsed: 0.0006120204925537109
ell 1031, elapsed: 0.0007069110870361328
ell 1030, elapsed: 0.0006070137023925781
ell 1029, elapsed: 0.0007169246673583984
ell 1028, elapsed: 0.0006229877471923828
ell 1027, elapsed: 0.0007259845733642578
ell 1026, elapsed: 0.0006020069122314453
ell 1025, elapsed: 0.0007159709930419922
ell 1024, elapsed: 0.0006961822509765625
ell 1023, elapsed: 0.0008409023284912109
ell 1022, elapsed: 0.0007059574127197266
ell 1021, elapsed: 0.0008900165557861328
ell 1020, elapsed: 0.0006971359252929688
ell 1019, elapsed: 0.0009419918060302734
ell 1018, elapsed: 0.0007078647613525391
ell 1017, elapsed: 0.0008521080017089844
ell 1016, elapsed: 0.0007600784301757812
ell 1015, elapsed: 0.0009000301361083984
ell 1014, elapsed: 0.0007600784301757812
ell 1013, elapsed: 0.000949859619140625
ell 1012, elapsed: 0.0007510185241699219
ell 1011, elapsed: 0.0009298324584960938
ell 1010, elapsed: 0.0007529258728027344
ell 1009, elapsed: 0.0009491443634033203
ell 1008, elapsed: 0.0007350444793701172
ell 1007, elapsed: 0.0009109973907470703
ell 1006, elapsed: 0.000759124755859375
ell 1005, elapsed: 0.0008609294891357422
ell 1004, elapsed: 0.0006139278411865234
ell 1003, elapsed: 0.0007448196411132812
ell 1002, elapsed: 0.0006158351898193359
ell 1001, elapsed: 0.0007419586181640625
ell 1000, elapsed: 0.0006730556488037109
ell 999, elapsed: 0.0007259845733642578
ell 998, elapsed: 0.0005249977111816406
ell 997, elapsed: 0.00047707557678222656
ell 996, elapsed: 0.0003859996795654297
ell 995, elapsed: 0.0004699230194091797
ell 994, elapsed: 0.0003848075866699219
ell 993, elapsed: 0.0006189346313476562
ell 992, elapsed: 0.0006129741668701172
ell 991, elapsed: 0.0007290840148925781
ell 990, elapsed: 0.0006070137023925781
ell 989, elapsed: 0.0007250308990478516
ell 988, elapsed: 0.0006000995635986328
ell 987, elapsed: 0.0007970333099365234
ell 986, elapsed: 0.0006132125854492188
ell 985, elapsed: 0.0007359981536865234
ell 984, elapsed: 0.0006091594696044922
ell 983, elapsed: 0.0008299350738525391
ell 982, elapsed: 0.000637054443359375
ell 981, elapsed: 0.0007290840148925781
ell 980, elapsed: 0.0006070137023925781
ell 979, elapsed: 0.0007200241088867188
ell 978, elapsed: 0.0006101131439208984
ell 977, elapsed: 0.0007398128509521484
ell 976, elapsed: 0.0006101131439208984
ell 975, elapsed: 0.0007240772247314453
ell 974, elapsed: 0.0006098747253417969
ell 973, elapsed: 0.0007331371307373047
ell 972, elapsed: 0.0006248950958251953
ell 971, elapsed: 0.0007460117340087891
ell 970, elapsed: 0.0006110668182373047
ell 969, elapsed: 0.0007147789001464844
ell 968, elapsed: 0.0006191730499267578
ell 967, elapsed: 0.0007309913635253906
ell 966, elapsed: 0.0006098747253417969
ell 965, elapsed: 0.0007750988006591797
ell 964, elapsed: 0.0006029605865478516
ell 963, elapsed: 0.0007090568542480469
ell 962, elapsed: 0.0006079673767089844
ell 961, elapsed: 0.0007138252258300781
ell 960, elapsed: 0.0006299018859863281
ell 959, elapsed: 0.000720977783203125
ell 958, elapsed: 0.0006110668182373047
ell 957, elapsed: 0.0007250308990478516
ell 956, elapsed: 0.0006070137023925781
ell 955, elapsed: 0.0007190704345703125
ell 954, elapsed: 0.000614166259765625
ell 953, elapsed: 0.0007288455963134766
ell 952, elapsed: 0.0006070137023925781
ell 951, elapsed: 0.0007200241088867188
ell 950, elapsed: 0.0005528926849365234
ell 949, elapsed: 0.0006949901580810547
ell 948, elapsed: 0.0006151199340820312
ell 947, elapsed: 0.0007259845733642578
ell 946, elapsed: 0.0006139278411865234
ell 945, elapsed: 0.0007350444793701172
ell 944, elapsed: 0.0006139278411865234
ell 943, elapsed: 0.0007498264312744141
ell 942, elapsed: 0.0006151199340820312
ell 941, elapsed: 0.0007350444793701172
ell 940, elapsed: 0.0006210803985595703
ell 939, elapsed: 0.000759124755859375
ell 938, elapsed: 0.0006079673767089844
ell 937, elapsed: 0.0007269382476806641
ell 936, elapsed: 0.0006139278411865234
ell 935, elapsed: 0.0007278919219970703
ell 934, elapsed: 0.00061798095703125
ell 933, elapsed: 0.0007250308990478516
ell 932, elapsed: 0.00061798095703125
ell 931, elapsed: 0.0007219314575195312
ell 930, elapsed: 0.0006151199340820312
ell 929, elapsed: 0.0007319450378417969
ell 928, elapsed: 0.0006160736083984375
ell 927, elapsed: 0.0007290840148925781
ell 926, elapsed: 0.0006299018859863281
ell 925, elapsed: 0.0007338523864746094
ell 924, elapsed: 0.0005240440368652344
ell 923, elapsed: 0.0006549358367919922
ell 922, elapsed: 0.0006129741668701172
ell 921, elapsed: 0.0007171630859375
ell 920, elapsed: 0.0006258487701416016
ell 919, elapsed: 0.0007328987121582031
ell 918, elapsed: 0.0006120204925537109
ell 917, elapsed: 0.0007200241088867188
ell 916, elapsed: 0.0007059574127197266
ell 915, elapsed: 0.0008609294891357422
ell 914, elapsed: 0.0006449222564697266
ell 913, elapsed: 0.0008258819580078125
ell 912, elapsed: 0.0006439685821533203
ell 911, elapsed: 0.0006201267242431641
ell 910, elapsed: 0.0006320476531982422
ell 909, elapsed: 0.0008268356323242188
ell 908, elapsed: 0.0006339550018310547
ell 907, elapsed: 0.0008380413055419922
ell 906, elapsed: 0.0006160736083984375
ell 905, elapsed: 0.0005481243133544922
ell 904, elapsed: 0.0004391670227050781
ell 903, elapsed: 0.0005300045013427734
ell 902, elapsed: 0.00044798851013183594
ell 901, elapsed: 0.0005271434783935547
ell 900, elapsed: 0.00043511390686035156
ell 899, elapsed: 0.0007140636444091797
ell 898, elapsed: 0.0004661083221435547
ell 897, elapsed: 0.0005249977111816406
ell 896, elapsed: 0.0004520416259765625
ell 895, elapsed: 0.0006780624389648438
ell 894, elapsed: 0.00047898292541503906
ell 893, elapsed: 0.0007269382476806641
ell 892, elapsed: 0.0004630088806152344
ell 891, elapsed: 0.0007510185241699219
ell 890, elapsed: 0.0006361007690429688
ell 889, elapsed: 0.0005960464477539062
ell 888, elapsed: 0.0006160736083984375
ell 887, elapsed: 0.0005421638488769531
ell 886, elapsed: 0.0004410743713378906
ell 885, elapsed: 0.0004889965057373047
ell 884, elapsed: 0.00038504600524902344
ell 883, elapsed: 0.0004680156707763672
ell 882, elapsed: 0.00038504600524902344
ell 881, elapsed: 0.00046896934509277344
ell 880, elapsed: 0.0003840923309326172
ell 879, elapsed: 0.0004699230194091797
ell 878, elapsed: 0.00038504600524902344
ell 877, elapsed: 0.0004799365997314453
ell 876, elapsed: 0.0003859996795654297
ell 875, elapsed: 0.0004649162292480469
ell 874, elapsed: 0.0003840923309326172
ell 873, elapsed: 0.00046706199645996094
ell 872, elapsed: 0.0003879070281982422
ell 871, elapsed: 0.0006260871887207031
ell 870, elapsed: 0.0004429817199707031
ell 869, elapsed: 0.0004870891571044922
ell 868, elapsed: 0.00038814544677734375
ell 867, elapsed: 0.0004749298095703125
ell 866, elapsed: 0.0003859996795654297
ell 865, elapsed: 0.0004680156707763672
ell 864, elapsed: 0.0003859996795654297
ell 863, elapsed: 0.00047397613525390625
ell 862, elapsed: 0.0003859996795654297
ell 861, elapsed: 0.00046896934509277344
ell 860, elapsed: 0.0004010200500488281
ell 859, elapsed: 0.0004730224609375
ell 858, elapsed: 0.0003859996795654297
ell 857, elapsed: 0.0004730224609375
ell 856, elapsed: 0.0003879070281982422
ell 855, elapsed: 0.00046896934509277344
ell 854, elapsed: 0.0003859996795654297
ell 853, elapsed: 0.00046896934509277344
ell 852, elapsed: 0.0003871917724609375
ell 851, elapsed: 0.00048613548278808594
ell 850, elapsed: 0.0003879070281982422
ell 849, elapsed: 0.0004799365997314453
ell 848, elapsed: 0.0003879070281982422
ell 847, elapsed: 0.0004761219024658203
ell 846, elapsed: 0.00038814544677734375
ell 845, elapsed: 0.00046706199645996094
ell 844, elapsed: 0.00038504600524902344
ell 843, elapsed: 0.0006830692291259766
ell 842, elapsed: 0.00041103363037109375
ell 841, elapsed: 0.00047087669372558594
ell 840, elapsed: 0.0003838539123535156
ell 839, elapsed: 0.0005860328674316406
ell 838, elapsed: 0.0004849433898925781
ell 837, elapsed: 0.00046896934509277344
ell 836, elapsed: 0.00038504600524902344
ell 835, elapsed: 0.0004849433898925781
ell 834, elapsed: 0.00038909912109375
ell 833, elapsed: 0.00046181678771972656
ell 832, elapsed: 0.00038909912109375
ell 831, elapsed: 0.00046706199645996094
ell 830, elapsed: 0.00047206878662109375
ell 829, elapsed: 0.0006380081176757812
ell 828, elapsed: 0.0003879070281982422
ell 827, elapsed: 0.0004930496215820312
ell 826, elapsed: 0.0005269050598144531
ell 825, elapsed: 0.0006909370422363281
ell 824, elapsed: 0.00042891502380371094
ell 823, elapsed: 0.0005810260772705078
ell 822, elapsed: 0.0005240440368652344
ell 821, elapsed: 0.0005800724029541016
ell 820, elapsed: 0.0006082057952880859
ell 819, elapsed: 0.0006310939788818359
ell 818, elapsed: 0.0005538463592529297
ell 817, elapsed: 0.0006120204925537109
ell 816, elapsed: 0.0003669261932373047
ell 815, elapsed: 0.00045490264892578125
ell 814, elapsed: 0.0005490779876708984
ell 813, elapsed: 0.0006089210510253906
ell 812, elapsed: 0.0003809928894042969
ell 811, elapsed: 0.0006728172302246094
ell 810, elapsed: 0.0005609989166259766
ell 809, elapsed: 0.0005869865417480469
ell 808, elapsed: 0.0004749298095703125
ell 807, elapsed: 0.0007169246673583984
ell 806, elapsed: 0.0004980564117431641
ell 805, elapsed: 0.0006780624389648438
ell 804, elapsed: 0.0004858970642089844
ell 803, elapsed: 0.0007300376892089844
ell 802, elapsed: 0.0006110668182373047
ell 801, elapsed: 0.0006780624389648438
ell 800, elapsed: 0.0005638599395751953
ell 799, elapsed: 0.0007290840148925781
ell 798, elapsed: 0.0005218982696533203
ell 797, elapsed: 0.00047707557678222656
ell 796, elapsed: 0.00038909912109375
ell 795, elapsed: 0.0004718303680419922
ell 794, elapsed: 0.0003859996795654297
ell 793, elapsed: 0.0004839897155761719
ell 792, elapsed: 0.0003879070281982422
ell 791, elapsed: 0.0004718303680419922
ell 790, elapsed: 0.0004918575286865234
ell 789, elapsed: 0.0006988048553466797
ell 788, elapsed: 0.0004611015319824219
ell 787, elapsed: 0.000576019287109375
ell 786, elapsed: 0.0005671977996826172
ell 785, elapsed: 0.0005948543548583984
ell 784, elapsed: 0.0005919933319091797
ell 783, elapsed: 0.0006289482116699219
ell 782, elapsed: 0.0005519390106201172
ell 781, elapsed: 0.0007300376892089844
ell 780, elapsed: 0.0004379749298095703
ell 779, elapsed: 0.0004680156707763672
ell 778, elapsed: 0.0005660057067871094
ell 777, elapsed: 0.0005338191986083984
ell 776, elapsed: 0.0003879070281982422
ell 775, elapsed: 0.0006160736083984375
ell 774, elapsed: 0.00047397613525390625
ell 773, elapsed: 0.00047707557678222656
ell 772, elapsed: 0.0005080699920654297
ell 771, elapsed: 0.000598907470703125
ell 770, elapsed: 0.00036716461181640625
ell 769, elapsed: 0.0006148815155029297
ell 768, elapsed: 0.0004749298095703125
ell 767, elapsed: 0.0006229877471923828
ell 766, elapsed: 0.0006110668182373047
ell 765, elapsed: 0.0005431175231933594
ell 764, elapsed: 0.0003819465637207031
ell 763, elapsed: 0.0005791187286376953
ell 762, elapsed: 0.0005300045013427734
ell 761, elapsed: 0.0004520416259765625
ell 760, elapsed: 0.0004878044128417969
ell 759, elapsed: 0.0006439685821533203
ell 758, elapsed: 0.0004069805145263672
ell 757, elapsed: 0.0005841255187988281
ell 756, elapsed: 0.0005121231079101562
ell 755, elapsed: 0.00046706199645996094
ell 754, elapsed: 0.0003838539123535156
ell 753, elapsed: 0.0004730224609375
ell 752, elapsed: 0.0005581378936767578
ell 751, elapsed: 0.0006589889526367188
ell 750, elapsed: 0.0005221366882324219
ell 749, elapsed: 0.0005428791046142578
ell 748, elapsed: 0.0005481243133544922
ell 747, elapsed: 0.0005431175231933594
ell 746, elapsed: 0.0003910064697265625
ell 745, elapsed: 0.0005750656127929688
ell 744, elapsed: 0.0005218982696533203
ell 743, elapsed: 0.00047087669372558594
ell 742, elapsed: 0.0003879070281982422
ell 741, elapsed: 0.0005919933319091797
ell 740, elapsed: 0.0005180835723876953
ell 739, elapsed: 0.0005779266357421875
ell 738, elapsed: 0.0004818439483642578
ell 737, elapsed: 0.0005810260772705078
ell 736, elapsed: 0.0005040168762207031
ell 735, elapsed: 0.00047588348388671875
ell 734, elapsed: 0.00038909912109375
ell 733, elapsed: 0.00046896934509277344
ell 732, elapsed: 0.0003871917724609375
ell 731, elapsed: 0.00047397613525390625
ell 730, elapsed: 0.0004711151123046875
ell 729, elapsed: 0.0007328987121582031
ell 728, elapsed: 0.0006110668182373047
ell 727, elapsed: 0.0006210803985595703
ell 726, elapsed: 0.0003859996795654297
ell 725, elapsed: 0.00047588348388671875
ell 724, elapsed: 0.0003871917724609375
ell 723, elapsed: 0.000476837158203125
ell 722, elapsed: 0.0004661083221435547
ell 721, elapsed: 0.0006930828094482422
ell 720, elapsed: 0.00038695335388183594
ell 719, elapsed: 0.0006649494171142578
ell 718, elapsed: 0.000614166259765625
ell 717, elapsed: 0.0007269382476806641
ell 716, elapsed: 0.0004830360412597656
ell 715, elapsed: 0.00047397613525390625
ell 714, elapsed: 0.00038909912109375
ell 713, elapsed: 0.0004761219024658203
ell 712, elapsed: 0.0003859996795654297
ell 711, elapsed: 0.0004730224609375
ell 710, elapsed: 0.00039005279541015625
ell 709, elapsed: 0.0004711151123046875
ell 708, elapsed: 0.0003859996795654297
ell 707, elapsed: 0.0005881786346435547
ell 706, elapsed: 0.0006248950958251953
ell 705, elapsed: 0.0007269382476806641
ell 704, elapsed: 0.0004169940948486328
ell 703, elapsed: 0.0004677772521972656
ell 702, elapsed: 0.00038886070251464844
ell 701, elapsed: 0.0004730224609375
ell 700, elapsed: 0.00046896934509277344
ell 699, elapsed: 0.0007359981536865234
ell 698, elapsed: 0.0004100799560546875
ell 697, elapsed: 0.0004749298095703125
ell 696, elapsed: 0.00039005279541015625
ell 695, elapsed: 0.0006749629974365234
ell 694, elapsed: 0.0004968643188476562
ell 693, elapsed: 0.0006079673767089844
ell 692, elapsed: 0.00047779083251953125
ell 691, elapsed: 0.0006771087646484375
ell 690, elapsed: 0.0004210472106933594
ell 689, elapsed: 0.0004761219024658203
ell 688, elapsed: 0.0004661083221435547
ell 687, elapsed: 0.0006320476531982422
ell 686, elapsed: 0.00038886070251464844
ell 685, elapsed: 0.0004858970642089844
ell 684, elapsed: 0.0005190372467041016
ell 683, elapsed: 0.0007238388061523438
ell 682, elapsed: 0.0004220008850097656
ell 681, elapsed: 0.0004990100860595703
ell 680, elapsed: 0.0004620552062988281
ell 679, elapsed: 0.000659942626953125
ell 678, elapsed: 0.0003840923309326172
ell 677, elapsed: 0.00047016143798828125
ell 676, elapsed: 0.0005009174346923828
ell 675, elapsed: 0.0005869865417480469
ell 674, elapsed: 0.0003859996795654297
ell 673, elapsed: 0.00047016143798828125
ell 672, elapsed: 0.0005269050598144531
ell 671, elapsed: 0.0006239414215087891
ell 670, elapsed: 0.0005288124084472656
ell 669, elapsed: 0.0005438327789306641
ell 668, elapsed: 0.00038814544677734375
ell 667, elapsed: 0.0004718303680419922
ell 666, elapsed: 0.00038695335388183594
ell 665, elapsed: 0.00047087669372558594
ell 664, elapsed: 0.0003859996795654297
ell 663, elapsed: 0.000492095947265625
ell 662, elapsed: 0.000392913818359375
ell 661, elapsed: 0.0006821155548095703
ell 660, elapsed: 0.000408172607421875
ell 659, elapsed: 0.0006818771362304688
ell 658, elapsed: 0.0004730224609375
ell 657, elapsed: 0.00047016143798828125
ell 656, elapsed: 0.0003898143768310547
ell 655, elapsed: 0.0004830360412597656
ell 654, elapsed: 0.0003898143768310547
ell 653, elapsed: 0.00046896934509277344
ell 652, elapsed: 0.0003871917724609375
ell 651, elapsed: 0.0005400180816650391
ell 650, elapsed: 0.0004169940948486328
ell 649, elapsed: 0.0005970001220703125
ell 648, elapsed: 0.0005068778991699219
ell 647, elapsed: 0.0006470680236816406
ell 646, elapsed: 0.00046896934509277344
ell 645, elapsed: 0.0004680156707763672
ell 644, elapsed: 0.0003840923309326172
ell 643, elapsed: 0.0004761219024658203
ell 642, elapsed: 0.0005519390106201172
ell 641, elapsed: 0.0005278587341308594
ell 640, elapsed: 0.00039696693420410156
ell 639, elapsed: 0.00047707557678222656
ell 638, elapsed: 0.0005002021789550781
ell 637, elapsed: 0.0007150173187255859
ell 636, elapsed: 0.00045299530029296875
ell 635, elapsed: 0.0004451274871826172
ell 634, elapsed: 0.0003769397735595703
ell 633, elapsed: 0.0004911422729492188
ell 632, elapsed: 0.0003879070281982422
ell 631, elapsed: 0.0005481243133544922
ell 630, elapsed: 0.0005438327789306641
ell 629, elapsed: 0.0004749298095703125
ell 628, elapsed: 0.0003871917724609375
ell 627, elapsed: 0.00047397613525390625
ell 626, elapsed: 0.0004830360412597656
ell 625, elapsed: 0.0007350444793701172
ell 624, elapsed: 0.0005888938903808594
ell 623, elapsed: 0.0005779266357421875
ell 622, elapsed: 0.0003838539123535156
ell 621, elapsed: 0.0004711151123046875
ell 620, elapsed: 0.00038886070251464844
ell 619, elapsed: 0.0004820823669433594
ell 618, elapsed: 0.0006051063537597656
ell 617, elapsed: 0.0006470680236816406
ell 616, elapsed: 0.0005218982696533203
ell 615, elapsed: 0.00046896934509277344
ell 614, elapsed: 0.0005450248718261719
ell 613, elapsed: 0.0006530284881591797
ell 612, elapsed: 0.0005469322204589844
ell 611, elapsed: 0.0006310939788818359
ell 610, elapsed: 0.00055694580078125
ell 609, elapsed: 0.0005538463592529297
ell 608, elapsed: 0.00038695335388183594
ell 607, elapsed: 0.0005609989166259766
ell 606, elapsed: 0.0005230903625488281
ell 605, elapsed: 0.0004699230194091797
ell 604, elapsed: 0.0004029273986816406
ell 603, elapsed: 0.0004839897155761719
ell 602, elapsed: 0.0003838539123535156
ell 601, elapsed: 0.0006580352783203125
ell 600, elapsed: 0.0004210472106933594
ell 599, elapsed: 0.00045800209045410156
ell 598, elapsed: 0.0003879070281982422
ell 597, elapsed: 0.00047087669372558594
ell 596, elapsed: 0.0004050731658935547
ell 595, elapsed: 0.00046706199645996094
ell 594, elapsed: 0.00039196014404296875
ell 593, elapsed: 0.0004889965057373047
ell 592, elapsed: 0.0004630088806152344
ell 591, elapsed: 0.0007231235504150391
ell 590, elapsed: 0.0004868507385253906
ell 589, elapsed: 0.0006470680236816406
ell 588, elapsed: 0.00041413307189941406
ell 587, elapsed: 0.0004680156707763672
ell 586, elapsed: 0.0003879070281982422
ell 585, elapsed: 0.00047516822814941406
ell 584, elapsed: 0.0005238056182861328
ell 583, elapsed: 0.0007691383361816406
ell 582, elapsed: 0.0005240440368652344
ell 581, elapsed: 0.0006859302520751953
ell 580, elapsed: 0.00044989585876464844
ell 579, elapsed: 0.0006561279296875
ell 578, elapsed: 0.0005810260772705078
ell 577, elapsed: 0.0005931854248046875
ell 576, elapsed: 0.00036406517028808594
ell 575, elapsed: 0.0006389617919921875
ell 574, elapsed: 0.0004858970642089844
ell 573, elapsed: 0.0004820823669433594
ell 572, elapsed: 0.0003638267517089844
ell 571, elapsed: 0.00046706199645996094
ell 570, elapsed: 0.0005559921264648438
ell 569, elapsed: 0.0006549358367919922
ell 568, elapsed: 0.0005331039428710938
ell 567, elapsed: 0.0005900859832763672
ell 566, elapsed: 0.0005331039428710938
ell 565, elapsed: 0.0006501674652099609
ell 564, elapsed: 0.0003859996795654297
ell 563, elapsed: 0.00047397613525390625
ell 562, elapsed: 0.0004899501800537109
ell 561, elapsed: 0.0006229877471923828
ell 560, elapsed: 0.0004410743713378906
ell 559, elapsed: 0.0006201267242431641
ell 558, elapsed: 0.0005500316619873047
ell 557, elapsed: 0.0005400180816650391
ell 556, elapsed: 0.0003650188446044922
ell 555, elapsed: 0.0005941390991210938
ell 554, elapsed: 0.000476837158203125
ell 553, elapsed: 0.0006020069122314453
ell 552, elapsed: 0.0004818439483642578
ell 551, elapsed: 0.00046896934509277344
ell 550, elapsed: 0.00038504600524902344
ell 549, elapsed: 0.00044417381286621094
ell 548, elapsed: 0.00038504600524902344
ell 547, elapsed: 0.00047397613525390625
ell 546, elapsed: 0.00037407875061035156
ell 545, elapsed: 0.0004749298095703125
ell 544, elapsed: 0.0003840923309326172
ell 543, elapsed: 0.0004661083221435547
ell 542, elapsed: 0.0005190372467041016
ell 541, elapsed: 0.0007069110870361328
ell 540, elapsed: 0.00048804283142089844
ell 539, elapsed: 0.0004801750183105469
ell 538, elapsed: 0.00055694580078125
ell 537, elapsed: 0.0005791187286376953
ell 536, elapsed: 0.0003910064697265625
ell 535, elapsed: 0.0004661083221435547
ell 534, elapsed: 0.0003829002380371094
ell 533, elapsed: 0.00046896934509277344
ell 532, elapsed: 0.0003819465637207031
ell 531, elapsed: 0.00047206878662109375
ell 530, elapsed: 0.0005440711975097656
ell 529, elapsed: 0.0005419254302978516
ell 528, elapsed: 0.0004630088806152344
ell 527, elapsed: 0.000637054443359375
ell 526, elapsed: 0.0003788471221923828
ell 525, elapsed: 0.000469207763671875
ell 524, elapsed: 0.00048613548278808594
ell 523, elapsed: 0.0006339550018310547
ell 522, elapsed: 0.00038313865661621094
ell 521, elapsed: 0.00047016143798828125
ell 520, elapsed: 0.0005018711090087891
ell 519, elapsed: 0.0005960464477539062
ell 518, elapsed: 0.0003871917724609375
ell 517, elapsed: 0.0004627704620361328
ell 516, elapsed: 0.00037097930908203125
ell 515, elapsed: 0.0006549358367919922
ell 514, elapsed: 0.000453948974609375
ell 513, elapsed: 0.00047016143798828125
ell 512, elapsed: 0.00039386749267578125
ell 511, elapsed: 0.0006430149078369141
ell 510, elapsed: 0.0005059242248535156
ell 509, elapsed: 0.00047206878662109375
ell 508, elapsed: 0.0004851818084716797
ell 507, elapsed: 0.0006251335144042969
ell 506, elapsed: 0.0005400180816650391
ell 505, elapsed: 0.0007309913635253906
ell 504, elapsed: 0.0004730224609375
ell 503, elapsed: 0.00047016143798828125
ell 502, elapsed: 0.0004940032958984375
ell 501, elapsed: 0.0006461143493652344
ell 500, elapsed: 0.000514984130859375
ell 499, elapsed: 0.0005979537963867188
ell 498, elapsed: 0.00044989585876464844
ell 497, elapsed: 0.0006389617919921875
ell 496, elapsed: 0.0005500316619873047
ell 495, elapsed: 0.0006499290466308594
ell 494, elapsed: 0.0005590915679931641
ell 493, elapsed: 0.0007359981536865234
ell 492, elapsed: 0.0004620552062988281
ell 491, elapsed: 0.0004718303680419922
ell 490, elapsed: 0.0003879070281982422
ell 489, elapsed: 0.0004780292510986328
ell 488, elapsed: 0.0004658699035644531
ell 487, elapsed: 0.0007169246673583984
ell 486, elapsed: 0.0004830360412597656
ell 485, elapsed: 0.0006618499755859375
ell 484, elapsed: 0.0004889965057373047
ell 483, elapsed: 0.0006339550018310547
ell 482, elapsed: 0.0004410743713378906
ell 481, elapsed: 0.0006868839263916016
ell 480, elapsed: 0.0005309581756591797
ell 479, elapsed: 0.0004699230194091797
ell 478, elapsed: 0.00038909912109375
ell 477, elapsed: 0.00047898292541503906
ell 476, elapsed: 0.0003941059112548828
ell 475, elapsed: 0.000453948974609375
ell 474, elapsed: 0.00036597251892089844
ell 473, elapsed: 0.0006330013275146484
ell 472, elapsed: 0.0004420280456542969
ell 471, elapsed: 0.0004429817199707031
ell 470, elapsed: 0.0004971027374267578
ell 469, elapsed: 0.0006079673767089844
ell 468, elapsed: 0.00039005279541015625
ell 467, elapsed: 0.00047588348388671875
ell 466, elapsed: 0.0005230903625488281
ell 465, elapsed: 0.0006430149078369141
ell 464, elapsed: 0.0004589557647705078
ell 463, elapsed: 0.0007009506225585938
ell 462, elapsed: 0.0006048679351806641
ell 461, elapsed: 0.0005640983581542969
ell 460, elapsed: 0.0003681182861328125
ell 459, elapsed: 0.0005769729614257812
ell 458, elapsed: 0.0005259513854980469
ell 457, elapsed: 0.0006060600280761719
ell 456, elapsed: 0.0004830360412597656
ell 455, elapsed: 0.00046706199645996094
ell 454, elapsed: 0.0003790855407714844
ell 453, elapsed: 0.0004799365997314453
ell 452, elapsed: 0.0005109310150146484
ell 451, elapsed: 0.0005950927734375
ell 450, elapsed: 0.0005550384521484375
ell 449, elapsed: 0.000576019287109375
ell 448, elapsed: 0.0004909038543701172
ell 447, elapsed: 0.0007760524749755859
ell 446, elapsed: 0.0006480216979980469
ell 445, elapsed: 0.0007710456848144531
ell 444, elapsed: 0.0004138946533203125
ell 443, elapsed: 0.0004699230194091797
ell 442, elapsed: 0.0004899501800537109
ell 441, elapsed: 0.0005979537963867188
ell 440, elapsed: 0.00037598609924316406
ell 439, elapsed: 0.00047206878662109375
ell 438, elapsed: 0.00038313865661621094
ell 437, elapsed: 0.00045680999755859375
ell 436, elapsed: 0.0005040168762207031
ell 435, elapsed: 0.0006000995635986328
ell 434, elapsed: 0.0003910064697265625
ell 433, elapsed: 0.0004661083221435547
ell 432, elapsed: 0.0003829002380371094
ell 431, elapsed: 0.0006349086761474609
ell 430, elapsed: 0.0004220008850097656
ell 429, elapsed: 0.0005981922149658203
ell 428, elapsed: 0.0004951953887939453
ell 427, elapsed: 0.0005450248718261719
ell 426, elapsed: 0.0005238056182861328
ell 425, elapsed: 0.0006580352783203125
ell 424, elapsed: 0.0004489421844482422
ell 423, elapsed: 0.0007040500640869141
ell 422, elapsed: 0.0006160736083984375
ell 421, elapsed: 0.0005829334259033203
ell 420, elapsed: 0.00051116943359375
ell 419, elapsed: 0.0005869865417480469
ell 418, elapsed: 0.0003910064697265625
ell 417, elapsed: 0.0006580352783203125
ell 416, elapsed: 0.0004379749298095703
ell 415, elapsed: 0.0004649162292480469
ell 414, elapsed: 0.00038504600524902344
ell 413, elapsed: 0.0004730224609375
ell 412, elapsed: 0.0005168914794921875
ell 411, elapsed: 0.0006031990051269531
ell 410, elapsed: 0.0005600452423095703
ell 409, elapsed: 0.0005629062652587891
ell 408, elapsed: 0.00040602684020996094
ell 407, elapsed: 0.00047206878662109375
ell 406, elapsed: 0.0005350112915039062
ell 405, elapsed: 0.0006229877471923828
ell 404, elapsed: 0.0005500316619873047
ell 403, elapsed: 0.0006270408630371094
ell 402, elapsed: 0.0005578994750976562
ell 401, elapsed: 0.0005609989166259766
ell 400, elapsed: 0.0003910064697265625
ell 399, elapsed: 0.0006399154663085938
ell 398, elapsed: 0.0006351470947265625
ell 397, elapsed: 0.0007259845733642578
ell 396, elapsed: 0.0005049705505371094
ell 395, elapsed: 0.0006630420684814453
ell 394, elapsed: 0.0004940032958984375
ell 393, elapsed: 0.0005991458892822266
ell 392, elapsed: 0.0005099773406982422
ell 391, elapsed: 0.0007159709930419922
ell 390, elapsed: 0.0004971027374267578
ell 389, elapsed: 0.0004589557647705078
ell 388, elapsed: 0.0003819465637207031
ell 387, elapsed: 0.0006101131439208984
ell 386, elapsed: 0.0005099773406982422
ell 385, elapsed: 0.00046515464782714844
ell 384, elapsed: 0.0003941059112548828
ell 383, elapsed: 0.0004639625549316406
ell 382, elapsed: 0.0004730224609375
ell 381, elapsed: 0.0007240772247314453
ell 380, elapsed: 0.0005080699920654297
ell 379, elapsed: 0.0007381439208984375
ell 378, elapsed: 0.0006000995635986328
ell 377, elapsed: 0.0007150173187255859
ell 376, elapsed: 0.0004718303680419922
ell 375, elapsed: 0.00045990943908691406
ell 374, elapsed: 0.00040078163146972656
ell 373, elapsed: 0.0004680156707763672
ell 372, elapsed: 0.00038504600524902344
ell 371, elapsed: 0.0004699230194091797
ell 370, elapsed: 0.00038504600524902344
ell 369, elapsed: 0.0004608631134033203
ell 368, elapsed: 0.0003669261932373047
ell 367, elapsed: 0.0004711151123046875
ell 366, elapsed: 0.0004038810729980469
ell 365, elapsed: 0.0006239414215087891
ell 364, elapsed: 0.0004317760467529297
ell 363, elapsed: 0.0004661083221435547
ell 362, elapsed: 0.0005409717559814453
ell 361, elapsed: 0.0005669593811035156
ell 360, elapsed: 0.0003790855407714844
ell 359, elapsed: 0.0005209445953369141
ell 358, elapsed: 0.0004849433898925781
ell 357, elapsed: 0.000762939453125
ell 356, elapsed: 0.0007688999176025391
ell 355, elapsed: 0.0005781650543212891
ell 354, elapsed: 0.0005059242248535156
ell 353, elapsed: 0.0005869865417480469
ell 352, elapsed: 0.00046896934509277344
ell 351, elapsed: 0.0005619525909423828
ell 350, elapsed: 0.00048613548278808594
ell 349, elapsed: 0.0005691051483154297
ell 348, elapsed: 0.000492095947265625
ell 347, elapsed: 0.0005810260772705078
ell 346, elapsed: 0.00043201446533203125
ell 345, elapsed: 0.0005211830139160156
ell 344, elapsed: 0.00041103363037109375
ell 343, elapsed: 0.0007081031799316406
ell 342, elapsed: 0.0005450248718261719
ell 341, elapsed: 0.0006959438323974609
ell 340, elapsed: 0.0005631446838378906
ell 339, elapsed: 0.0006759166717529297
ell 338, elapsed: 0.0006959438323974609
ell 337, elapsed: 0.0008950233459472656
ell 336, elapsed: 0.0004820823669433594
ell 335, elapsed: 0.0008440017700195312
ell 334, elapsed: 0.0004620552062988281
ell 333, elapsed: 0.0009121894836425781
ell 332, elapsed: 0.0006461143493652344
ell 331, elapsed: 0.0005850791931152344
ell 330, elapsed: 0.0004951953887939453
ell 329, elapsed: 0.0005910396575927734
ell 328, elapsed: 0.0004940032958984375
ell 327, elapsed: 0.0007481575012207031
ell 326, elapsed: 0.0007009506225585938
ell 325, elapsed: 0.0005881786346435547
ell 324, elapsed: 0.0006918907165527344
ell 323, elapsed: 0.0006151199340820312
ell 322, elapsed: 0.0007121562957763672
ell 321, elapsed: 0.0008270740509033203
ell 320, elapsed: 0.0007419586181640625
ell 319, elapsed: 0.0005800724029541016
ell 318, elapsed: 0.0006780624389648438
ell 317, elapsed: 0.000823974609375
ell 316, elapsed: 0.0004649162292480469
ell 315, elapsed: 0.0008389949798583984
ell 314, elapsed: 0.000492095947265625
ell 313, elapsed: 0.0005609989166259766
ell 312, elapsed: 0.00047588348388671875
ell 311, elapsed: 0.0007770061492919922
ell 310, elapsed: 0.0004849433898925781
ell 309, elapsed: 0.0005819797515869141
ell 308, elapsed: 0.0004210472106933594
ell 307, elapsed: 0.0005099773406982422
ell 306, elapsed: 0.0004169940948486328
ell 305, elapsed: 0.0005021095275878906
ell 304, elapsed: 0.0004260540008544922
ell 303, elapsed: 0.0005040168762207031
ell 302, elapsed: 0.0004849433898925781
ell 301, elapsed: 0.0006420612335205078
ell 300, elapsed: 0.00048089027404785156
ell 299, elapsed: 0.0005769729614257812
ell 298, elapsed: 0.0005559921264648438
ell 297, elapsed: 0.000579833984375
ell 296, elapsed: 0.0006990432739257812
ell 295, elapsed: 0.0005419254302978516
ell 294, elapsed: 0.0006589889526367188
ell 293, elapsed: 0.000823974609375
ell 292, elapsed: 0.00049591064453125
ell 291, elapsed: 0.0005910396575927734
ell 290, elapsed: 0.0004799365997314453
ell 289, elapsed: 0.0005970001220703125
ell 288, elapsed: 0.0006458759307861328
ell 287, elapsed: 0.0005650520324707031
ell 286, elapsed: 0.0004930496215820312
ell 285, elapsed: 0.0005540847778320312
ell 284, elapsed: 0.0006899833679199219
ell 283, elapsed: 0.0005838871002197266
ell 282, elapsed: 0.0004971027374267578
ell 281, elapsed: 0.000576019287109375
ell 280, elapsed: 0.00045609474182128906
ell 279, elapsed: 0.000843048095703125
ell 278, elapsed: 0.0004990100860595703
ell 277, elapsed: 0.000576019287109375
ell 276, elapsed: 0.0005099773406982422
ell 275, elapsed: 0.0005881786346435547
ell 274, elapsed: 0.0007231235504150391
ell 273, elapsed: 0.0006549358367919922
ell 272, elapsed: 0.00048804283142089844
ell 271, elapsed: 0.0008029937744140625
ell 270, elapsed: 0.0005888938903808594
ell 269, elapsed: 0.0006740093231201172
ell 268, elapsed: 0.0006618499755859375
ell 267, elapsed: 0.0005550384521484375
ell 266, elapsed: 0.0004220008850097656
ell 265, elapsed: 0.0005109310150146484
ell 264, elapsed: 0.0005300045013427734
ell 263, elapsed: 0.0006718635559082031
ell 262, elapsed: 0.00055694580078125
ell 261, elapsed: 0.0005791187286376953
ell 260, elapsed: 0.0006191730499267578
ell 259, elapsed: 0.0006501674652099609
ell 258, elapsed: 0.0005919933319091797
ell 257, elapsed: 0.0006289482116699219
ell 256, elapsed: 0.0006380081176757812
ell 255, elapsed: 0.0008060932159423828
ell 254, elapsed: 0.0007059574127197266
ell 253, elapsed: 0.0005819797515869141
ell 252, elapsed: 0.0007450580596923828
ell 251, elapsed: 0.0006151199340820312
ell 250, elapsed: 0.0004627704620361328
ell 249, elapsed: 0.0005781650543212891
ell 248, elapsed: 0.00048804283142089844
ell 247, elapsed: 0.0005819797515869141
ell 246, elapsed: 0.0006761550903320312
ell 245, elapsed: 0.0006029605865478516
ell 244, elapsed: 0.00045990943908691406
ell 243, elapsed: 0.0005948543548583984
ell 242, elapsed: 0.0004961490631103516
ell 241, elapsed: 0.0005848407745361328
ell 240, elapsed: 0.00047779083251953125
ell 239, elapsed: 0.0008549690246582031
ell 238, elapsed: 0.0005099773406982422
ell 237, elapsed: 0.0005881786346435547
ell 236, elapsed: 0.00044989585876464844
ell 235, elapsed: 0.0007979869842529297
ell 234, elapsed: 0.0004210472106933594
ell 233, elapsed: 0.0004630088806152344
ell 232, elapsed: 0.00038504600524902344
ell 231, elapsed: 0.00047898292541503906
ell 230, elapsed: 0.0005109310150146484
ell 229, elapsed: 0.0006041526794433594
ell 228, elapsed: 0.0004570484161376953
ell 227, elapsed: 0.0006380081176757812
ell 226, elapsed: 0.0005249977111816406
ell 225, elapsed: 0.0007331371307373047
ell 224, elapsed: 0.0005249977111816406
ell 223, elapsed: 0.0004630088806152344
ell 222, elapsed: 0.0005588531494140625
ell 221, elapsed: 0.0005588531494140625
ell 220, elapsed: 0.0004029273986816406
ell 219, elapsed: 0.0006780624389648438
ell 218, elapsed: 0.0004239082336425781
ell 217, elapsed: 0.0006449222564697266
ell 216, elapsed: 0.0004379749298095703
ell 215, elapsed: 0.00047206878662109375
ell 214, elapsed: 0.0004429817199707031
ell 213, elapsed: 0.0006878376007080078
ell 212, elapsed: 0.0004429817199707031
ell 211, elapsed: 0.0006170272827148438
ell 210, elapsed: 0.0004420280456542969
ell 209, elapsed: 0.0005769729614257812
ell 208, elapsed: 0.0004570484161376953
ell 207, elapsed: 0.0005359649658203125
ell 206, elapsed: 0.00044083595275878906
ell 205, elapsed: 0.0007109642028808594
ell 204, elapsed: 0.0005011558532714844
ell 203, elapsed: 0.0006630420684814453
ell 202, elapsed: 0.000453948974609375
ell 201, elapsed: 0.00047206878662109375
ell 200, elapsed: 0.0003898143768310547
ell 199, elapsed: 0.0006649494171142578
ell 198, elapsed: 0.00045490264892578125
ell 197, elapsed: 0.0004520416259765625
ell 196, elapsed: 0.0003769397735595703
ell 195, elapsed: 0.0006840229034423828
ell 194, elapsed: 0.0004260540008544922
ell 193, elapsed: 0.0004589557647705078
ell 192, elapsed: 0.0004100799560546875
ell 191, elapsed: 0.0006699562072753906
ell 190, elapsed: 0.0005059242248535156
ell 189, elapsed: 0.0007419586181640625
ell 188, elapsed: 0.0005190372467041016
ell 187, elapsed: 0.0004839897155761719
ell 186, elapsed: 0.0005598068237304688
ell 185, elapsed: 0.0005619525909423828
ell 184, elapsed: 0.0005660057067871094
ell 183, elapsed: 0.0005500316619873047
ell 182, elapsed: 0.00037097930908203125
ell 181, elapsed: 0.00044989585876464844
ell 180, elapsed: 0.0004999637603759766
ell 179, elapsed: 0.0006480216979980469
ell 178, elapsed: 0.00040602684020996094
ell 177, elapsed: 0.0006690025329589844
ell 176, elapsed: 0.0005240440368652344
ell 175, elapsed: 0.0006029605865478516
ell 174, elapsed: 0.00048279762268066406
ell 173, elapsed: 0.0004868507385253906
ell 172, elapsed: 0.0003871917724609375
ell 171, elapsed: 0.0006890296936035156
ell 170, elapsed: 0.00039005279541015625
ell 169, elapsed: 0.0004649162292480469
ell 168, elapsed: 0.0005269050598144531
ell 167, elapsed: 0.0006489753723144531
ell 166, elapsed: 0.0005321502685546875
ell 165, elapsed: 0.0006098747253417969
ell 164, elapsed: 0.0005669593811035156
ell 163, elapsed: 0.0005688667297363281
ell 162, elapsed: 0.000537872314453125
ell 161, elapsed: 0.0005819797515869141
ell 160, elapsed: 0.0003910064697265625
ell 159, elapsed: 0.0004680156707763672
ell 158, elapsed: 0.0003910064697265625
ell 157, elapsed: 0.0004448890686035156
ell 156, elapsed: 0.000392913818359375
ell 155, elapsed: 0.00047397613525390625
ell 154, elapsed: 0.0003800392150878906
ell 153, elapsed: 0.0004470348358154297
ell 152, elapsed: 0.0004799365997314453
ell 151, elapsed: 0.0006198883056640625
ell 150, elapsed: 0.000514984130859375
ell 149, elapsed: 0.0006461143493652344
ell 148, elapsed: 0.0003879070281982422
ell 147, elapsed: 0.00047779083251953125
ell 146, elapsed: 0.00037407875061035156
ell 145, elapsed: 0.00045180320739746094
ell 144, elapsed: 0.00047707557678222656
ell 143, elapsed: 0.0006389617919921875
ell 142, elapsed: 0.0003650188446044922
ell 141, elapsed: 0.0004730224609375
ell 140, elapsed: 0.0003859996795654297
ell 139, elapsed: 0.0005609989166259766
ell 138, elapsed: 0.0005300045013427734
ell 137, elapsed: 0.00067901611328125
ell 136, elapsed: 0.0005011558532714844
ell 135, elapsed: 0.00047016143798828125
ell 134, elapsed: 0.0003898143768310547
ell 133, elapsed: 0.0006210803985595703
ell 132, elapsed: 0.00047206878662109375
ell 131, elapsed: 0.0005950927734375
ell 130, elapsed: 0.0006070137023925781
ell 129, elapsed: 0.0006330013275146484
ell 128, elapsed: 0.0003910064697265625
ell 127, elapsed: 0.000469207763671875
ell 126, elapsed: 0.0004658699035644531
ell 125, elapsed: 0.0006580352783203125
ell 124, elapsed: 0.0003769397735595703
ell 123, elapsed: 0.0005998611450195312
ell 122, elapsed: 0.0006010532379150391
ell 121, elapsed: 0.0005478858947753906
ell 120, elapsed: 0.0003800392150878906
ell 119, elapsed: 0.0004918575286865234
ell 118, elapsed: 0.00038695335388183594
ell 117, elapsed: 0.0004718303680419922
ell 116, elapsed: 0.0003871917724609375
ell 115, elapsed: 0.00046706199645996094
ell 114, elapsed: 0.00038695335388183594
ell 113, elapsed: 0.000453948974609375
ell 112, elapsed: 0.00037598609924316406
ell 111, elapsed: 0.000640869140625
ell 110, elapsed: 0.0004680156707763672
ell 109, elapsed: 0.00044798851013183594
ell 108, elapsed: 0.0003809928894042969
ell 107, elapsed: 0.0004680156707763672
ell 106, elapsed: 0.00038814544677734375
ell 105, elapsed: 0.0004749298095703125
ell 104, elapsed: 0.00047588348388671875
ell 103, elapsed: 0.0006380081176757812
ell 102, elapsed: 0.00038504600524902344
ell 101, elapsed: 0.0004799365997314453
ell 100, elapsed: 0.00038814544677734375
ell 99, elapsed: 0.0004482269287109375
ell 98, elapsed: 0.0003879070281982422
ell 97, elapsed: 0.00047707557678222656
ell 96, elapsed: 0.0003910064697265625
ell 95, elapsed: 0.0005679130554199219
ell 94, elapsed: 0.0005390644073486328
ell 93, elapsed: 0.0005991458892822266
ell 92, elapsed: 0.0005049705505371094
ell 91, elapsed: 0.0005681514739990234
ell 90, elapsed: 0.0005369186401367188
ell 89, elapsed: 0.0006818771362304688
ell 88, elapsed: 0.0005011558532714844
ell 87, elapsed: 0.00047397613525390625
ell 86, elapsed: 0.0005450248718261719
ell 85, elapsed: 0.0006151199340820312
ell 84, elapsed: 0.0005400180816650391
ell 83, elapsed: 0.0005769729614257812
ell 82, elapsed: 0.00039505958557128906
ell 81, elapsed: 0.0006349086761474609
ell 80, elapsed: 0.0004718303680419922
ell 79, elapsed: 0.00048804283142089844
ell 78, elapsed: 0.00038886070251464844
ell 77, elapsed: 0.0006701946258544922
ell 76, elapsed: 0.00045108795166015625
ell 75, elapsed: 0.0004611015319824219
ell 74, elapsed: 0.0005619525909423828
ell 73, elapsed: 0.0006299018859863281
ell 72, elapsed: 0.0005049705505371094
ell 71, elapsed: 0.0006000995635986328
ell 70, elapsed: 0.0004801750183105469
ell 69, elapsed: 0.0007188320159912109
ell 68, elapsed: 0.0006108283996582031
ell 67, elapsed: 0.0006270408630371094
ell 66, elapsed: 0.00039505958557128906
ell 65, elapsed: 0.0004749298095703125
ell 64, elapsed: 0.0004639625549316406
ell 63, elapsed: 0.0006449222564697266
ell 62, elapsed: 0.00037097930908203125
ell 61, elapsed: 0.0006170272827148438
ell 60, elapsed: 0.0005259513854980469
ell 59, elapsed: 0.00045490264892578125
ell 58, elapsed: 0.0003809928894042969
ell 57, elapsed: 0.0004699230194091797
ell 56, elapsed: 0.00039005279541015625
ell 55, elapsed: 0.00047397613525390625
ell 54, elapsed: 0.0003898143768310547
ell 53, elapsed: 0.0004639625549316406
ell 52, elapsed: 0.0003898143768310547
ell 51, elapsed: 0.0006580352783203125
ell 50, elapsed: 0.0005280971527099609
ell 49, elapsed: 0.0007181167602539062
ell 48, elapsed: 0.0004379749298095703
ell 47, elapsed: 0.00045180320739746094
ell 46, elapsed: 0.0003859996795654297
ell 45, elapsed: 0.00048089027404785156
ell 44, elapsed: 0.0005190372467041016
ell 43, elapsed: 0.0006120204925537109
ell 42, elapsed: 0.0005040168762207031
ell 41, elapsed: 0.0005979537963867188
ell 40, elapsed: 0.00039076805114746094
ell 39, elapsed: 0.0004818439483642578
ell 38, elapsed: 0.00046896934509277344
ell 37, elapsed: 0.0006520748138427734
ell 36, elapsed: 0.0003819465637207031
ell 35, elapsed: 0.0006749629974365234
ell 34, elapsed: 0.00043392181396484375
ell 33, elapsed: 0.00047516822814941406
ell 32, elapsed: 0.00039196014404296875
ell 31, elapsed: 0.0004839897155761719
ell 30, elapsed: 0.0004639625549316406
ell 29, elapsed: 0.0007278919219970703
ell 28, elapsed: 0.0004849433898925781
ell 27, elapsed: 0.0006628036499023438
ell 26, elapsed: 0.0004429817199707031
ell 25, elapsed: 0.0004589557647705078
ell 24, elapsed: 0.0003819465637207031
ell 23, elapsed: 0.0004749298095703125
ell 22, elapsed: 0.00042700767517089844
ell 21, elapsed: 0.0006649494171142578
ell 20, elapsed: 0.0004398822784423828
ell 19, elapsed: 0.0004749298095703125
ell 18, elapsed: 0.0003921985626220703
ell 17, elapsed: 0.0006530284881591797
ell 16, elapsed: 0.0005459785461425781
ell 15, elapsed: 0.0007460117340087891
ell 14, elapsed: 0.00045680999755859375
ell 13, elapsed: 0.0006530284881591797
ell 12, elapsed: 0.00039505958557128906
ell 11, elapsed: 0.00047397613525390625
ell 10, elapsed: 0.0004391670227050781
ell 9, elapsed: 0.0007479190826416016
ell 8, elapsed: 0.0005750656127929688
ell 7, elapsed: 0.0005819797515869141
ell 6, elapsed: 0.0005590915679931641
ell 5, elapsed: 0.0005929470062255859
ell 4, elapsed: 0.0003750324249267578
ell 3, elapsed: 0.00046515464782714844
ell 2, elapsed: 0.0005638599395751953
ell 1, elapsed: 0.0005950927734375
ell 0, elapsed: 0.000553131103515625
  0.808929 seconds (41.19 k allocations: 2.939 MiB)
elapsed: 0.0007090568542480469
step:          0.073906 sec (0 allocations: 0 byte, 0.0% gc time)
swapping:      0.001012 sec (0 allocations: 0 byte, 0.0% gc time)
calc_Mellell!: 0.011017 sec (0 allocations: 0 byte, 0.0% gc time)
  t0 :  0.002687 sec (0 allocations: 0 byte, 0.0% gc time)
  tm2 : 0.110503 sec (0 allocations: 0 byte, 0.0% gc time)
  tm2s: 0.002009 sec (0 allocations: 0 byte, 0.0% gc time)
  tm4 : 0.292106 sec (0 allocations: 0 byte, 0.0% gc time)
  tp2 : 0.0 sec (0 allocations: 0 byte, 0.0% gc time)
  tp2s: 0.0 sec (0 allocations: 0 byte, 0.0% gc time)
  tp4 : 0.0 sec (0 allocations: 0 byte, 0.0% gc time)
calc_wtdll!:   0.425949 sec (9.87 k allocations: 1.043 MB, 0.0% gc time)
calc_wljj!:    0.046782 sec (689 allocations: 10.766 KB, 0.0% gc time)
mult_prefac!:  0.0 sec (0 allocations: 0 byte, 0.0% gc time)
convert:       0.0 sec (0 allocations: 0 byte, 0.0% gc time)
write:         0.067697 sec (0 allocations: 0 byte, 0.0% gc time)
test_rand_2f1: 0.0 sec (0 allocations: 0 byte, 0.0% gc time)
Closing outfile out/Ml21-cache.bin...   0.020434 seconds
  0.000519 seconds (52 allocations: 28.297 KiB)
make_phi():   0.002253 seconds (8.20 k allocations: 238.016 KiB)
  0.157445 seconds (146.69 k allocations: 3.629 MiB)
tskip:       0.001221 sec (0 allocations: 0 byte, 0.0% gc time)
tread:       0.026424 sec (19 allocations: 10.688 KB, 0.0% gc time)
tmultphi:    0.011643 sec (0 allocations: 0 byte, 0.0% gc time)
tbrfft:      0.042145 sec (9.592 k allocations: 449.625 KB, 0.0% gc time)
tmultprefac: 0.024455 sec (0 allocations: 0 byte, 0.0% gc time)
toutfunc:    0.04974 sec (129.905 k allocations: 2.421 MB, 0.0% gc time)
Testing R=1.0 ... passed
Calculating fmax: 
  dlrec    = 4
  dlrecRg1 = -4
  q=1.1, R=0.9:	  0.432052 seconds (116.47 k allocations: 15.614 MiB)

  0.432532 seconds (116.50 k allocations: 15.647 MiB)
ℓ = 1202
Δℓ = 4
ΔℓRg1 = -4
N = 1600
q = 1.1
kmin = 1.0e-5
kmax = 100000.00000000004
χ0 = 0.023029999999999995
RR = RR.tsv
ℓmax = ℓmax.bin
f21 = f21.bin
kmin = 1.0e-5
kmax = 100000.0
dlrec    = 4
dlrecRg1 = -4
Output size: 5741568 bytes = 0.005347251892089844 GiB
Output size: 51264 bytes = 4.774332046508789e-5 GiB
Reading 'out/F21EllCache'...   0.001099 seconds (267 allocations: 84.656 KiB)
ellmax: 1202
lmaxcache: 1202
fell[:,1,1] = Complex{Float64}[1.3482014726274674e-57 - 3.302141236118086e-73im, 1.357860004724329e-57 - 3.3257978169518355e-73im]
ell 1202, elapsed: 2.002716064453125e-5
ell 1201, elapsed: 0.0005490779876708984
ell 1200, elapsed: 0.0006248950958251953
ell 1199, elapsed: 0.000659942626953125
ell 1198, elapsed: 0.0005140304565429688
ell 1002, elapsed: 0.00943899154663086
ell 1001, elapsed: 0.0005359649658203125
ell 1000, elapsed: 0.0005559921264648438
ell 999, elapsed: 0.0005621910095214844
ell 998, elapsed: 0.0005090236663818359
ell 902, elapsed: 0.005592823028564453
ell 901, elapsed: 0.00038504600524902344
ell 900, elapsed: 0.0004210472106933594
ell 899, elapsed: 0.0005669593811035156
ell 898, elapsed: 0.0007128715515136719
ell 802, elapsed: 0.00545191764831543
ell 801, elapsed: 0.0005271434783935547
ell 800, elapsed: 0.0005488395690917969
ell 799, elapsed: 0.0005640983581542969
ell 798, elapsed: 0.0005850791931152344
ell 702, elapsed: 0.00508880615234375
ell 701, elapsed: 0.0005249977111816406
ell 700, elapsed: 0.0005571842193603516
ell 699, elapsed: 0.0005521774291992188
ell 698, elapsed: 0.0005719661712646484
ell 602, elapsed: 0.00563502311706543
ell 601, elapsed: 0.0005450248718261719
ell 600, elapsed: 0.0005700588226318359
ell 599, elapsed: 0.0005459785461425781
ell 598, elapsed: 0.0005521774291992188
ell 502, elapsed: 0.005670785903930664
ell 501, elapsed: 0.0004930496215820312
ell 500, elapsed: 0.0005490779876708984
ell 499, elapsed: 0.0005481243133544922
ell 498, elapsed: 0.0005450248718261719
ell 402, elapsed: 0.005401134490966797
ell 401, elapsed: 0.0005340576171875
ell 400, elapsed: 0.0005471706390380859
ell 399, elapsed: 0.0005459785461425781
ell 398, elapsed: 0.0005488395690917969
ell 302, elapsed: 0.00507807731628418
ell 301, elapsed: 0.0004639625549316406
ell 300, elapsed: 0.0005521774291992188
ell 299, elapsed: 0.0005540847778320312
ell 298, elapsed: 0.0005459785461425781
ell 202, elapsed: 0.005586147308349609
ell 201, elapsed: 0.0005409717559814453
ell 200, elapsed: 0.0005881786346435547
ell 199, elapsed: 0.0005769729614257812
ell 198, elapsed: 0.0005810260772705078
ell 152, elapsed: 0.003258943557739258
ell 151, elapsed: 0.0005362033843994141
ell 150, elapsed: 0.0005710124969482422
ell 149, elapsed: 0.0006821155548095703
ell 148, elapsed: 0.0006699562072753906
ell 127, elapsed: 0.0017158985137939453
ell 126, elapsed: 0.00038313865661621094
ell 125, elapsed: 0.0003600120544433594
ell 124, elapsed: 0.0006060600280761719
ell 123, elapsed: 0.00046896934509277344
ell 114, elapsed: 0.0012340545654296875
ell 113, elapsed: 0.0006649494171142578
ell 112, elapsed: 0.0006189346313476562
ell 111, elapsed: 0.0004417896270751953
ell 110, elapsed: 0.000492095947265625
ell 102, elapsed: 0.0012390613555908203
ell 101, elapsed: 0.0005040168762207031
ell 100, elapsed: 0.0005500316619873047
ell 99, elapsed: 0.0005521774291992188
ell 98, elapsed: 0.0005519390106201172
ell 97, elapsed: 0.0006279945373535156
ell 96, elapsed: 0.0007650852203369141
ell 95, elapsed: 0.0006289482116699219
ell 94, elapsed: 0.0007219314575195312
ell 93, elapsed: 0.0006148815155029297
ell 92, elapsed: 0.0007238388061523438
ell 91, elapsed: 0.00061798095703125
ell 90, elapsed: 0.0007359981536865234
ell 89, elapsed: 0.0006270408630371094
ell 88, elapsed: 0.0007150173187255859
ell 87, elapsed: 0.0006129741668701172
ell 86, elapsed: 0.0007290840148925781
ell 85, elapsed: 0.0006210803985595703
ell 84, elapsed: 0.0007531642913818359
ell 83, elapsed: 0.0006158351898193359
ell 82, elapsed: 0.0007300376892089844
ell 81, elapsed: 0.0006039142608642578
ell 80, elapsed: 0.0006699562072753906
ell 79, elapsed: 0.0005500316619873047
ell 78, elapsed: 0.0008211135864257812
ell 77, elapsed: 0.0006139278411865234
ell 76, elapsed: 0.0007269382476806641
ell 75, elapsed: 0.0006120204925537109
ell 74, elapsed: 0.0007379055023193359
ell 73, elapsed: 0.0006308555603027344
ell 72, elapsed: 0.0007309913635253906
ell 71, elapsed: 0.0006151199340820312
ell 70, elapsed: 0.0007469654083251953
ell 69, elapsed: 0.0006160736083984375
ell 68, elapsed: 0.0007431507110595703
ell 67, elapsed: 0.0006339550018310547
ell 66, elapsed: 0.00074005126953125
ell 65, elapsed: 0.0005140304565429688
ell 64, elapsed: 0.0006780624389648438
ell 63, elapsed: 0.0006170272827148438
ell 62, elapsed: 0.0007550716400146484
ell 61, elapsed: 0.0005900859832763672
ell 60, elapsed: 0.0007429122924804688
ell 59, elapsed: 0.0006117820739746094
ell 58, elapsed: 0.0006380081176757812
ell 57, elapsed: 0.0005660057067871094
ell 56, elapsed: 0.0007472038269042969
ell 55, elapsed: 0.0006160736083984375
ell 54, elapsed: 0.0007319450378417969
ell 53, elapsed: 0.00061798095703125
ell 52, elapsed: 0.0006139278411865234
ell 51, elapsed: 0.0004930496215820312
ell 50, elapsed: 0.0007410049438476562
ell 49, elapsed: 0.0006089210510253906
ell 48, elapsed: 0.0006690025329589844
ell 47, elapsed: 0.0005621910095214844
ell 46, elapsed: 0.0007150173187255859
ell 45, elapsed: 0.0006139278411865234
ell 44, elapsed: 0.0007350444793701172
ell 43, elapsed: 0.000614166259765625
ell 42, elapsed: 0.0007269382476806641
ell 41, elapsed: 0.0006198883056640625
ell 40, elapsed: 0.0007350444793701172
ell 39, elapsed: 0.0006260871887207031
ell 38, elapsed: 0.0007619857788085938
ell 37, elapsed: 0.0006239414215087891
ell 36, elapsed: 0.0006339550018310547
ell 35, elapsed: 0.0003859996795654297
ell 34, elapsed: 0.00045800209045410156
ell 33, elapsed: 0.0003910064697265625
ell 32, elapsed: 0.00047397613525390625
ell 31, elapsed: 0.0004069805145263672
ell 30, elapsed: 0.0006420612335205078
ell 29, elapsed: 0.0004611015319824219
ell 28, elapsed: 0.00047397613525390625
ell 27, elapsed: 0.00038909912109375
ell 26, elapsed: 0.0004661083221435547
ell 25, elapsed: 0.0004611015319824219
ell 24, elapsed: 0.000743865966796875
ell 23, elapsed: 0.0006101131439208984
ell 22, elapsed: 0.0007269382476806641
ell 21, elapsed: 0.0006191730499267578
ell 20, elapsed: 0.0007410049438476562
ell 19, elapsed: 0.0005249977111816406
ell 18, elapsed: 0.000659942626953125
ell 17, elapsed: 0.0006089210510253906
ell 16, elapsed: 0.0007119178771972656
ell 15, elapsed: 0.00046706199645996094
ell 14, elapsed: 0.0006740093231201172
ell 13, elapsed: 0.00061798095703125
ell 12, elapsed: 0.0006430149078369141
ell 11, elapsed: 0.0005660057067871094
ell 10, elapsed: 0.0007340908050537109
ell 9, elapsed: 0.0006120204925537109
ell 8, elapsed: 0.0007281303405761719
ell 7, elapsed: 0.0006198883056640625
ell 6, elapsed: 0.0007481575012207031
ell 5, elapsed: 0.0006070137023925781
ell 4, elapsed: 0.0007379055023193359
ell 3, elapsed: 0.0005180835723876953
ell 2, elapsed: 0.0006520748138427734
ell 1, elapsed: 0.000614166259765625
ell 0, elapsed: 0.0007441043853759766
  0.163283 seconds (10.83 k allocations: 697.938 KiB)
elapsed: 0.0006330013275146484
step:          0.0616 sec (0 allocations: 0 byte, 0.0% gc time)
swapping:      0.000573 sec (0 allocations: 0 byte, 0.0% gc time)
calc_Mellell!: 0.001823 sec (0 allocations: 0 byte, 0.0% gc time)
  t0 :  0.000491 sec (0 allocations: 0 byte, 0.0% gc time)
  tm2 : 0.018139 sec (0 allocations: 0 byte, 0.0% gc time)
  tm2s: 0.000432 sec (0 allocations: 0 byte, 0.0% gc time)
  tm4 : 0.050258 sec (0 allocations: 0 byte, 0.0% gc time)
  tp2 : 0.0 sec (0 allocations: 0 byte, 0.0% gc time)
  tp2s: 0.0 sec (0 allocations: 0 byte, 0.0% gc time)
  tp4 : 0.0 sec (0 allocations: 0 byte, 0.0% gc time)
calc_wtdll!:   0.070029 sec (1.344 k allocations: 147.0 KB, 0.0% gc time)
calc_wljj!:    0.005348 sec (6 allocations: 96 byte, 0.0% gc time)
mult_prefac!:  0.0 sec (0 allocations: 0 byte, 0.0% gc time)
convert:       0.0 sec (0 allocations: 0 byte, 0.0% gc time)
write:         0.006881 sec (0 allocations: 0 byte, 0.0% gc time)
test_rand_2f1: 0.0 sec (0 allocations: 0 byte, 0.0% gc time)
Closing outfile out/Ml21-cache.bin...   0.003129 seconds
  0.000255 seconds (52 allocations: 28.297 KiB)
make_phi():   0.002522 seconds (8.20 k allocations: 238.016 KiB)
  0.015235 seconds (12.10 k allocations: 322.000 KiB)
tskip:       2.1e-5 sec (0 allocations: 0 byte, 0.0% gc time)
tread:       0.002481 sec (19 allocations: 2.172 KB, 0.0% gc time)
tmultphi:    0.001205 sec (0 allocations: 0 byte, 0.0% gc time)
tbrfft:      0.00408 sec (896 allocations: 42.0 KB, 0.0% gc time)
tmultprefac: 0.002535 sec (0 allocations: 0 byte, 0.0% gc time)
toutfunc:    0.004907 sec (10.528 k allocations: 206.5 KB, 0.0% gc time)
Testing R=0.9 ... passed
Calculating fmax: 
  dlrec    = 4
  dlrecRg1 = -4
  q=1.1, R=0.8:	  0.380595 seconds (113.61 k allocations: 15.166 MiB, 5.64% gc time)

  0.382192 seconds (113.66 k allocations: 15.200 MiB, 5.61% gc time)
ℓ = 1202
Δℓ = 4
ΔℓRg1 = -4
N = 1600
q = 1.1
kmin = 1.0e-5
kmax = 100000.00000000004
χ0 = 0.023029999999999995
RR = RR.tsv
ℓmax = ℓmax.bin
f21 = f21.bin
kmin = 1.0e-5
kmax = 100000.0
dlrec    = 4
dlrecRg1 = -4
Output size: 5741568 bytes = 0.005347251892089844 GiB
Output size: 51264 bytes = 4.774332046508789e-5 GiB
Reading 'out/F21EllCache'...   0.001150 seconds (267 allocations: 84.656 KiB)
ellmax: 1202
lmaxcache: 1202
fell[:,1,1] = Complex{Float64}[7.519068145690986e-120 - 1.8416405474382574e-135im, 7.541664537386155e-120 - 1.847175067190611e-135im]
ell 1202, elapsed: 0.00012993812561035156
ell 1201, elapsed: 0.0006978511810302734
ell 1200, elapsed: 0.0006778240203857422
ell 1199, elapsed: 0.0006921291351318359
ell 1198, elapsed: 0.000698089599609375
ell 1002, elapsed: 0.00996088981628418
ell 1001, elapsed: 0.0006799697875976562
ell 1000, elapsed: 0.0006940364837646484
ell 999, elapsed: 0.0006740093231201172
ell 998, elapsed: 0.0006918907165527344
ell 902, elapsed: 0.00521087646484375
ell 901, elapsed: 0.0007069110870361328
ell 900, elapsed: 0.0007030963897705078
ell 899, elapsed: 0.0004949569702148438
ell 898, elapsed: 0.0005440711975097656
ell 802, elapsed: 0.00524592399597168
ell 801, elapsed: 0.0005309581756591797
ell 800, elapsed: 0.0005600452423095703
ell 799, elapsed: 0.0005609989166259766
ell 798, elapsed: 0.0006051063537597656
ell 702, elapsed: 0.005770206451416016
ell 701, elapsed: 0.0005390644073486328
ell 700, elapsed: 0.0005581378936767578
ell 699, elapsed: 0.0005631446838378906
ell 698, elapsed: 0.0008800029754638672
ell 602, elapsed: 0.0057408809661865234
ell 601, elapsed: 0.0005328655242919922
ell 600, elapsed: 0.0005638599395751953
ell 599, elapsed: 0.0006399154663085938
ell 598, elapsed: 0.0005500316619873047
ell 502, elapsed: 0.005605936050415039
ell 501, elapsed: 0.0005400180816650391
ell 500, elapsed: 0.0005881786346435547
ell 499, elapsed: 0.0005681514739990234
ell 498, elapsed: 0.0005700588226318359
ell 402, elapsed: 0.0053768157958984375
ell 401, elapsed: 0.0004191398620605469
ell 400, elapsed: 0.0003979206085205078
ell 399, elapsed: 0.0004749298095703125
ell 398, elapsed: 0.000598907470703125
ell 302, elapsed: 0.0050580501556396484
ell 301, elapsed: 0.0005269050598144531
ell 300, elapsed: 0.0005409717559814453
ell 299, elapsed: 0.00036597251892089844
ell 298, elapsed: 0.0003561973571777344
ell 202, elapsed: 0.0055539608001708984
ell 201, elapsed: 0.0004169940948486328
ell 200, elapsed: 0.0003859996795654297
ell 199, elapsed: 0.0003819465637207031
ell 198, elapsed: 0.00037598609924316406
ell 152, elapsed: 0.0028281211853027344
ell 151, elapsed: 0.0004029273986816406
ell 150, elapsed: 0.0003871917724609375
ell 149, elapsed: 0.0003809928894042969
ell 148, elapsed: 0.000392913818359375
ell 127, elapsed: 0.0018069744110107422
ell 126, elapsed: 0.0003790855407714844
ell 125, elapsed: 0.00034809112548828125
ell 124, elapsed: 0.0003628730773925781
ell 123, elapsed: 0.00037384033203125
ell 114, elapsed: 0.0008912086486816406
ell 113, elapsed: 0.0003628730773925781
ell 112, elapsed: 0.00049591064453125
ell 111, elapsed: 0.0005230903625488281
ell 110, elapsed: 0.0004930496215820312
ell 102, elapsed: 0.0009808540344238281
ell 101, elapsed: 0.0004909038543701172
ell 100, elapsed: 0.0005850791931152344
ell 99, elapsed: 0.0005979537963867188
ell 98, elapsed: 0.0005440711975097656
ell 97, elapsed: 0.0006170272827148438
ell 96, elapsed: 0.0006251335144042969
ell 95, elapsed: 0.00043082237243652344
ell 94, elapsed: 0.0005140304565429688
ell 93, elapsed: 0.00043892860412597656
ell 92, elapsed: 0.000518798828125
ell 91, elapsed: 0.0004279613494873047
ell 90, elapsed: 0.0005199909210205078
ell 89, elapsed: 0.0004239082336425781
ell 88, elapsed: 0.0005099773406982422
ell 87, elapsed: 0.0004229545593261719
ell 86, elapsed: 0.0006990432739257812
ell 85, elapsed: 0.0006580352783203125
ell 84, elapsed: 0.0005791187286376953
ell 83, elapsed: 0.00040912628173828125
ell 82, elapsed: 0.0004780292510986328
ell 81, elapsed: 0.0003859996795654297
ell 80, elapsed: 0.0004589557647705078
ell 79, elapsed: 0.0003879070281982422
ell 78, elapsed: 0.0004839897155761719
ell 77, elapsed: 0.000392913818359375
ell 76, elapsed: 0.00047707557678222656
ell 75, elapsed: 0.0003910064697265625
ell 74, elapsed: 0.0004711151123046875
ell 73, elapsed: 0.0003960132598876953
ell 72, elapsed: 0.0004761219024658203
ell 71, elapsed: 0.00039196014404296875
ell 70, elapsed: 0.0006389617919921875
ell 69, elapsed: 0.0006191730499267578
ell 68, elapsed: 0.0007581710815429688
ell 67, elapsed: 0.0005791187286376953
ell 66, elapsed: 0.0007259845733642578
ell 65, elapsed: 0.0006170272827148438
ell 64, elapsed: 0.0007610321044921875
[...]
ell 788, elapsed: 0.0007519721984863281
ell 782, elapsed: 0.0014889240264892578
ell 781, elapsed: 0.0007519721984863281
ell 780, elapsed: 0.0007369518280029297
ell 779, elapsed: 0.0007560253143310547
ell 778, elapsed: 0.0010519027709960938
ell 772, elapsed: 0.001497030258178711
ell 771, elapsed: 0.0007832050323486328
ell 770, elapsed: 0.0007579326629638672
ell 769, elapsed: 0.0007550716400146484
ell 768, elapsed: 0.0007569789886474609
ell 762, elapsed: 0.001439809799194336
ell 761, elapsed: 0.0009610652923583984
ell 760, elapsed: 0.0007691383361816406
ell 759, elapsed: 0.0007340908050537109
ell 758, elapsed: 0.0007538795471191406
ell 752, elapsed: 0.001428842544555664
ell 751, elapsed: 0.0007491111755371094
ell 750, elapsed: 0.000782012939453125
ell 749, elapsed: 0.0007469654083251953
ell 748, elapsed: 0.0007390975952148438
ell 742, elapsed: 0.0014560222625732422
ell 741, elapsed: 0.0007719993591308594
ell 740, elapsed: 0.0007498264312744141
ell 739, elapsed: 0.0007371902465820312
ell 738, elapsed: 0.0007548332214355469
ell 732, elapsed: 0.0015151500701904297
ell 731, elapsed: 0.0007531642913818359
ell 730, elapsed: 0.0007350444793701172
ell 729, elapsed: 0.0007479190826416016
ell 728, elapsed: 0.0007469654083251953
ell 722, elapsed: 0.0014388561248779297
ell 721, elapsed: 0.0007569789886474609
ell 720, elapsed: 0.0007569789886474609
ell 719, elapsed: 0.0007479190826416016
ell 718, elapsed: 0.0007710456848144531
ell 712, elapsed: 0.001447916030883789
ell 711, elapsed: 0.0007410049438476562
ell 710, elapsed: 0.0007359981536865234
ell 709, elapsed: 0.0008230209350585938
ell 708, elapsed: 0.0007679462432861328
ell 702, elapsed: 0.0014929771423339844
ell 701, elapsed: 0.00074005126953125
ell 700, elapsed: 0.0007710456848144531
ell 699, elapsed: 0.0007581710815429688
ell 698, elapsed: 0.0007340908050537109
ell 692, elapsed: 0.0014841556549072266
ell 691, elapsed: 0.0007379055023193359
ell 690, elapsed: 0.0007679462432861328
ell 689, elapsed: 0.0007371902465820312
ell 688, elapsed: 0.0007519721984863281
ell 682, elapsed: 0.001435995101928711
ell 681, elapsed: 0.0007779598236083984
ell 680, elapsed: 0.0007390975952148438
ell 679, elapsed: 0.0007441043853759766
ell 678, elapsed: 0.0007498264312744141
ell 672, elapsed: 0.0014750957489013672
ell 671, elapsed: 0.0007441043853759766
ell 670, elapsed: 0.0007600784301757812
ell 669, elapsed: 0.0007381439208984375
ell 668, elapsed: 0.0007500648498535156
ell 662, elapsed: 0.0014939308166503906
ell 661, elapsed: 0.0007429122924804688
ell 660, elapsed: 0.0007510185241699219
ell 659, elapsed: 0.00074005126953125
ell 658, elapsed: 0.0007631778717041016
ell 652, elapsed: 0.0014848709106445312
ell 651, elapsed: 0.0007350444793701172
ell 650, elapsed: 0.0007390975952148438
ell 649, elapsed: 0.0007579326629638672
ell 648, elapsed: 0.0007550716400146484
ell 642, elapsed: 0.0014629364013671875
ell 641, elapsed: 0.0007569789886474609
ell 640, elapsed: 0.0007500648498535156
ell 639, elapsed: 0.0007739067077636719
ell 638, elapsed: 0.0007688999176025391
ell 632, elapsed: 0.0015327930450439453
ell 631, elapsed: 0.0007791519165039062
ell 630, elapsed: 0.0007719993591308594
ell 629, elapsed: 0.0007491111755371094
ell 628, elapsed: 0.0007398128509521484
ell 622, elapsed: 0.0014951229095458984
ell 621, elapsed: 0.0008039474487304688
ell 620, elapsed: 0.0007579326629638672
ell 619, elapsed: 0.0007579326629638672
ell 618, elapsed: 0.0007410049438476562
ell 612, elapsed: 0.0014879703521728516
ell 611, elapsed: 0.0007719993591308594
ell 610, elapsed: 0.0007758140563964844
ell 609, elapsed: 0.0007669925689697266
ell 608, elapsed: 0.0007519721984863281
ell 602, elapsed: 0.0016980171203613281
ell 601, elapsed: 0.0007760524749755859
ell 600, elapsed: 0.0007658004760742188
ell 599, elapsed: 0.0007650852203369141
ell 598, elapsed: 0.0010530948638916016
ell 592, elapsed: 0.0014569759368896484
ell 591, elapsed: 0.0010349750518798828
ell 590, elapsed: 0.0008409023284912109
ell 589, elapsed: 0.0007641315460205078
ell 588, elapsed: 0.0007710456848144531
ell 582, elapsed: 0.0014820098876953125
ell 581, elapsed: 0.0007848739624023438
ell 580, elapsed: 0.0007550716400146484
ell 579, elapsed: 0.0007410049438476562
ell 578, elapsed: 0.0007610321044921875
ell 572, elapsed: 0.0015020370483398438
ell 571, elapsed: 0.0007619857788085938
ell 570, elapsed: 0.0007388591766357422
ell 569, elapsed: 0.0007050037384033203
ell 568, elapsed: 0.000637054443359375
ell 562, elapsed: 0.0014200210571289062
ell 561, elapsed: 0.0007328987121582031
ell 560, elapsed: 0.0007448196411132812
ell 559, elapsed: 0.0007200241088867188
ell 558, elapsed: 0.0007460117340087891
ell 552, elapsed: 0.001432180404663086
ell 551, elapsed: 0.0007500648498535156
ell 550, elapsed: 0.0007770061492919922
ell 549, elapsed: 0.0007688999176025391
ell 548, elapsed: 0.0007500648498535156
ell 542, elapsed: 0.0013921260833740234
ell 541, elapsed: 0.0007450580596923828
ell 540, elapsed: 0.0007681846618652344
ell 539, elapsed: 0.0009379386901855469
ell 538, elapsed: 0.0008299350738525391
ell 532, elapsed: 0.0015521049499511719
ell 531, elapsed: 0.0008349418640136719
ell 530, elapsed: 0.0008308887481689453
ell 529, elapsed: 0.0008158683776855469
ell 528, elapsed: 0.0007691383361816406
ell 522, elapsed: 0.0017058849334716797
ell 521, elapsed: 0.0007610321044921875
ell 520, elapsed: 0.0007588863372802734
ell 519, elapsed: 0.0007510185241699219
ell 518, elapsed: 0.0007700920104980469
ell 512, elapsed: 0.002126932144165039
ell 511, elapsed: 0.0009739398956298828
ell 510, elapsed: 0.000993967056274414
ell 509, elapsed: 0.0007669925689697266
ell 508, elapsed: 0.0007472038269042969
ell 502, elapsed: 0.0018918514251708984
ell 501, elapsed: 0.0008549690246582031
ell 500, elapsed: 0.0008318424224853516
ell 499, elapsed: 0.0007679462432861328
ell 498, elapsed: 0.0008001327514648438
ell 492, elapsed: 0.0014469623565673828
ell 491, elapsed: 0.0007479190826416016
ell 490, elapsed: 0.0007789134979248047
ell 489, elapsed: 0.0007958412170410156
ell 488, elapsed: 0.0007522106170654297
ell 482, elapsed: 0.0014369487762451172
ell 481, elapsed: 0.0007619857788085938
ell 480, elapsed: 0.0008270740509033203
ell 479, elapsed: 0.0007669925689697266
ell 478, elapsed: 0.0007569789886474609
ell 472, elapsed: 0.0014269351959228516
ell 471, elapsed: 0.0007998943328857422
ell 470, elapsed: 0.0010199546813964844
ell 469, elapsed: 0.0007109642028808594
ell 468, elapsed: 0.0007319450378417969
ell 462, elapsed: 0.0014281272888183594
ell 461, elapsed: 0.0007500648498535156
ell 460, elapsed: 0.0007688999176025391
ell 459, elapsed: 0.0007531642913818359
ell 458, elapsed: 0.0007610321044921875
ell 452, elapsed: 0.0014688968658447266
ell 451, elapsed: 0.000759124755859375
ell 450, elapsed: 0.00074005126953125
ell 449, elapsed: 0.0007610321044921875
ell 448, elapsed: 0.0007510185241699219
ell 442, elapsed: 0.0015189647674560547
ell 441, elapsed: 0.0007369518280029297
ell 440, elapsed: 0.0007340908050537109
ell 439, elapsed: 0.0007681846618652344
ell 438, elapsed: 0.0007970333099365234
ell 432, elapsed: 0.0014531612396240234
ell 431, elapsed: 0.0007472038269042969
ell 430, elapsed: 0.0007560253143310547
ell 429, elapsed: 0.0007557868957519531
ell 428, elapsed: 0.0007550716400146484
ell 422, elapsed: 0.0016160011291503906
ell 421, elapsed: 0.0007059574127197266
ell 420, elapsed: 0.0007989406585693359
ell 419, elapsed: 0.0007419586181640625
ell 418, elapsed: 0.0007531642913818359
ell 412, elapsed: 0.0014569759368896484
ell 411, elapsed: 0.0007920265197753906
ell 410, elapsed: 0.0007650852203369141
ell 409, elapsed: 0.0007638931274414062
ell 408, elapsed: 0.0007669925689697266
ell 402, elapsed: 0.0014510154724121094
ell 401, elapsed: 0.0007619857788085938
ell 400, elapsed: 0.0007750988006591797
ell 399, elapsed: 0.0007688999176025391
ell 398, elapsed: 0.0007691383361816406
ell 392, elapsed: 0.0015130043029785156
ell 391, elapsed: 0.0007789134979248047
ell 390, elapsed: 0.0007379055023193359
ell 389, elapsed: 0.0007619857788085938
ell 388, elapsed: 0.0007870197296142578
ell 382, elapsed: 0.001493215560913086
ell 381, elapsed: 0.0007429122924804688
ell 380, elapsed: 0.0007739067077636719
ell 379, elapsed: 0.0007860660552978516
ell 378, elapsed: 0.0007719993591308594
ell 372, elapsed: 0.0014870166778564453
ell 371, elapsed: 0.0007770061492919922
ell 370, elapsed: 0.0007929801940917969
ell 369, elapsed: 0.0007741451263427734
ell 368, elapsed: 0.0007791519165039062
ell 362, elapsed: 0.0014560222625732422
ell 361, elapsed: 0.0007929801940917969
ell 360, elapsed: 0.0007750988006591797
ell 359, elapsed: 0.0007541179656982422
ell 358, elapsed: 0.0007719993591308594
ell 352, elapsed: 0.0014979839324951172
ell 351, elapsed: 0.0007691383361816406
ell 350, elapsed: 0.0007469654083251953
ell 349, elapsed: 0.0007519721984863281
ell 348, elapsed: 0.0007619857788085938
ell 342, elapsed: 0.0016410350799560547
ell 341, elapsed: 0.0007431507110595703
ell 340, elapsed: 0.0007240772247314453
ell 339, elapsed: 0.0007541179656982422
ell 338, elapsed: 0.0007457733154296875
ell 332, elapsed: 0.001466989517211914
ell 331, elapsed: 0.0007648468017578125
ell 330, elapsed: 0.0007729530334472656
ell 329, elapsed: 0.0007538795471191406
ell 328, elapsed: 0.0007669925689697266
ell 322, elapsed: 0.0015010833740234375
ell 321, elapsed: 0.0007810592651367188
ell 320, elapsed: 0.0007500648498535156
ell 319, elapsed: 0.0007920265197753906
ell 318, elapsed: 0.0007700920104980469
ell 312, elapsed: 0.0017561912536621094
ell 311, elapsed: 0.0007691383361816406
ell 310, elapsed: 0.0007789134979248047
ell 309, elapsed: 0.0007898807525634766
ell 308, elapsed: 0.0007598400115966797
ell 302, elapsed: 0.0014200210571289062
ell 301, elapsed: 0.0007619857788085938
ell 300, elapsed: 0.0007460117340087891
ell 299, elapsed: 0.0007350444793701172
ell 298, elapsed: 0.0007550716400146484
ell 292, elapsed: 0.0014181137084960938
ell 291, elapsed: 0.0007638931274414062
ell 290, elapsed: 0.0007739067077636719
ell 289, elapsed: 0.0007359981536865234
ell 288, elapsed: 0.0007569789886474609
ell 282, elapsed: 0.0014281272888183594
ell 281, elapsed: 0.0007739067077636719
ell 280, elapsed: 0.0007760524749755859
ell 279, elapsed: 0.0007431507110595703
ell 278, elapsed: 0.000743865966796875
ell 272, elapsed: 0.0014090538024902344
ell 271, elapsed: 0.0007638931274414062
ell 270, elapsed: 0.0007531642913818359
ell 269, elapsed: 0.0009889602661132812
ell 268, elapsed: 0.000759124755859375
ell 262, elapsed: 0.0016829967498779297
ell 261, elapsed: 0.0007221698760986328
ell 260, elapsed: 0.0008380413055419922
ell 259, elapsed: 0.0007460117340087891
ell 258, elapsed: 0.0007309913635253906
ell 252, elapsed: 0.0016858577728271484
ell 251, elapsed: 0.0007479190826416016
ell 250, elapsed: 0.0007719993591308594
ell 249, elapsed: 0.0007331371307373047
ell 248, elapsed: 0.0007870197296142578
ell 242, elapsed: 0.0017740726470947266
ell 241, elapsed: 0.0006937980651855469
ell 240, elapsed: 0.0007488727569580078
ell 239, elapsed: 0.0007419586181640625
ell 238, elapsed: 0.0007531642913818359
ell 232, elapsed: 0.0014469623565673828
ell 231, elapsed: 0.0007739067077636719
ell 230, elapsed: 0.0007791519165039062
ell 229, elapsed: 0.0007660388946533203
ell 228, elapsed: 0.0007739067077636719
ell 222, elapsed: 0.0014119148254394531
ell 221, elapsed: 0.0007498264312744141
ell 220, elapsed: 0.0007159709930419922
ell 219, elapsed: 0.0007710456848144531
ell 218, elapsed: 0.0007450580596923828
ell 212, elapsed: 0.001435995101928711
ell 211, elapsed: 0.0010421276092529297
ell 210, elapsed: 0.0007948875427246094
ell 209, elapsed: 0.0007710456848144531
ell 208, elapsed: 0.0007748603820800781
ell 202, elapsed: 0.0016841888427734375
ell 201, elapsed: 0.0007288455963134766
ell 200, elapsed: 0.0007691383361816406
ell 199, elapsed: 0.0007770061492919922
ell 198, elapsed: 0.000782012939453125
ell 192, elapsed: 0.0015969276428222656
ell 191, elapsed: 0.0007550716400146484
ell 190, elapsed: 0.0007610321044921875
ell 189, elapsed: 0.0007441043853759766
ell 188, elapsed: 0.000720977783203125
ell 182, elapsed: 0.0015780925750732422
ell 181, elapsed: 0.0007460117340087891
ell 180, elapsed: 0.0007271766662597656
ell 179, elapsed: 0.0007770061492919922
ell 178, elapsed: 0.0009121894836425781
ell 172, elapsed: 0.0014829635620117188
ell 171, elapsed: 0.0007519721984863281
ell 170, elapsed: 0.0007839202880859375
ell 169, elapsed: 0.0008630752563476562
ell 168, elapsed: 0.0007801055908203125
ell 162, elapsed: 0.00150299072265625
ell 161, elapsed: 0.0009319782257080078
ell 160, elapsed: 0.0010149478912353516
ell 159, elapsed: 0.0007030963897705078
ell 158, elapsed: 0.0007710456848144531
ell 152, elapsed: 0.002043008804321289
ell 151, elapsed: 0.0007920265197753906
ell 150, elapsed: 0.0007669925689697266
ell 149, elapsed: 0.0007729530334472656
ell 148, elapsed: 0.0010099411010742188
ell 142, elapsed: 0.0017960071563720703
ell 141, elapsed: 0.0007259845733642578
ell 140, elapsed: 0.0007841587066650391
ell 139, elapsed: 0.0012350082397460938
ell 138, elapsed: 0.0007860660552978516
ell 132, elapsed: 0.0014538764953613281
ell 131, elapsed: 0.0011620521545410156
ell 130, elapsed: 0.0007500648498535156
ell 129, elapsed: 0.0007500648498535156
ell 128, elapsed: 0.0007560253143310547
ell 122, elapsed: 0.0015540122985839844
ell 121, elapsed: 0.0007379055023193359
ell 120, elapsed: 0.0007441043853759766
ell 119, elapsed: 0.0007770061492919922
ell 118, elapsed: 0.0008800029754638672
ell 112, elapsed: 0.0014739036560058594
ell 111, elapsed: 0.0007548332214355469
ell 110, elapsed: 0.0007710456848144531
ell 109, elapsed: 0.001035928726196289
ell 108, elapsed: 0.0007607936859130859
ell 102, elapsed: 0.001611948013305664
ell 101, elapsed: 0.004164934158325195
ell 100, elapsed: 0.0045850276947021484
ell 99, elapsed: 0.004461050033569336
ell 98, elapsed: 0.004745006561279297
ell 92, elapsed: 0.007092952728271484
ell 91, elapsed: 0.004781961441040039
ell 90, elapsed: 0.004789113998413086
ell 89, elapsed: 0.0056879520416259766
ell 88, elapsed: 0.0038878917694091797
ell 82, elapsed: 0.008105993270874023
ell 81, elapsed: 0.004450798034667969
ell 80, elapsed: 0.004519939422607422
ell 79, elapsed: 0.004439830780029297
ell 78, elapsed: 0.004530906677246094
ell 72, elapsed: 0.0073490142822265625
ell 71, elapsed: 0.004328012466430664
ell 70, elapsed: 0.0032548904418945312
ell 69, elapsed: 0.003332853317260742
ell 68, elapsed: 0.00323486328125
ell 62, elapsed: 0.0064280033111572266
ell 61, elapsed: 0.0037178993225097656
ell 60, elapsed: 0.0035550594329833984
ell 59, elapsed: 0.0038290023803710938
ell 58, elapsed: 0.003264904022216797
ell 52, elapsed: 0.006564140319824219
ell 51, elapsed: 0.004782915115356445
ell 50, elapsed: 0.004478931427001953
ell 49, elapsed: 0.0035729408264160156
ell 48, elapsed: 0.004456043243408203
ell 42, elapsed: 0.006942033767700195
ell 41, elapsed: 0.004461050033569336
ell 40, elapsed: 0.004280805587768555
ell 39, elapsed: 0.004456043243408203
ell 38, elapsed: 0.0046138763427734375
ell 32, elapsed: 0.006880998611450195
ell 31, elapsed: 0.003994941711425781
ell 30, elapsed: 0.004294872283935547
ell 29, elapsed: 0.004381895065307617
ell 28, elapsed: 0.0039179325103759766
ell 22, elapsed: 0.00739598274230957
ell 21, elapsed: 0.004503011703491211
ell 20, elapsed: 0.004079103469848633
ell 19, elapsed: 0.00449681282043457
ell 18, elapsed: 0.003537893295288086
ell 12, elapsed: 0.007533073425292969
ell 11, elapsed: 0.004716157913208008
ell 10, elapsed: 0.004647970199584961
ell 9, elapsed: 0.004712104797363281
ell 8, elapsed: 0.004728078842163086
  0.790335 seconds (66.75 k allocations: 12.139 MiB)
elapsed: 0.00551915168762207
step:          0.065429 sec (0 allocations: 0 byte, 0.0% gc time)
swapping:      0.000759 sec (0 allocations: 0 byte, 0.0% gc time)
calc_Mellell!: 0.030956 sec (0 allocations: 0 byte, 0.0% gc time)
  t0 :  0.010263 sec (0 allocations: 0 byte, 0.0% gc time)
  tm2 : 0.077838 sec (0 allocations: 0 byte, 0.0% gc time)
  tm2s: 0.009105 sec (0 allocations: 0 byte, 0.0% gc time)
  tm4 : 0.199724 sec (0 allocations: 0 byte, 0.0% gc time)
  tp2 : 0.0 sec (0 allocations: 0 byte, 0.0% gc time)
  tp2s: 0.0 sec (0 allocations: 0 byte, 0.0% gc time)
  tp4 : 0.0 sec (0 allocations: 0 byte, 0.0% gc time)
calc_wtdll!:   0.556878 sec (49.2 k allocations: 11.133 MB, 0.0% gc time)
calc_wljj!:    0.040334 sec (69 allocations: 1.078 KB, 0.0% gc time)
mult_prefac!:  0.0 sec (0 allocations: 0 byte, 0.0% gc time)
convert:       0.0 sec (0 allocations: 0 byte, 0.0% gc time)
write:         0.041769 sec (0 allocations: 0 byte, 0.0% gc time)
test_rand_2f1: 0.0 sec (0 allocations: 0 byte, 0.0% gc time)
Closing outfile out/MlCache/MlCache.bin...   0.000012 seconds
xi, l=0, nu=0:   0.421873 seconds (551.97 k allocations: 26.845 MiB)
xi, l=0, nu=-2:  0.002459 seconds (144 allocations: 149.562 KiB)
Created 'out/xi.tsv'.
  q=1.1, R=0.6:	  0.782321 seconds (291.08 k allocations: 38.895 MiB, 3.19% gc time)
  q=1.1, R=0.7:	  0.851979 seconds (304.75 k allocations: 40.996 MiB, 1.48% gc time)
  q=1.1, R=0.8:	  0.867293 seconds (299.14 k allocations: 40.132 MiB, 1.05% gc time)
  q=1.1, R=0.9:	  0.973165 seconds (293.57 k allocations: 39.286 MiB, 0.78% gc time)
  q=1.1, R=0.998:	 21.679437 seconds (10.67 M allocations: 823.453 MiB, 0.22% gc time)
  q=1.1, R=1.0:	  0.004112 seconds (10.24 k allocations: 768.375 KiB)

ℓ = 1000
Δℓ = 4
ΔℓRg1 = -4
N = 4096
q = 1.1
kmin = 1.0e-5
kmax = 1000.0
χ0 = 0.001
RR = RR.tsv
ℓmax = ℓmax.bin
f21 = f21.bin
kmin = 1.0e-5
kmax = 1000.0
dlrec    = 4
dlrecRg1 = -4
Output size: 1573632 bytes = 0.0014655590057373047 GiB
Output size: 786816 bytes = 0.0007327795028686523 GiB
Reading 'out/F21EllCache'...   0.001399 seconds (268 allocations: 533.531 KiB)
ellmax: 1002
lmaxcache: 1000
fell[:,1,1] = Complex{Float64}[1.7262928128202118e-224 - 4.2281979352226944e-240im, 1.7282693092099662e-224 - 4.233038955177176e-240im]
ell 1002, elapsed: 4.9114227294921875e-5
ell 1001, elapsed: 0.0007598400115966797
ell 1000, elapsed: 0.0007278919219970703
ell 999, elapsed: 0.005254983901977539
ell 998, elapsed: 0.006381034851074219
ell 44, elapsed: 0.6886558532714844
ell 43, elapsed: 0.0059659481048583984
ell 42, elapsed: 0.005981922149658203
ell 41, elapsed: 0.006429910659790039
ell 40, elapsed: 0.005891084671020508
  0.733928 seconds (4.55 k allocations: 320.359 KiB)
elapsed: 0.006922006607055664
step:          0.683589 sec (0 allocations: 0 byte, 0.0% gc time)
swapping:      0.000741 sec (0 allocations: 0 byte, 0.0% gc time)
calc_Mellell!: 0.001105 sec (0 allocations: 0 byte, 0.0% gc time)
  t0 :  0.000414 sec (0 allocations: 0 byte, 0.0% gc time)
  tm2 : 0.010926 sec (0 allocations: 0 byte, 0.0% gc time)
  tm2s: 0.00029 sec (0 allocations: 0 byte, 0.0% gc time)
  tm4 : 0.028252 sec (0 allocations: 0 byte, 0.0% gc time)
  tp2 : 0.0 sec (0 allocations: 0 byte, 0.0% gc time)
  tp2s: 0.0 sec (0 allocations: 0 byte, 0.0% gc time)
  tp4 : 0.0 sec (0 allocations: 0 byte, 0.0% gc time)
calc_wtdll!:   0.040083 sec (480 allocations: 52.5 KB, 0.0% gc time)
calc_wljj!:    0.001088 sec (1 allocations: 16 byte, 0.0% gc time)
mult_prefac!:  0.0 sec (0 allocations: 0 byte, 0.0% gc time)
convert:       0.0 sec (0 allocations: 0 byte, 0.0% gc time)
write:         0.000988 sec (0 allocations: 0 byte, 0.0% gc time)
test_rand_2f1: 0.0 sec (0 allocations: 0 byte, 0.0% gc time)
Closing outfile out/MlCache/MlCache.bin...   0.001545 seconds
  0.482579 seconds (54 allocations: 67.203 KiB)
make_phi():   0.009020 seconds (80 allocations: 276.297 KiB)
  0.002993 seconds (108 allocations: 5.812 KiB)
tskip:       1.0e-6 sec (0 allocations: 0 byte, 0.0% gc time)
tread:       0.000657 sec (19 allocations: 1.312 KB, 0.0% gc time)
tmultphi:    0.000367 sec (0 allocations: 0 byte, 0.0% gc time)
tbrfft:      0.001216 sec (96 allocations: 4.5 KB, 0.0% gc time)
tmultprefac: 0.00074 sec (0 allocations: 0 byte, 0.0% gc time)
toutfunc:    0.000116 sec (0 allocations: 0 byte, 0.0% gc time)
Created 'out/wl42_jj00.tsv'.
Created 'out/wl42_jj02.tsv'.
   Testing TwoFAST tests passed 
