Julia Version 1.4.0-DEV.668
Commit 0570202e5f (2019-12-28 22:20 UTC)
Platform Info:
  OS: Linux (x86_64-pc-linux-gnu)
  CPU: Intel(R) Xeon(R) Silver 4114 CPU @ 2.20GHz
  WORD_SIZE: 64
  LIBM: libopenlibm
  LLVM: libLLVM-8.0.1 (ORCJIT, skylake)
Environment:
  JULIA_DEPOT_PATH = ::/usr/local/share/julia

 Resolving package versions...
 Installed FFTW_jll ───────── v3.3.9+3
 Installed URIParser ──────── v0.4.0
 Installed IntelOpenMP_jll ── v2018.0.3+0
 Installed AbstractFFTs ───── v0.5.0
 Installed SpecialFunctions ─ v0.8.0
 Installed BinaryProvider ─── v0.5.8
 Installed AbstractAlgebra ── v0.7.1
 Installed MKL_jll ────────── v2019.0.117+0
 Installed FFTW ───────────── v1.2.0
 Installed Reexport ───────── v0.2.0
 Installed IncGammaBeta ───── v0.1.0
 Installed BinDeps ────────── v1.0.0
 Installed Nemo ───────────── v0.15.1
 Installed TwoFAST ────────── v0.1.0
  Updating `~/.julia/environments/v1.4/Project.toml`
  [0dd23c3e] + TwoFAST v0.1.0
  Updating `~/.julia/environments/v1.4/Manifest.toml`
  [c3fe647b] + AbstractAlgebra v0.7.1
  [621f4979] + AbstractFFTs v0.5.0
  [9e28174c] + BinDeps v1.0.0
  [b99e7846] + BinaryProvider v0.5.8
  [7a1cc6ca] + FFTW v1.2.0
  [f5851436] + FFTW_jll v3.3.9+3
  [5087d2c0] + IncGammaBeta v0.1.0
  [1d5cc7b8] + IntelOpenMP_jll v2018.0.3+0
  [856f044c] + MKL_jll v2019.0.117+0
  [2edaba10] + Nemo v0.15.1
  [189a3867] + Reexport v0.2.0
  [276daf66] + SpecialFunctions v0.8.0
  [0dd23c3e] + TwoFAST v0.1.0
  [30578b45] + URIParser v0.4.0
  [2a0f44e3] + Base64 
  [ade2ca70] + Dates 
  [8bb1440f] + DelimitedFiles 
  [8ba89e20] + Distributed 
  [b77e0a4c] + InteractiveUtils 
  [76f85450] + LibGit2 
  [8f399da3] + Libdl 
  [37e2e46d] + LinearAlgebra 
  [56ddb016] + Logging 
  [d6f4376e] + Markdown 
  [a63ad114] + Mmap 
  [44cfe95a] + Pkg 
  [de0858da] + Printf 
  [3fa0cd96] + REPL 
  [9a3f8284] + Random 
  [ea8e919c] + SHA 
  [9e88b42a] + Serialization 
  [6462fe0b] + Sockets 
  [2f01184e] + SparseArrays 
  [8dfed614] + Test 
  [cf7118a7] + UUIDs 
  [4ec0a83e] + Unicode 
  Building SpecialFunctions → `~/.julia/packages/SpecialFunctions/ne2iw/deps/build.log`
  Updating `/tmp/jl_gGmsZ0/Project.toml`
 [no changes]
  Updating `/tmp/jl_gGmsZ0/Manifest.toml`
 [no changes]
  Building FFTW ────────────→ `~/.julia/packages/FFTW/qqcBj/deps/build.log`
  Updating `/tmp/jl_Bl5gNy/Project.toml`
 [no changes]
  Updating `/tmp/jl_Bl5gNy/Manifest.toml`
 [no changes]
  Building Nemo ────────────→ `~/.julia/packages/Nemo/qzx0m/deps/build.log`
  Updating `/tmp/jl_cAuuB8/Project.toml`
 [no changes]
  Updating `/tmp/jl_cAuuB8/Manifest.toml`
 [no changes]
   Testing TwoFAST
 Installed Dierckx ─ v0.4.1
  Updating `/tmp/jl_Dh3enr/Project.toml`
  [39dd38d3] + Dierckx v0.4.1
  Updating `/tmp/jl_Dh3enr/Manifest.toml`
  [39dd38d3] + Dierckx v0.4.1
  Building Dierckx → `~/.julia/packages/Dierckx/9SY4A/deps/build.log`
  Updating `/tmp/jl_ZThcL4/Project.toml`
 [no changes]
  Updating `/tmp/jl_ZThcL4/Manifest.toml`
 [no changes]
Running sandbox
Status `/tmp/jl_Dh3enr/Project.toml`
  [39dd38d3] Dierckx v0.4.1
  [7a1cc6ca] FFTW v1.2.0
  [5087d2c0] IncGammaBeta v0.1.0
  [2edaba10] Nemo v0.15.1
  [276daf66] SpecialFunctions v0.8.0
  [0dd23c3e] TwoFAST v0.1.0
  [8bb1440f] DelimitedFiles 
  [37e2e46d] LinearAlgebra 
  [56ddb016] Logging 
  [8dfed614] Test 

Welcome to Nemo version 0.15.1

Nemo comes with absolutely no warranty whatsoever


Welcome to Nemo version 0.15.1

Nemo comes with absolutely no warranty whatsoever

Testing ξ(r), ℓ=0, ν=-1 ... passed
Testing ξ(r), ℓ=0, ν=0 ... passed
Testing ξ(r), ℓ=0, ν=1 ... passed
Testing ξ(r), ℓ=0, ν=2 ... passed
Testing ξ(r), ℓ=0, ν=3 ... passed
Testing ξ(r), ℓ=1, ν=0 ... passed
Testing ξ(r), ℓ=1, ν=1 ... passed
Testing ξ(r), ℓ=1, ν=2 ... passed
Testing ξ(r), ℓ=1, ν=3 ... passed
Testing ξ(r), ℓ=2, ν=-1 ... passed
Testing ξ(r), ℓ=2, ν=0 ... passed
Testing ξ(r), ℓ=2, ν=1 ... passed
Testing ξ(r), ℓ=2, ν=2 ... passed
Testing ξ(r), ℓ=2, ν=3 ... passed
Testing ξ(r), ℓ=3, ν=-1 ... passed
Testing ξ(r), ℓ=3, ν=0 ... passed
Testing ξ(r), ℓ=3, ν=1 ... passed
Testing ξ(r), ℓ=3, ν=2 ... passed
Testing ξ(r), ℓ=3, ν=3 ... passed
Testing ξ(r), ℓ=4, ν=-1 ... passed
Testing ξ(r), ℓ=4, ν=0 ... passed
Testing ξ(r), ℓ=4, ν=1 ... passed
Testing ξ(r), ℓ=4, ν=2 ... passed
Testing ξ(r), ℓ=4, ν=3 ... passed
Testing ξ(r) ... passed
Testing ξ′(r) ... passed
Testing ξ″(r) ... passed
Calculating fmax: 
  dlrec    = 4
  dlrecRg1 = -4
  q=1.1, R=1.1:	  4.968542 seconds (1.20 M allocations: 67.955 MiB, 1.17% gc time)

  5.009937 seconds (1.22 M allocations: 69.065 MiB, 1.16% gc time)
ℓ = 1202
Δℓ = 4
ΔℓRg1 = -4
N = 1600
q = 1.1
kmin = 1.0e-5
kmax = 100000.00000000004
χ0 = 0.023029999999999995
RR = RR.tsv
ℓmax = ℓmax.bin
f21 = f21.bin
kmin = 1.0e-5
kmax = 100000.0
dlrec    = 4
dlrecRg1 = -4
Output size: 5741568 bytes = 0.005347251892089844 GiB
Output size: 51264 bytes = 4.774332046508789e-5 GiB
Reading 'out/F21EllCache'...   0.576386 seconds (318.67 k allocations: 16.382 MiB)
ellmax: 1202
lmaxcache: 1202
fell[:,1,1] = Complex{Float64}[3.9583795592771634e-52 - 9.695233714158177e-68im, 3.990121772925759e-52 - 9.772979714843386e-68im]
ell 1202, elapsed: 0.0002689361572265625
ell 1201, elapsed: 2.3503990173339844
ell 1200, elapsed: 0.0005700588226318359
ell 1199, elapsed: 0.0004911422729492188
ell 1198, elapsed: 0.00048804283142089844
ell 1002, elapsed: 0.009190082550048828
ell 1001, elapsed: 0.00047087669372558594
ell 1000, elapsed: 0.0005459785461425781
ell 999, elapsed: 0.0004630088806152344
ell 998, elapsed: 0.0004999637603759766
ell 902, elapsed: 0.010799884796142578
ell 901, elapsed: 0.0007348060607910156
ell 900, elapsed: 0.00045800209045410156
ell 899, elapsed: 0.00045490264892578125
ell 898, elapsed: 0.00045800209045410156
ell 802, elapsed: 0.005048990249633789
ell 801, elapsed: 0.00047898292541503906
ell 800, elapsed: 0.0004780292510986328
ell 799, elapsed: 0.0004589557647705078
ell 798, elapsed: 0.00045800209045410156
ell 702, elapsed: 0.004797935485839844
ell 701, elapsed: 0.00047206878662109375
ell 700, elapsed: 0.00045800209045410156
ell 699, elapsed: 0.00045990943908691406
ell 698, elapsed: 0.0005419254302978516
ell 602, elapsed: 0.004996061325073242
ell 601, elapsed: 0.00046706199645996094
ell 600, elapsed: 0.00045490264892578125
ell 599, elapsed: 0.0004601478576660156
ell 598, elapsed: 0.0004851818084716797
ell 502, elapsed: 0.0050029754638671875
ell 501, elapsed: 0.0004870891571044922
ell 500, elapsed: 0.00047588348388671875
ell 499, elapsed: 0.0004830360412597656
ell 498, elapsed: 0.0004851818084716797
ell 402, elapsed: 0.01772284507751465
ell 401, elapsed: 0.0005600452423095703
ell 400, elapsed: 0.0005381107330322266
ell 399, elapsed: 0.0004811286926269531
ell 398, elapsed: 0.0004730224609375
ell 302, elapsed: 0.004951000213623047
ell 301, elapsed: 0.0004940032958984375
ell 300, elapsed: 0.0006361007690429688
ell 299, elapsed: 0.0004630088806152344
ell 298, elapsed: 0.0004630088806152344
ell 202, elapsed: 0.004920005798339844
ell 201, elapsed: 0.0004699230194091797
ell 200, elapsed: 0.0004661083221435547
ell 199, elapsed: 0.0004639625549316406
ell 198, elapsed: 0.0005290508270263672
ell 152, elapsed: 0.0025320053100585938
ell 151, elapsed: 0.0004680156707763672
ell 150, elapsed: 0.0004630088806152344
ell 149, elapsed: 0.0005278587341308594
ell 148, elapsed: 0.0004680156707763672
ell 127, elapsed: 0.001499176025390625
ell 126, elapsed: 0.00047016143798828125
ell 125, elapsed: 0.0004639625549316406
ell 124, elapsed: 0.0004642009735107422
ell 123, elapsed: 0.0005559921264648438
ell 114, elapsed: 0.0008699893951416016
ell 113, elapsed: 0.0004649162292480469
ell 112, elapsed: 0.0004639625549316406
ell 111, elapsed: 0.0004639625549316406
ell 110, elapsed: 0.0004718303680419922
ell 102, elapsed: 0.0009899139404296875
ell 101, elapsed: 0.0004718303680419922
ell 100, elapsed: 0.0004680156707763672
ell 99, elapsed: 0.0004639625549316406
ell 98, elapsed: 0.00047707557678222656
ell 97, elapsed: 0.0005209445953369141
ell 96, elapsed: 0.0006220340728759766
ell 95, elapsed: 0.0005970001220703125
ell 94, elapsed: 0.0005908012390136719
ell 93, elapsed: 0.0005061626434326172
ell 92, elapsed: 0.0005710124969482422
ell 91, elapsed: 0.0005040168762207031
ell 90, elapsed: 0.0005939006805419922
ell 89, elapsed: 0.0005121231079101562
ell 88, elapsed: 0.0006470680236816406
ell 87, elapsed: 0.0005030632019042969
ell 86, elapsed: 0.0005750656127929688
ell 85, elapsed: 0.0005040168762207031
ell 84, elapsed: 0.0005788803100585938
ell 83, elapsed: 0.0005071163177490234
ell 82, elapsed: 0.0005710124969482422
ell 81, elapsed: 0.0005881786346435547
ell 80, elapsed: 0.0005800724029541016
ell 79, elapsed: 0.0005080699920654297
ell 78, elapsed: 0.0005781650543212891
ell 77, elapsed: 0.0005049705505371094
ell 76, elapsed: 0.0005731582641601562
ell 75, elapsed: 0.0005030632019042969
ell 74, elapsed: 0.000659942626953125
ell 73, elapsed: 0.0005002021789550781
ell 72, elapsed: 0.0005691051483154297
ell 71, elapsed: 0.0005128383636474609
ell 70, elapsed: 0.0005679130554199219
ell 69, elapsed: 0.0005030632019042969
ell 68, elapsed: 0.0005781650543212891
ell 67, elapsed: 0.0005869865417480469
ell 66, elapsed: 0.0005860328674316406
ell 65, elapsed: 0.0005049705505371094
ell 64, elapsed: 0.000576019287109375
ell 63, elapsed: 0.0005061626434326172
ell 62, elapsed: 0.0005769729614257812
ell 61, elapsed: 0.0005018711090087891
ell 60, elapsed: 0.0006568431854248047
ell 59, elapsed: 0.0005061626434326172
ell 58, elapsed: 0.0005791187286376953
ell 57, elapsed: 0.0005230903625488281
ell 56, elapsed: 0.0005910396575927734
ell 55, elapsed: 0.0005099773406982422
ell 54, elapsed: 0.0005731582641601562
ell 53, elapsed: 0.0005819797515869141
ell 52, elapsed: 0.0005898475646972656
ell 51, elapsed: 0.0005128383636474609
ell 50, elapsed: 0.0005848407745361328
ell 49, elapsed: 0.0004918575286865234
ell 48, elapsed: 0.0005650520324707031
ell 47, elapsed: 0.0005009174346923828
ell 46, elapsed: 0.0006699562072753906
ell 45, elapsed: 0.0005130767822265625
ell 44, elapsed: 0.0005781650543212891
ell 43, elapsed: 0.00048804283142089844
ell 42, elapsed: 0.0005819797515869141
ell 41, elapsed: 0.0005040168762207031
ell 40, elapsed: 0.0006139278411865234
ell 39, elapsed: 0.0005099773406982422
ell 38, elapsed: 0.0005879402160644531
ell 37, elapsed: 0.0005140304565429688
ell 36, elapsed: 0.0006010532379150391
ell 35, elapsed: 0.0005180835723876953
ell 34, elapsed: 0.0005869865417480469
ell 33, elapsed: 0.0005230903625488281
ell 32, elapsed: 0.0006008148193359375
ell 31, elapsed: 0.0005159378051757812
ell 30, elapsed: 0.0005941390991210938
ell 29, elapsed: 0.0005171298980712891
ell 28, elapsed: 0.0005970001220703125
ell 27, elapsed: 0.0005109310150146484
ell 26, elapsed: 0.0006730556488037109
ell 25, elapsed: 0.0005321502685546875
ell 24, elapsed: 0.0006580352783203125
ell 23, elapsed: 0.0005080699920654297
ell 22, elapsed: 0.0005860328674316406
ell 21, elapsed: 0.0005021095275878906
ell 20, elapsed: 0.0005838871002197266
ell 19, elapsed: 0.0006000995635986328
ell 18, elapsed: 0.0005841255187988281
ell 17, elapsed: 0.0005080699920654297
ell 16, elapsed: 0.0005910396575927734
ell 15, elapsed: 0.0005300045013427734
ell 14, elapsed: 0.0005850791931152344
ell 13, elapsed: 0.0005049705505371094
ell 12, elapsed: 0.0005879402160644531
ell 11, elapsed: 0.0005121231079101562
ell 10, elapsed: 0.0005950927734375
ell 9, elapsed: 0.0005130767822265625
ell 8, elapsed: 0.0005900859832763672
ell 7, elapsed: 0.0005068778991699219
ell 6, elapsed: 0.0006690025329589844
ell 5, elapsed: 0.0005090236663818359
ell 4, elapsed: 0.0005841255187988281
ell 3, elapsed: 0.0005021095275878906
ell 2, elapsed: 0.0005810260772705078
ell 1, elapsed: 0.0005030632019042969
ell 0, elapsed: 0.0005838871002197266
  3.223798 seconds (1.75 M allocations: 85.477 MiB, 0.73% gc time)
elapsed: 0.0009829998016357422
step:          0.834499 sec (402.561 k allocations: 20.278 MB, 0.0% gc time)
swapping:      0.000527 sec (0 allocations: 0 byte, 0.0% gc time)
calc_Mellell!: 0.5749 sec (296.399 k allocations: 14.958 MB, 0.0% gc time)
  t0 :  0.0 sec (0 allocations: 0 byte, 0.0% gc time)
  tm2 : 0.0 sec (0 allocations: 0 byte, 0.0% gc time)
  tm2s: 0.0 sec (0 allocations: 0 byte, 0.0% gc time)
  tm4 : 0.0 sec (0 allocations: 0 byte, 0.0% gc time)
  tp2 : 0.0 sec (0 allocations: 0 byte, 0.0% gc time)
  tp2s: 0.0 sec (0 allocations: 0 byte, 0.0% gc time)
  tp4 : 0.0 sec (0 allocations: 0 byte, 0.0% gc time)
calc_wtdll!:   1.082074 sec (525.859 k allocations: 26.376 MB, 2.16% gc time)
calc_wljj!:    0.003436 sec (6 allocations: 96 byte, 0.0% gc time)
mult_prefac!:  0.0 sec (0 allocations: 0 byte, 0.0% gc time)
convert:       0.0 sec (0 allocations: 0 byte, 0.0% gc time)
write:         0.004954 sec (0 allocations: 0 byte, 0.0% gc time)
test_rand_2f1: 0.0 sec (0 allocations: 0 byte, 0.0% gc time)
Closing outfile out/Ml21-cache.bin...   0.000121 seconds
  1.063383 seconds (8.66 k allocations: 420.969 KiB)
make_phi():   0.014953 seconds (8.20 k allocations: 238.016 KiB)
  0.264892 seconds (121.69 k allocations: 5.901 MiB)
tskip:       2.4e-5 sec (0 allocations: 0 byte, 0.0% gc time)
tread:       0.0026 sec (19 allocations: 2.172 KB, 0.0% gc time)
tmultphi:    0.045537 sec (26.022 k allocations: 1.338 MB, 0.0% gc time)
tbrfft:      0.004356 sec (896 allocations: 42.0 KB, 0.0% gc time)
tmultprefac: 0.003602 sec (0 allocations: 0 byte, 0.0% gc time)
toutfunc:    0.208687 sec (94.104 k allocations: 4.45 MB, 0.0% gc time)
Testing R=1.1 ... passed
Calculating fmax: 
  dlrec    = 4
  dlrecRg1 = -4
  q=1.1, R=1.0:	  0.001877 seconds (4.00 k allocations: 300.375 KiB)

  0.002165 seconds (4.04 k allocations: 335.062 KiB)
ℓ = 1202
Δℓ = 4
ΔℓRg1 = -4
N = 1600
q = 1.1
kmin = 1.0e-5
kmax = 100000.00000000004
χ0 = 0.023029999999999995
RR = RR.tsv
ℓmax = ℓmax.bin
f21 = f21.bin
kmin = 1.0e-5
kmax = 100000.0
dlrec    = 4
dlrecRg1 = -4
Output size: 61465536 bytes = 0.05724424123764038 GiB
Output size: 51264 bytes = 4.774332046508789e-5 GiB
Reading 'out/F21EllCache'...   0.001087 seconds (267 allocations: 84.656 KiB)
ellmax: 1202
lmaxcache: 1202
fell[:,1,1] = Complex{Float64}[809.6031528389767 - 1.9829558194077161e-13im, 0.0 + 0.0im]
ell 1202, elapsed: 2.5033950805664062e-5
ell 1201, elapsed: 0.01601386070251465
ell 1200, elapsed: 0.0004520416259765625
ell 1199, elapsed: 0.0003559589385986328
ell 1198, elapsed: 0.00035309791564941406
ell 1197, elapsed: 0.0004019737243652344
ell 1196, elapsed: 0.00039315223693847656
ell 1195, elapsed: 0.0006008148193359375
ell 1194, elapsed: 0.0005350112915039062
ell 1193, elapsed: 0.0005939006805419922
ell 1192, elapsed: 0.00038909912109375
ell 1191, elapsed: 0.000476837158203125
ell 1190, elapsed: 0.0003809928894042969
ell 1189, elapsed: 0.0004639625549316406
ell 1188, elapsed: 0.00038814544677734375
ell 1187, elapsed: 0.0005719661712646484
ell 1186, elapsed: 0.00038909912109375
ell 1185, elapsed: 0.00047206878662109375
ell 1184, elapsed: 0.000392913818359375
ell 1183, elapsed: 0.00047016143798828125
ell 1182, elapsed: 0.0003859996795654297
ell 1181, elapsed: 0.00047898292541503906
ell 1180, elapsed: 0.00039005279541015625
ell 1179, elapsed: 0.0004899501800537109
ell 1178, elapsed: 0.00038886070251464844
ell 1177, elapsed: 0.00047206878662109375
ell 1176, elapsed: 0.0003910064697265625
ell 1175, elapsed: 0.0004858970642089844
ell 1174, elapsed: 0.0003859996795654297
ell 1173, elapsed: 0.00047016143798828125
ell 1172, elapsed: 0.00039005279541015625
ell 1171, elapsed: 0.0004799365997314453
ell 1170, elapsed: 0.0006730556488037109
ell 1169, elapsed: 0.0005450248718261719
ell 1168, elapsed: 0.0003838539123535156
ell 1167, elapsed: 0.00047898292541503906
ell 1166, elapsed: 0.0003859996795654297
ell 1165, elapsed: 0.000469207763671875
ell 1164, elapsed: 0.0003871917724609375
ell 1163, elapsed: 0.0004680156707763672
ell 1162, elapsed: 0.0004811286926269531
ell 1161, elapsed: 0.00047898292541503906
ell 1160, elapsed: 0.0003879070281982422
ell 1159, elapsed: 0.00047516822814941406
ell 1158, elapsed: 0.00038909912109375
ell 1157, elapsed: 0.00047898292541503906
ell 1156, elapsed: 0.0003840923309326172
ell 1155, elapsed: 0.00047588348388671875
ell 1154, elapsed: 0.00048804283142089844
ell 1153, elapsed: 0.0004761219024658203
ell 1152, elapsed: 0.00039005279541015625
ell 1151, elapsed: 0.0004680156707763672
ell 1150, elapsed: 0.0003821849822998047
ell 1149, elapsed: 0.00047206878662109375
ell 1148, elapsed: 0.00041294097900390625
ell 1147, elapsed: 0.0004901885986328125
ell 1146, elapsed: 0.0004131793975830078
ell 1145, elapsed: 0.0005881786346435547
ell 1144, elapsed: 0.0004189014434814453
ell 1143, elapsed: 0.0004930496215820312
ell 1142, elapsed: 0.0003859996795654297
ell 1141, elapsed: 0.0004718303680419922
ell 1140, elapsed: 0.00039386749267578125
ell 1139, elapsed: 0.000476837158203125
ell 1138, elapsed: 0.00038814544677734375
ell 1137, elapsed: 0.0005691051483154297
ell 1136, elapsed: 0.00038909912109375
ell 1135, elapsed: 0.00047898292541503906
ell 1134, elapsed: 0.00039005279541015625
ell 1133, elapsed: 0.0004780292510986328
ell 1132, elapsed: 0.0003921985626220703
ell 1131, elapsed: 0.0005991458892822266
ell 1130, elapsed: 0.000614166259765625
ell 1129, elapsed: 0.0005271434783935547
ell 1128, elapsed: 0.0003819465637207031
ell 1127, elapsed: 0.0004680156707763672
ell 1126, elapsed: 0.0003781318664550781
ell 1125, elapsed: 0.00046706199645996094
ell 1124, elapsed: 0.0003790855407714844
ell 1123, elapsed: 0.0004730224609375
ell 1122, elapsed: 0.00038695335388183594
ell 1121, elapsed: 0.0005838871002197266
ell 1120, elapsed: 0.0003979206085205078
ell 1119, elapsed: 0.0004799365997314453
ell 1118, elapsed: 0.0003910064697265625
ell 1117, elapsed: 0.0004699230194091797
ell 1116, elapsed: 0.0003910064697265625
ell 1115, elapsed: 0.00046896934509277344
ell 1114, elapsed: 0.00038909912109375
ell 1113, elapsed: 0.0005750656127929688
ell 1112, elapsed: 0.0003910064697265625
ell 1111, elapsed: 0.0004601478576660156
ell 1110, elapsed: 0.00038313865661621094
ell 1109, elapsed: 0.00045609474182128906
ell 1108, elapsed: 0.00038313865661621094
ell 1107, elapsed: 0.0004780292510986328
ell 1106, elapsed: 0.0003788471221923828
ell 1105, elapsed: 0.000453948974609375
ell 1104, elapsed: 0.0004889965057373047
ell 1103, elapsed: 0.00047206878662109375
ell 1102, elapsed: 0.0005409717559814453
ell 1101, elapsed: 0.0005390644073486328
ell 1100, elapsed: 0.0004711151123046875
ell 1099, elapsed: 0.0007150173187255859
ell 1098, elapsed: 0.0004520416259765625
ell 1097, elapsed: 0.0006520748138427734
ell 1096, elapsed: 0.00032782554626464844
ell 1095, elapsed: 0.0003540515899658203
ell 1094, elapsed: 0.0002880096435546875
ell 1093, elapsed: 0.00034809112548828125
ell 1092, elapsed: 0.00028896331787109375
ell 1091, elapsed: 0.0003509521484375
ell 1090, elapsed: 0.00028705596923828125
ell 1089, elapsed: 0.0003440380096435547
ell 1088, elapsed: 0.00028705596923828125
ell 1087, elapsed: 0.00037598609924316406
ell 1086, elapsed: 0.0002930164337158203
ell 1085, elapsed: 0.0003459453582763672
ell 1084, elapsed: 0.00028896331787109375
ell 1083, elapsed: 0.0003478527069091797
ell 1082, elapsed: 0.0002880096435546875
ell 1081, elapsed: 0.0003437995910644531
ell 1080, elapsed: 0.000286102294921875
ell 1079, elapsed: 0.000347137451171875
ell 1078, elapsed: 0.00028896331787109375
ell 1077, elapsed: 0.00034499168395996094
ell 1076, elapsed: 0.00028896331787109375
ell 1075, elapsed: 0.0003790855407714844
ell 1074, elapsed: 0.0002880096435546875
ell 1073, elapsed: 0.00034999847412109375
ell 1072, elapsed: 0.000286102294921875
ell 1071, elapsed: 0.00034308433532714844
ell 1070, elapsed: 0.00028586387634277344
ell 1069, elapsed: 0.0003399848937988281
ell 1068, elapsed: 0.000286102294921875
ell 1067, elapsed: 0.00034499168395996094
ell 1066, elapsed: 0.0002899169921875
ell 1065, elapsed: 0.00034618377685546875
ell 1064, elapsed: 0.00032520294189453125
ell 1063, elapsed: 0.00035190582275390625
ell 1062, elapsed: 0.00028705596923828125
ell 1061, elapsed: 0.00034618377685546875
ell 1060, elapsed: 0.0002899169921875
ell 1059, elapsed: 0.0003409385681152344
ell 1058, elapsed: 0.00028586387634277344
ell 1057, elapsed: 0.0003459453582763672
ell 1056, elapsed: 0.00028705596923828125
ell 1055, elapsed: 0.00034499168395996094
ell 1054, elapsed: 0.0002880096435546875
ell 1053, elapsed: 0.004494190216064453
ell 1052, elapsed: 0.0004210472106933594
ell 1051, elapsed: 0.0005068778991699219
ell 1050, elapsed: 0.00038504600524902344
ell 1049, elapsed: 0.0004849433898925781
ell 1048, elapsed: 0.0004029273986816406
ell 1047, elapsed: 0.0004830360412597656
ell 1046, elapsed: 0.0003819465637207031
ell 1045, elapsed: 0.00046896934509277344
ell 1044, elapsed: 0.0004131793975830078
ell 1043, elapsed: 0.0004820823669433594
ell 1042, elapsed: 0.0003910064697265625
ell 1041, elapsed: 0.0004780292510986328
ell 1040, elapsed: 0.00040221214294433594
ell 1039, elapsed: 0.00048279762268066406
ell 1038, elapsed: 0.0003960132598876953
ell 1037, elapsed: 0.0004870891571044922
ell 1036, elapsed: 0.0004410743713378906
ell 1035, elapsed: 0.0004830360412597656
ell 1034, elapsed: 0.00039196014404296875
ell 1033, elapsed: 0.0004761219024658203
ell 1032, elapsed: 0.00038886070251464844
ell 1031, elapsed: 0.00046896934509277344
ell 1030, elapsed: 0.00038909912109375
ell 1029, elapsed: 0.0004839897155761719
ell 1028, elapsed: 0.0004169940948486328
ell 1027, elapsed: 0.0004968643188476562
ell 1026, elapsed: 0.0003948211669921875
ell 1025, elapsed: 0.00047707557678222656
ell 1024, elapsed: 0.0003941059112548828
ell 1023, elapsed: 0.0004749298095703125
ell 1022, elapsed: 0.0003859996795654297
ell 1021, elapsed: 0.0004711151123046875
ell 1020, elapsed: 0.0003859996795654297
ell 1019, elapsed: 0.0004918575286865234
ell 1018, elapsed: 0.0003979206085205078
ell 1017, elapsed: 0.0004839897155761719
ell 1016, elapsed: 0.00039386749267578125
ell 1015, elapsed: 0.0004820823669433594
ell 1014, elapsed: 0.0003921985626220703
ell 1013, elapsed: 0.0005030632019042969
ell 1012, elapsed: 0.00047588348388671875
ell 1011, elapsed: 0.0005421638488769531
ell 1010, elapsed: 0.00039005279541015625
ell 1009, elapsed: 0.0004699230194091797
ell 1008, elapsed: 0.0003819465637207031
ell 1007, elapsed: 0.0006890296936035156
ell 1006, elapsed: 0.0004589557647705078
ell 1005, elapsed: 0.0004839897155761719
ell 1004, elapsed: 0.00038909912109375
ell 1003, elapsed: 0.0005269050598144531
ell 1002, elapsed: 0.00038504600524902344
ell 1001, elapsed: 0.00046896934509277344
ell 1000, elapsed: 0.000392913818359375
ell 999, elapsed: 0.00046896934509277344
ell 998, elapsed: 0.00038695335388183594
ell 997, elapsed: 0.0004830360412597656
ell 996, elapsed: 0.00039196014404296875
ell 995, elapsed: 0.000553131103515625
ell 994, elapsed: 0.0003960132598876953
ell 993, elapsed: 0.0006661415100097656
ell 992, elapsed: 0.00045490264892578125
ell 991, elapsed: 0.00047898292541503906
ell 990, elapsed: 0.0003960132598876953
ell 989, elapsed: 0.0004799365997314453
ell 988, elapsed: 0.0004999637603759766
ell 987, elapsed: 0.0006020069122314453
ell 986, elapsed: 0.000392913818359375
ell 985, elapsed: 0.0004870891571044922
ell 984, elapsed: 0.00039505958557128906
ell 983, elapsed: 0.0006010532379150391
ell 982, elapsed: 0.0005099773406982422
ell 981, elapsed: 0.0007531642913818359
ell 980, elapsed: 0.0004780292510986328
ell 979, elapsed: 0.0004749298095703125
ell 978, elapsed: 0.0005321502685546875
ell 977, elapsed: 0.00055694580078125
ell 976, elapsed: 0.0005538463592529297
ell 975, elapsed: 0.0006470680236816406
ell 974, elapsed: 0.0004489421844482422
ell 973, elapsed: 0.0004801750183105469
ell 972, elapsed: 0.00039386749267578125
ell 971, elapsed: 0.0004711151123046875
ell 970, elapsed: 0.0005249977111816406
ell 969, elapsed: 0.0006501674652099609
ell 968, elapsed: 0.00045108795166015625
ell 967, elapsed: 0.0008261203765869141
ell 966, elapsed: 0.0005669593811035156
ell 965, elapsed: 0.000576019287109375
ell 964, elapsed: 0.0005180835723876953
ell 963, elapsed: 0.0006091594696044922
ell 962, elapsed: 0.0003941059112548828
ell 961, elapsed: 0.00047588348388671875
ell 960, elapsed: 0.0006170272827148438
ell 959, elapsed: 0.0006561279296875
ell 958, elapsed: 0.0005209445953369141
ell 957, elapsed: 0.0004811286926269531
ell 956, elapsed: 0.0003910064697265625
ell 955, elapsed: 0.0004820823669433594
ell 954, elapsed: 0.00038909912109375
ell 953, elapsed: 0.0004761219024658203
ell 952, elapsed: 0.0005750656127929688
ell 951, elapsed: 0.0005729198455810547
ell 950, elapsed: 0.0005359649658203125
ell 949, elapsed: 0.000579833984375
ell 948, elapsed: 0.0003910064697265625
ell 947, elapsed: 0.0006852149963378906
ell 946, elapsed: 0.0006148815155029297
ell 945, elapsed: 0.0005757808685302734
ell 944, elapsed: 0.000553131103515625
ell 943, elapsed: 0.0005838871002197266
ell 942, elapsed: 0.0005018711090087891
ell 941, elapsed: 0.0007379055023193359
ell 940, elapsed: 0.0005199909210205078
ell 939, elapsed: 0.0005309581756591797
ell 938, elapsed: 0.0005929470062255859
ell 937, elapsed: 0.0007410049438476562
ell 936, elapsed: 0.0006301403045654297
ell 935, elapsed: 0.0007481575012207031
ell 934, elapsed: 0.0006749629974365234
ell 933, elapsed: 0.0007460117340087891
ell 932, elapsed: 0.00061798095703125
ell 931, elapsed: 0.0006308555603027344
ell 930, elapsed: 0.0004730224609375
ell 929, elapsed: 0.0007491111755371094
ell 928, elapsed: 0.0006170272827148438
ell 927, elapsed: 0.0005660057067871094
ell 926, elapsed: 0.0005400180816650391
ell 925, elapsed: 0.0007200241088867188
ell 924, elapsed: 0.0006058216094970703
ell 923, elapsed: 0.0006668567657470703
ell 922, elapsed: 0.0004019737243652344
ell 921, elapsed: 0.0006489753723144531
ell 920, elapsed: 0.0005259513854980469
ell 919, elapsed: 0.0004718303680419922
ell 918, elapsed: 0.0003910064697265625
ell 917, elapsed: 0.0004749298095703125
ell 916, elapsed: 0.0005137920379638672
ell 915, elapsed: 0.0006167888641357422
ell 914, elapsed: 0.00039005279541015625
ell 913, elapsed: 0.00047016143798828125
ell 912, elapsed: 0.00039196014404296875
ell 911, elapsed: 0.0004749298095703125
ell 910, elapsed: 0.0005209445953369141
ell 909, elapsed: 0.0005719661712646484
ell 908, elapsed: 0.00038313865661621094
ell 907, elapsed: 0.0005679130554199219
ell 906, elapsed: 0.0003910064697265625
ell 905, elapsed: 0.0004820823669433594
ell 904, elapsed: 0.0003859996795654297
ell 903, elapsed: 0.0004749298095703125
ell 902, elapsed: 0.0003910064697265625
ell 901, elapsed: 0.00047397613525390625
ell 900, elapsed: 0.00038504600524902344
ell 899, elapsed: 0.00047397613525390625
ell 898, elapsed: 0.0004901885986328125
ell 897, elapsed: 0.0004799365997314453
ell 896, elapsed: 0.00038695335388183594
ell 895, elapsed: 0.0004761219024658203
ell 894, elapsed: 0.0005559921264648438
ell 893, elapsed: 0.0005440711975097656
ell 892, elapsed: 0.0003819465637207031
ell 891, elapsed: 0.0004699230194091797
ell 890, elapsed: 0.0004839897155761719
ell 889, elapsed: 0.00047779083251953125
ell 888, elapsed: 0.000392913818359375
ell 887, elapsed: 0.00046896934509277344
ell 886, elapsed: 0.00038814544677734375
ell 885, elapsed: 0.00047397613525390625
ell 884, elapsed: 0.0003910064697265625
ell 883, elapsed: 0.0004839897155761719
ell 882, elapsed: 0.0004858970642089844
ell 881, elapsed: 0.0004780292510986328
ell 880, elapsed: 0.00039005279541015625
ell 879, elapsed: 0.00046896934509277344
ell 878, elapsed: 0.0003819465637207031
ell 877, elapsed: 0.0005440711975097656
ell 876, elapsed: 0.0005450248718261719
ell 875, elapsed: 0.0004761219024658203
ell 874, elapsed: 0.0004930496215820312
ell 873, elapsed: 0.0004749298095703125
ell 872, elapsed: 0.0004999637603759766
ell 871, elapsed: 0.0006039142608642578
ell 870, elapsed: 0.00038695335388183594
ell 869, elapsed: 0.00047898292541503906
ell 868, elapsed: 0.00038886070251464844
ell 867, elapsed: 0.0004699230194091797
ell 866, elapsed: 0.0004839897155761719
ell 865, elapsed: 0.0004799365997314453
ell 864, elapsed: 0.00038504600524902344
ell 863, elapsed: 0.0004870891571044922
ell 862, elapsed: 0.0005180835723876953
ell 861, elapsed: 0.0007190704345703125
ell 860, elapsed: 0.00044417381286621094
ell 859, elapsed: 0.0005688667297363281
ell 858, elapsed: 0.0004000663757324219
ell 857, elapsed: 0.0004830360412597656
ell 856, elapsed: 0.0003898143768310547
ell 855, elapsed: 0.00047707557678222656
ell 854, elapsed: 0.0003829002380371094
ell 853, elapsed: 0.0006811618804931641
ell 852, elapsed: 0.0004398822784423828
ell 851, elapsed: 0.0007131099700927734
ell 850, elapsed: 0.000659942626953125
ell 849, elapsed: 0.0007669925689697266
ell 848, elapsed: 0.0006480216979980469
ell 847, elapsed: 0.0007719993591308594
ell 846, elapsed: 0.0006330013275146484
ell 845, elapsed: 0.0005538463592529297
ell 844, elapsed: 0.0005209445953369141
ell 843, elapsed: 0.0007038116455078125
ell 842, elapsed: 0.0005338191986083984
ell 841, elapsed: 0.0007030963897705078
ell 840, elapsed: 0.0006589889526367188
ell 839, elapsed: 0.0007550716400146484
ell 838, elapsed: 0.0005371570587158203
ell 837, elapsed: 0.0004911422729492188
ell 836, elapsed: 0.0004029273986816406
ell 835, elapsed: 0.0006389617919921875
ell 834, elapsed: 0.0006229877471923828
ell 833, elapsed: 0.0007688999176025391
ell 832, elapsed: 0.0006220340728759766
ell 831, elapsed: 0.0007319450378417969
ell 830, elapsed: 0.0006310939788818359
ell 829, elapsed: 0.0007309913635253906
ell 828, elapsed: 0.01669907569885254
ell 827, elapsed: 0.0008358955383300781
ell 826, elapsed: 0.0006749629974365234
ell 825, elapsed: 0.0007970333099365234
ell 824, elapsed: 0.0006659030914306641
ell 823, elapsed: 0.0008320808410644531
ell 822, elapsed: 0.0006678104400634766
ell 821, elapsed: 0.0007979869842529297
ell 820, elapsed: 0.0006670951843261719
ell 819, elapsed: 0.0007870197296142578
ell 818, elapsed: 0.0006871223449707031
ell 817, elapsed: 0.0007920265197753906
ell 816, elapsed: 0.0006620883941650391
ell 815, elapsed: 0.0007901191711425781
ell 814, elapsed: 0.0006618499755859375
ell 813, elapsed: 0.0008189678192138672
ell 812, elapsed: 0.0006659030914306641
ell 811, elapsed: 0.0007917881011962891
ell 810, elapsed: 0.0006611347198486328
ell 809, elapsed: 0.0007901191711425781
ell 808, elapsed: 0.016785860061645508
ell 807, elapsed: 0.0008192062377929688
ell 806, elapsed: 0.0006721019744873047
ell 805, elapsed: 0.0007970333099365234
ell 804, elapsed: 0.0006721019744873047
ell 803, elapsed: 0.0008330345153808594
ell 802, elapsed: 0.0006649494171142578
ell 801, elapsed: 0.0007879734039306641
ell 800, elapsed: 0.0006589889526367188
ell 799, elapsed: 0.0007848739624023438
ell 798, elapsed: 0.0006880760192871094
ell 797, elapsed: 0.0007941722869873047
ell 796, elapsed: 0.000659942626953125
ell 795, elapsed: 0.0007779598236083984
ell 794, elapsed: 0.0006558895111083984
ell 793, elapsed: 0.0007932186126708984
ell 792, elapsed: 0.0006809234619140625
ell 791, elapsed: 0.0007810592651367188
ell 790, elapsed: 0.0006608963012695312
ell 789, elapsed: 0.000782012939453125
ell 788, elapsed: 0.0006618499755859375
ell 787, elapsed: 0.016948938369750977
ell 786, elapsed: 0.0007090568542480469
ell 785, elapsed: 0.0008170604705810547
ell 784, elapsed: 0.0006680488586425781
ell 783, elapsed: 0.0008120536804199219
ell 782, elapsed: 0.0006730556488037109
ell 781, elapsed: 0.0008001327514648438
ell 780, elapsed: 0.0006639957427978516
ell 779, elapsed: 0.0007829666137695312
ell 778, elapsed: 0.0006628036499023438
ell 777, elapsed: 0.0008158683776855469
ell 776, elapsed: 0.0006601810455322266
ell 775, elapsed: 0.0007801055908203125
ell 774, elapsed: 0.0006608963012695312
ell 773, elapsed: 0.0007829666137695312
ell 772, elapsed: 0.0006799697875976562
ell 771, elapsed: 0.0007998943328857422
ell 770, elapsed: 0.0006639957427978516
ell 769, elapsed: 0.0007839202880859375
ell 768, elapsed: 0.0006577968597412109
ell 767, elapsed: 0.016691923141479492
ell 766, elapsed: 0.00043702125549316406
ell 765, elapsed: 0.0005178451538085938
ell 764, elapsed: 0.0004220008850097656
ell 763, elapsed: 0.0004940032958984375
ell 762, elapsed: 0.0004119873046875
ell 761, elapsed: 0.0004980564117431641
ell 760, elapsed: 0.00041413307189941406
ell 759, elapsed: 0.0005090236663818359
ell 758, elapsed: 0.0004119873046875
ell 757, elapsed: 0.00049591064453125
ell 756, elapsed: 0.00041604042053222656
ell 755, elapsed: 0.0004980564117431641
ell 754, elapsed: 0.00041985511779785156
ell 753, elapsed: 0.0004940032958984375
ell 752, elapsed: 0.0005421638488769531
ell 751, elapsed: 0.0007638931274414062
ell 750, elapsed: 0.0005049705505371094
ell 749, elapsed: 0.0004718303680419922
ell 748, elapsed: 0.0003941059112548828
ell 747, elapsed: 0.0004680156707763672
ell 746, elapsed: 0.0003960132598876953
ell 745, elapsed: 0.00047016143798828125
ell 744, elapsed: 0.00043702125549316406
ell 743, elapsed: 0.00067901611328125
ell 742, elapsed: 0.0005550384521484375
ell 741, elapsed: 0.00047016143798828125
ell 740, elapsed: 0.000392913818359375
ell 739, elapsed: 0.0004680156707763672
ell 738, elapsed: 0.00039196014404296875
ell 737, elapsed: 0.00046896934509277344
ell 736, elapsed: 0.016516923904418945
ell 735, elapsed: 0.0005381107330322266
ell 734, elapsed: 0.0004048347473144531
ell 733, elapsed: 0.0004870891571044922
ell 732, elapsed: 0.0003991127014160156
ell 731, elapsed: 0.0004820823669433594
ell 730, elapsed: 0.00040078163146972656
ell 729, elapsed: 0.00047206878662109375
ell 728, elapsed: 0.0005960464477539062
ell 727, elapsed: 0.0006461143493652344
ell 726, elapsed: 0.00041604042053222656
ell 725, elapsed: 0.0005009174346923828
ell 724, elapsed: 0.0004131793975830078
ell 723, elapsed: 0.0006787776947021484
ell 722, elapsed: 0.0004680156707763672
ell 721, elapsed: 0.0005118846893310547
ell 720, elapsed: 0.0003991127014160156
ell 719, elapsed: 0.00047707557678222656
ell 718, elapsed: 0.0003991127014160156
ell 717, elapsed: 0.0004830360412597656
ell 716, elapsed: 0.0004000663757324219
ell 715, elapsed: 0.0004780292510986328
ell 714, elapsed: 0.0005130767822265625
ell 713, elapsed: 0.0006539821624755859
ell 712, elapsed: 0.00039577484130859375
ell 711, elapsed: 0.0004870891571044922
ell 710, elapsed: 0.00039887428283691406
ell 709, elapsed: 0.0006890296936035156
ell 708, elapsed: 0.00047206878662109375
ell 707, elapsed: 0.0004830360412597656
ell 706, elapsed: 0.016556978225708008
ell 705, elapsed: 0.0005609989166259766
ell 704, elapsed: 0.0006048679351806641
ell 703, elapsed: 0.0005698204040527344
ell 702, elapsed: 0.00041794776916503906
ell 701, elapsed: 0.0005021095275878906
ell 700, elapsed: 0.0004107952117919922
ell 699, elapsed: 0.0005130767822265625
ell 698, elapsed: 0.00041294097900390625
ell 697, elapsed: 0.0004980564117431641
ell 696, elapsed: 0.0004119873046875
ell 695, elapsed: 0.0004930496215820312
ell 694, elapsed: 0.00041103363037109375
ell 693, elapsed: 0.0005009174346923828
ell 692, elapsed: 0.0006020069122314453
ell 691, elapsed: 0.0006349086761474609
ell 690, elapsed: 0.00039196014404296875
ell 689, elapsed: 0.00047016143798828125
ell 688, elapsed: 0.00039196014404296875
ell 687, elapsed: 0.0004680156707763672
ell 686, elapsed: 0.00039386749267578125
ell 685, elapsed: 0.0006730556488037109
ell 684, elapsed: 0.0005669593811035156
ell 683, elapsed: 0.0004909038543701172
ell 682, elapsed: 0.0003960132598876953
ell 681, elapsed: 0.0004730224609375
ell 680, elapsed: 0.0005779266357421875
ell 679, elapsed: 0.0006568431854248047
ell 678, elapsed: 0.0003960132598876953
ell 677, elapsed: 0.00047087669372558594
ell 676, elapsed: 0.01651597023010254
ell 675, elapsed: 0.0005249977111816406
ell 674, elapsed: 0.0003948211669921875
ell 673, elapsed: 0.0004730224609375
ell 672, elapsed: 0.00039315223693847656
ell 671, elapsed: 0.0006129741668701172
ell 670, elapsed: 0.0004811286926269531
ell 669, elapsed: 0.0004749298095703125
ell 668, elapsed: 0.0004220008850097656
ell 667, elapsed: 0.0004730224609375
ell 666, elapsed: 0.0003941059112548828
ell 665, elapsed: 0.00046706199645996094
ell 664, elapsed: 0.0005409717559814453
ell 663, elapsed: 0.0005991458892822266
ell 662, elapsed: 0.00039315223693847656
ell 661, elapsed: 0.00046896934509277344
ell 660, elapsed: 0.0004239082336425781
ell 659, elapsed: 0.00048804283142089844
ell 658, elapsed: 0.00039887428283691406
ell 657, elapsed: 0.0006840229034423828
ell 656, elapsed: 0.0005388259887695312
ell 655, elapsed: 0.00047707557678222656
ell 654, elapsed: 0.00039696693420410156
ell 653, elapsed: 0.0004990100860595703
ell 652, elapsed: 0.0003960132598876953
ell 651, elapsed: 0.0006909370422363281
ell 650, elapsed: 0.0004379749298095703
ell 649, elapsed: 0.0004761219024658203
ell 648, elapsed: 0.0003991127014160156
ell 647, elapsed: 0.0004699230194091797
ell 646, elapsed: 0.0005578994750976562
ell 645, elapsed: 0.012738943099975586
ell 644, elapsed: 0.0005638599395751953
ell 643, elapsed: 0.0007519721984863281
ell 642, elapsed: 0.0004401206970214844
ell 641, elapsed: 0.0004830360412597656
ell 640, elapsed: 0.0004930496215820312
ell 639, elapsed: 0.0006730556488037109
ell 638, elapsed: 0.0003960132598876953
ell 637, elapsed: 0.00047588348388671875
ell 636, elapsed: 0.00038695335388183594
ell 635, elapsed: 0.0006999969482421875
ell 634, elapsed: 0.00039196014404296875
ell 633, elapsed: 0.0007228851318359375
ell 632, elapsed: 0.000392913818359375
ell 631, elapsed: 0.00047516822814941406
ell 630, elapsed: 0.00039005279541015625
ell 629, elapsed: 0.0006210803985595703
ell 628, elapsed: 0.00045990943908691406
ell 627, elapsed: 0.0005781650543212891
ell 626, elapsed: 0.0005130767822265625
ell 625, elapsed: 0.0005719661712646484
ell 624, elapsed: 0.0006339550018310547
ell 623, elapsed: 0.0005459785461425781
ell 622, elapsed: 0.0005140304565429688
ell 621, elapsed: 0.0005848407745361328
ell 620, elapsed: 0.0003859996795654297
ell 619, elapsed: 0.0004680156707763672
ell 618, elapsed: 0.00038695335388183594
ell 617, elapsed: 0.0005118846893310547
ell 616, elapsed: 0.002101898193359375
ell 615, elapsed: 0.0005199909210205078
ell 614, elapsed: 0.0005500316619873047
ell 613, elapsed: 0.0005888938903808594
ell 612, elapsed: 0.0004508495330810547
ell 611, elapsed: 0.0006389617919921875
ell 610, elapsed: 0.00039505958557128906
ell 609, elapsed: 0.00047707557678222656
ell 608, elapsed: 0.0005409717559814453
ell 607, elapsed: 0.000682830810546875
ell 606, elapsed: 0.0004642009735107422
ell 605, elapsed: 0.01682114601135254
ell 604, elapsed: 0.0005698204040527344
ell 603, elapsed: 0.0007269382476806641
ell 602, elapsed: 0.0004398822784423828
ell 601, elapsed: 0.0006649494171142578
ell 600, elapsed: 0.0007700920104980469
ell 599, elapsed: 0.0005769729614257812
ell 598, elapsed: 0.0005469322204589844
ell 597, elapsed: 0.0007860660552978516
ell 596, elapsed: 0.0006129741668701172
ell 595, elapsed: 0.0007441043853759766
ell 594, elapsed: 0.0005109310150146484
ell 593, elapsed: 0.0006260871887207031
ell 592, elapsed: 0.0006039142608642578
ell 591, elapsed: 0.0007119178771972656
ell 590, elapsed: 0.0006060600280761719
ell 589, elapsed: 0.0037200450897216797
ell 588, elapsed: 0.0005619525909423828
ell 587, elapsed: 0.0006308555603027344
ell 586, elapsed: 0.0004851818084716797
ell 585, elapsed: 0.000637054443359375
ell 584, elapsed: 0.0005218982696533203
ell 583, elapsed: 0.0007240772247314453
ell 582, elapsed: 0.0006060600280761719
ell 581, elapsed: 0.0008571147918701172
ell 580, elapsed: 0.0005061626434326172
ell 579, elapsed: 0.0006558895111083984
ell 578, elapsed: 0.0006010532379150391
ell 577, elapsed: 0.0007071495056152344
ell 576, elapsed: 0.0005788803100585938
ell 575, elapsed: 0.0008320808410644531
ell 574, elapsed: 0.00047206878662109375
ell 573, elapsed: 0.0006728172302246094
ell 572, elapsed: 0.0006079673767089844
ell 571, elapsed: 0.0007150173187255859
ell 570, elapsed: 0.0006048679351806641
ell 569, elapsed: 0.0007319450378417969
ell 568, elapsed: 0.00047278404235839844
ell 567, elapsed: 0.00057220458984375
ell 566, elapsed: 0.0005340576171875
ell 565, elapsed: 0.0006399154663085938
ell 564, elapsed: 0.0005180835723876953
ell 563, elapsed: 0.00047588348388671875
ell 562, elapsed: 0.00036907196044921875
ell 561, elapsed: 0.0005688667297363281
ell 560, elapsed: 0.0005009174346923828
ell 559, elapsed: 0.0004630088806152344
ell 558, elapsed: 0.00039005279541015625
ell 557, elapsed: 0.00047397613525390625
ell 556, elapsed: 0.0004930496215820312
ell 555, elapsed: 0.0007410049438476562
ell 554, elapsed: 0.0005719661712646484
ell 553, elapsed: 0.0007259845733642578
ell 552, elapsed: 0.0004649162292480469
ell 551, elapsed: 0.0006668567657470703
ell 550, elapsed: 0.000492095947265625
ell 549, elapsed: 0.0006680488586425781
ell 548, elapsed: 0.0004570484161376953
ell 547, elapsed: 0.0004658699035644531
ell 546, elapsed: 0.0004639625549316406
ell 545, elapsed: 0.0006380081176757812
ell 544, elapsed: 0.00039196014404296875
ell 543, elapsed: 0.0006539821624755859
ell 542, elapsed: 0.0007700920104980469
ell 541, elapsed: 0.0007309913635253906
ell 540, elapsed: 0.0006508827209472656
ell 539, elapsed: 0.0007879734039306641
ell 538, elapsed: 0.0006420612335205078
ell 537, elapsed: 0.0007162094116210938
ell 536, elapsed: 0.0006120204925537109
ell 535, elapsed: 0.0007090568542480469
ell 534, elapsed: 0.0004558563232421875
ell 533, elapsed: 0.0006749629974365234
ell 532, elapsed: 0.00045800209045410156
ell 531, elapsed: 0.0006699562072753906
ell 530, elapsed: 0.000659942626953125
ell 529, elapsed: 0.0006070137023925781
ell 528, elapsed: 0.0006148815155029297
ell 527, elapsed: 0.0007119178771972656
ell 526, elapsed: 0.0005600452423095703
ell 525, elapsed: 0.0006010532379150391
ell 524, elapsed: 0.0005960464477539062
ell 523, elapsed: 0.0006251335144042969
ell 522, elapsed: 0.0006048679351806641
ell 521, elapsed: 0.0007879734039306641
ell 520, elapsed: 0.0005409717559814453
ell 519, elapsed: 0.0006279945373535156
ell 518, elapsed: 0.0006248950958251953
ell 517, elapsed: 0.0008330345153808594
ell 516, elapsed: 0.00061798095703125
ell 515, elapsed: 0.0005979537963867188
ell 514, elapsed: 0.0005338191986083984
ell 513, elapsed: 0.0007059574127197266
ell 512, elapsed: 0.0006189346313476562
ell 511, elapsed: 0.0006520748138427734
ell 510, elapsed: 0.0005650520324707031
ell 509, elapsed: 0.0007219314575195312
ell 508, elapsed: 0.0005199909210205078
ell 507, elapsed: 0.0006999969482421875
ell 506, elapsed: 0.0005998611450195312
ell 505, elapsed: 0.0007069110870361328
ell 504, elapsed: 0.0006010532379150391
ell 503, elapsed: 0.0007030963897705078
ell 502, elapsed: 0.0004780292510986328
ell 501, elapsed: 0.0004589557647705078
ell 500, elapsed: 0.00046896934509277344
ell 499, elapsed: 0.0006558895111083984
ell 498, elapsed: 0.0005478858947753906
ell 497, elapsed: 0.0007059574127197266
ell 496, elapsed: 0.0005869865417480469
ell 495, elapsed: 0.0005481243133544922
ell 494, elapsed: 0.0006239414215087891
ell 493, elapsed: 0.0007178783416748047
ell 492, elapsed: 0.0005538463592529297
ell 491, elapsed: 0.0007088184356689453
ell 490, elapsed: 0.0005390644073486328
ell 489, elapsed: 0.0007169246673583984
ell 488, elapsed: 0.0005810260772705078
ell 487, elapsed: 0.0006771087646484375
ell 486, elapsed: 0.0005929470062255859
ell 485, elapsed: 0.0006990432739257812
ell 484, elapsed: 0.0005960464477539062
ell 483, elapsed: 0.0007109642028808594
ell 482, elapsed: 0.0006098747253417969
ell 481, elapsed: 0.0007078647613525391
ell 480, elapsed: 0.00047397613525390625
ell 479, elapsed: 0.0006468296051025391
ell 478, elapsed: 0.0005080699920654297
ell 477, elapsed: 0.0005650520324707031
ell 476, elapsed: 0.0006220340728759766
ell 475, elapsed: 0.0007028579711914062
ell 474, elapsed: 0.0005311965942382812
ell 473, elapsed: 0.00055694580078125
ell 472, elapsed: 0.0005991458892822266
ell 471, elapsed: 0.0006489753723144531
ell 470, elapsed: 0.0005590915679931641
ell 469, elapsed: 0.0007159709930419922
ell 468, elapsed: 0.0005278587341308594
ell 467, elapsed: 0.0007200241088867188
ell 466, elapsed: 0.0005941390991210938
ell 465, elapsed: 0.0007109642028808594
ell 464, elapsed: 0.0007140636444091797
ell 463, elapsed: 0.0007100105285644531
ell 462, elapsed: 0.00047206878662109375
ell 461, elapsed: 0.0006699562072753906
ell 460, elapsed: 0.0006020069122314453
ell 459, elapsed: 0.0008139610290527344
ell 458, elapsed: 0.0005240440368652344
ell 457, elapsed: 0.0007150173187255859
ell 456, elapsed: 0.0005981922149658203
ell 455, elapsed: 0.0007169246673583984
ell 454, elapsed: 0.0004830360412597656
ell 453, elapsed: 0.0007739067077636719
ell 452, elapsed: 0.0005688667297363281
ell 451, elapsed: 0.0007250308990478516
ell 450, elapsed: 0.0005970001220703125
ell 449, elapsed: 0.0007109642028808594
ell 448, elapsed: 0.0005979537963867188
ell 447, elapsed: 0.0007488727569580078
ell 446, elapsed: 0.0005390644073486328
ell 445, elapsed: 0.0007140636444091797
ell 444, elapsed: 0.0005409717559814453
ell 443, elapsed: 0.0007250308990478516
ell 442, elapsed: 0.0006039142608642578
ell 441, elapsed: 0.0007700920104980469
ell 440, elapsed: 0.0006008148193359375
ell 439, elapsed: 0.0005691051483154297
ell 438, elapsed: 0.0005331039428710938
ell 437, elapsed: 0.0007159709930419922
ell 436, elapsed: 0.0005390644073486328
ell 435, elapsed: 0.0006539821624755859
ell 434, elapsed: 0.000598907470703125
ell 433, elapsed: 0.0005900859832763672
ell 432, elapsed: 0.0005261898040771484
ell 431, elapsed: 0.00061798095703125
ell 430, elapsed: 0.0004799365997314453
ell 429, elapsed: 0.0007390975952148438
ell 428, elapsed: 0.000514984130859375
ell 427, elapsed: 0.0006570816040039062
ell 426, elapsed: 0.0006020069122314453
ell 425, elapsed: 0.0006399154663085938
ell 424, elapsed: 0.0005650520324707031
ell 423, elapsed: 0.0007548332214355469
ell 422, elapsed: 0.0005960464477539062
ell 421, elapsed: 0.0007200241088867188
ell 420, elapsed: 0.0004489421844482422
ell 419, elapsed: 0.0006308555603027344
ell 418, elapsed: 0.0006010532379150391
ell 417, elapsed: 0.0007331371307373047
ell 416, elapsed: 0.0005879402160644531
ell 415, elapsed: 0.0007040500640869141
ell 414, elapsed: 0.0005249977111816406
ell 413, elapsed: 0.0004661083221435547
ell 412, elapsed: 0.0005140304565429688
ell 411, elapsed: 0.0007121562957763672
ell 410, elapsed: 0.0004429817199707031
ell 409, elapsed: 0.0006499290466308594
ell 408, elapsed: 0.0006029605865478516
ell 407, elapsed: 0.0006399154663085938
ell 406, elapsed: 0.0005338191986083984
ell 405, elapsed: 0.0007140636444091797
ell 404, elapsed: 0.0006158351898193359
ell 403, elapsed: 0.0007150173187255859
ell 402, elapsed: 0.0005960464477539062
ell 401, elapsed: 0.0007259845733642578
ell 400, elapsed: 0.0005841255187988281
ell 399, elapsed: 0.0007340908050537109
ell 398, elapsed: 0.0005130767822265625
ell 397, elapsed: 0.0006740093231201172
ell 396, elapsed: 0.0006039142608642578
ell 395, elapsed: 0.0007059574127197266
ell 394, elapsed: 0.0005891323089599609
ell 393, elapsed: 0.0007150173187255859
ell 392, elapsed: 0.0006029605865478516
ell 391, elapsed: 0.0007119178771972656
ell 390, elapsed: 0.0006039142608642578
ell 389, elapsed: 0.0007119178771972656
ell 388, elapsed: 0.0004730224609375
ell 387, elapsed: 0.0005707740783691406
ell 386, elapsed: 0.0006117820739746094
ell 385, elapsed: 0.0007290840148925781
ell 384, elapsed: 0.0005099773406982422
ell 383, elapsed: 0.0006549358367919922
ell 382, elapsed: 0.0006051063537597656
ell 381, elapsed: 0.0007491111755371094
ell 380, elapsed: 0.0005538463592529297
ell 379, elapsed: 0.0007178783416748047
ell 378, elapsed: 0.0005960464477539062
ell 377, elapsed: 0.0007109642028808594
ell 376, elapsed: 0.0005168914794921875
ell 375, elapsed: 0.0006399154663085938
ell 374, elapsed: 0.0005850791931152344
ell 373, elapsed: 0.0006098747253417969
ell 372, elapsed: 0.0005419254302978516
ell 371, elapsed: 0.0005929470062255859
ell 370, elapsed: 0.000476837158203125
ell 369, elapsed: 0.000823974609375
ell 368, elapsed: 0.0004668235778808594
ell 367, elapsed: 0.0006680488586425781
ell 366, elapsed: 0.0006039142608642578
ell 365, elapsed: 0.0007219314575195312
ell 364, elapsed: 0.0005769729614257812
ell 363, elapsed: 0.000823974609375
ell 362, elapsed: 0.0005879402160644531
ell 361, elapsed: 0.0006530284881591797
ell 360, elapsed: 0.0004858970642089844
ell 359, elapsed: 0.0007319450378417969
ell 358, elapsed: 0.0005910396575927734
ell 357, elapsed: 0.0008459091186523438
ell 356, elapsed: 0.0006070137023925781
ell 355, elapsed: 0.0007178783416748047
ell 354, elapsed: 0.0005960464477539062
ell 353, elapsed: 0.0007190704345703125
ell 352, elapsed: 0.0005338191986083984
ell 351, elapsed: 0.0007250308990478516
ell 350, elapsed: 0.0005929470062255859
ell 349, elapsed: 0.0005819797515869141
ell 348, elapsed: 0.0005481243133544922
ell 347, elapsed: 0.0007250308990478516
ell 346, elapsed: 0.0005240440368652344
ell 345, elapsed: 0.0007700920104980469
ell 344, elapsed: 0.0006101131439208984
ell 343, elapsed: 0.0007269382476806641
ell 342, elapsed: 0.0005280971527099609
ell 341, elapsed: 0.0004749298095703125
ell 340, elapsed: 0.0003840923309326172
ell 339, elapsed: 0.0005691051483154297
ell 338, elapsed: 0.0005538463592529297
ell 337, elapsed: 0.0007460117340087891
ell 336, elapsed: 0.0005619525909423828
ell 335, elapsed: 0.0007181167602539062
ell 334, elapsed: 0.0005271434783935547
ell 333, elapsed: 0.0008308887481689453
ell 332, elapsed: 0.0004978179931640625
ell 331, elapsed: 0.00047397613525390625
ell 330, elapsed: 0.0005500316619873047
ell 329, elapsed: 0.0007219314575195312
ell 328, elapsed: 0.0004820823669433594
ell 327, elapsed: 0.0006709098815917969
ell 326, elapsed: 0.0006260871887207031
ell 325, elapsed: 0.0007269382476806641
ell 324, elapsed: 0.0005979537963867188
ell 323, elapsed: 0.0007259845733642578
ell 322, elapsed: 0.0006060600280761719
ell 321, elapsed: 0.0008320808410644531
ell 320, elapsed: 0.00045800209045410156
ell 319, elapsed: 0.00061798095703125
ell 318, elapsed: 0.0004851818084716797
ell 317, elapsed: 0.00047516822814941406
ell 316, elapsed: 0.0005300045013427734
ell 315, elapsed: 0.0007269382476806641
ell 314, elapsed: 0.0005660057067871094
ell 313, elapsed: 0.0007250308990478516
ell 312, elapsed: 0.0004940032958984375
ell 311, elapsed: 0.0006330013275146484
ell 310, elapsed: 0.0006070137023925781
ell 309, elapsed: 0.0008230209350585938
ell 308, elapsed: 0.0006039142608642578
ell 307, elapsed: 0.0007259845733642578
ell 306, elapsed: 0.000598907470703125
ell 305, elapsed: 0.0007169246673583984
ell 304, elapsed: 0.0005850791931152344
ell 303, elapsed: 0.0008418560028076172
ell 302, elapsed: 0.0005021095275878906
ell 301, elapsed: 0.0006349086761474609
ell 300, elapsed: 0.0006041526794433594
ell 299, elapsed: 0.0007240772247314453
ell 298, elapsed: 0.0006029605865478516
ell 297, elapsed: 0.0008351802825927734
ell 296, elapsed: 0.0006029605865478516
ell 295, elapsed: 0.0007150173187255859
ell 294, elapsed: 0.0005919933319091797
ell 293, elapsed: 0.0007228851318359375
ell 292, elapsed: 0.0006999969482421875
ell 291, elapsed: 0.0006060600280761719
ell 290, elapsed: 0.0005211830139160156
ell 289, elapsed: 0.0007228851318359375
ell 288, elapsed: 0.0005710124969482422
ell 287, elapsed: 0.000720977783203125
ell 286, elapsed: 0.0007059574127197266
ell 285, elapsed: 0.0007297992706298828
ell 284, elapsed: 0.0005970001220703125
ell 283, elapsed: 0.0007069110870361328
ell 282, elapsed: 0.0005979537963867188
ell 281, elapsed: 0.0008299350738525391
ell 280, elapsed: 0.0004611015319824219
ell 279, elapsed: 0.000659942626953125
ell 278, elapsed: 0.0006039142608642578
ell 277, elapsed: 0.0007131099700927734
ell 276, elapsed: 0.000514984130859375
ell 275, elapsed: 0.0007660388946533203
ell 274, elapsed: 0.0004899501800537109
ell 273, elapsed: 0.0005900859832763672
ell 272, elapsed: 0.0006110668182373047
ell 271, elapsed: 0.0007429122924804688
ell 270, elapsed: 0.000537872314453125
ell 269, elapsed: 0.0006220340728759766
ell 268, elapsed: 0.0004858970642089844
ell 267, elapsed: 0.000640869140625
ell 266, elapsed: 0.0005588531494140625
ell 265, elapsed: 0.000576019287109375
ell 264, elapsed: 0.0004730224609375
ell 263, elapsed: 0.0006439685821533203
ell 262, elapsed: 0.00047397613525390625
ell 261, elapsed: 0.00047397613525390625
ell 260, elapsed: 0.0005009174346923828
ell 259, elapsed: 0.0007381439208984375
ell 258, elapsed: 0.0006082057952880859
ell 257, elapsed: 0.0007190704345703125
ell 256, elapsed: 0.0004870891571044922
ell 255, elapsed: 0.0006058216094970703
ell 254, elapsed: 0.0004978179931640625
ell 253, elapsed: 0.000476837158203125
ell 252, elapsed: 0.00038886070251464844
ell 251, elapsed: 0.0005750656127929688
ell 250, elapsed: 0.0005190372467041016
ell 249, elapsed: 0.0004811286926269531
ell 248, elapsed: 0.0005340576171875
ell 247, elapsed: 0.0006480216979980469
ell 246, elapsed: 0.0004918575286865234
ell 245, elapsed: 0.0007350444793701172
ell 244, elapsed: 0.0004878044128417969
ell 243, elapsed: 0.0005998611450195312
ell 242, elapsed: 0.0005841255187988281
ell 241, elapsed: 0.0006501674652099609
ell 240, elapsed: 0.0005311965942382812
ell 239, elapsed: 0.0007300376892089844
ell 238, elapsed: 0.00047588348388671875
ell 237, elapsed: 0.0006651878356933594
ell 236, elapsed: 0.0005869865417480469
ell 235, elapsed: 0.0006430149078369141
ell 234, elapsed: 0.00043702125549316406
ell 233, elapsed: 0.0006611347198486328
ell 232, elapsed: 0.0005979537963867188
ell 231, elapsed: 0.0007381439208984375
ell 230, elapsed: 0.00047016143798828125
ell 229, elapsed: 0.0005099773406982422
ell 228, elapsed: 0.00029015541076660156
ell 227, elapsed: 0.0003509521484375
ell 226, elapsed: 0.0002868175506591797
ell 225, elapsed: 0.000347137451171875
ell 224, elapsed: 0.0002880096435546875
ell 223, elapsed: 0.00034618377685546875
ell 222, elapsed: 0.0002880096435546875
ell 221, elapsed: 0.0003428459167480469
ell 220, elapsed: 0.0002911090850830078
ell 219, elapsed: 0.00039005279541015625
ell 218, elapsed: 0.0005829334259033203
ell 217, elapsed: 0.0007541179656982422
ell 216, elapsed: 0.0006070137023925781
ell 215, elapsed: 0.0007619857788085938
ell 214, elapsed: 0.0006279945373535156
ell 213, elapsed: 0.0007550716400146484
ell 212, elapsed: 0.0006120204925537109
ell 211, elapsed: 0.0007131099700927734
ell 210, elapsed: 0.0006048679351806641
ell 209, elapsed: 0.0007419586181640625
ell 208, elapsed: 0.0006330013275146484
ell 207, elapsed: 0.0007309913635253906
ell 206, elapsed: 0.0006229877471923828
ell 205, elapsed: 0.0007388591766357422
ell 204, elapsed: 0.0006029605865478516
ell 203, elapsed: 0.0007309913635253906
ell 202, elapsed: 0.015295982360839844
ell 201, elapsed: 0.000537872314453125
ell 200, elapsed: 0.0004520416259765625
ell 199, elapsed: 0.0011551380157470703
ell 198, elapsed: 0.0003960132598876953
ell 197, elapsed: 0.0004980564117431641
ell 196, elapsed: 0.0003979206085205078
ell 195, elapsed: 0.00048804283142089844
ell 194, elapsed: 0.0005991458892822266
ell 193, elapsed: 0.00049591064453125
ell 192, elapsed: 0.0003948211669921875
ell 191, elapsed: 0.0006239414215087891
ell 190, elapsed: 0.00061798095703125
ell 189, elapsed: 0.0006320476531982422
ell 188, elapsed: 0.0003972053527832031
ell 187, elapsed: 0.0005919933319091797
ell 186, elapsed: 0.0005390644073486328
ell 185, elapsed: 0.0004851818084716797
ell 184, elapsed: 0.0003960132598876953
ell 183, elapsed: 0.0005900859832763672
ell 182, elapsed: 0.000392913818359375
ell 181, elapsed: 0.0004930496215820312
ell 180, elapsed: 0.0004780292510986328
ell 179, elapsed: 0.0005009174346923828
ell 178, elapsed: 0.0003879070281982422
ell 177, elapsed: 0.0004940032958984375
ell 176, elapsed: 0.00039196014404296875
ell 175, elapsed: 0.0004940032958984375
ell 174, elapsed: 0.0004792213439941406
ell 173, elapsed: 0.0004780292510986328
ell 172, elapsed: 0.00039696693420410156
ell 171, elapsed: 0.0005009174346923828
ell 170, elapsed: 0.00039315223693847656
ell 169, elapsed: 0.0004889965057373047
ell 168, elapsed: 0.00038909912109375
ell 167, elapsed: 0.00047779083251953125
ell 166, elapsed: 0.000392913818359375
ell 165, elapsed: 0.0006630420684814453
ell 164, elapsed: 0.0003921985626220703
ell 163, elapsed: 0.0006420612335205078
ell 162, elapsed: 0.0003910064697265625
ell 161, elapsed: 0.0004811286926269531
ell 160, elapsed: 0.0003948211669921875
ell 159, elapsed: 0.00048804283142089844
ell 158, elapsed: 0.0005049705505371094
ell 157, elapsed: 0.0004820823669433594
ell 156, elapsed: 0.0003960132598876953
ell 155, elapsed: 0.0004980564117431641
ell 154, elapsed: 0.00039696693420410156
ell 153, elapsed: 0.00047898292541503906
ell 152, elapsed: 0.00039505958557128906
ell 151, elapsed: 0.0004820823669433594
ell 150, elapsed: 0.00039505958557128906
ell 149, elapsed: 0.0004839897155761719
ell 148, elapsed: 0.00039696693420410156
ell 147, elapsed: 0.0006959438323974609
ell 146, elapsed: 0.0003960132598876953
ell 145, elapsed: 0.0004858970642089844
ell 144, elapsed: 0.0003948211669921875
ell 143, elapsed: 0.0007050037384033203
ell 142, elapsed: 0.0004050731658935547
ell 141, elapsed: 0.0004839897155761719
ell 140, elapsed: 0.00039505958557128906
ell 139, elapsed: 0.0004999637603759766
ell 138, elapsed: 0.0003910064697265625
ell 137, elapsed: 0.0008640289306640625
ell 136, elapsed: 0.0003910064697265625
ell 135, elapsed: 0.00047898292541503906
ell 134, elapsed: 0.00038909912109375
ell 133, elapsed: 0.0004839897155761719
ell 132, elapsed: 0.00044918060302734375
ell 131, elapsed: 0.00061798095703125
ell 130, elapsed: 0.0004830360412597656
ell 129, elapsed: 0.0004811286926269531
ell 128, elapsed: 0.0003979206085205078
ell 127, elapsed: 0.0004839897155761719
ell 126, elapsed: 0.0003960132598876953
ell 125, elapsed: 0.0007839202880859375
ell 124, elapsed: 0.0006349086761474609
ell 123, elapsed: 0.0007631778717041016
ell 122, elapsed: 0.0006110668182373047
ell 121, elapsed: 0.0007560253143310547
ell 120, elapsed: 0.000640869140625
ell 119, elapsed: 0.0007560253143310547
ell 118, elapsed: 0.0006170272827148438
ell 117, elapsed: 0.0007581710815429688
ell 116, elapsed: 0.0005438327789306641
ell 115, elapsed: 0.000762939453125
ell 114, elapsed: 0.0004699230194091797
ell 113, elapsed: 0.0006439685821533203
ell 112, elapsed: 0.0004761219024658203
ell 111, elapsed: 0.0004849433898925781
ell 110, elapsed: 0.0003910064697265625
ell 109, elapsed: 0.00047898292541503906
ell 108, elapsed: 0.0004038810729980469
ell 107, elapsed: 0.0004761219024658203
ell 106, elapsed: 0.00039005279541015625
ell 105, elapsed: 0.0004911422729492188
ell 104, elapsed: 0.00039315223693847656
ell 103, elapsed: 0.0005948543548583984
ell 102, elapsed: 0.0005087852478027344
ell 101, elapsed: 0.0006909370422363281
ell 100, elapsed: 0.0004429817199707031
ell 99, elapsed: 0.0004911422729492188
ell 98, elapsed: 0.0003960132598876953
ell 97, elapsed: 0.0005049705505371094
ell 96, elapsed: 0.0004830360412597656
ell 95, elapsed: 0.0006520748138427734
ell 94, elapsed: 0.00039386749267578125
ell 93, elapsed: 0.0004971027374267578
ell 92, elapsed: 0.0003941059112548828
ell 91, elapsed: 0.0004909038543701172
ell 90, elapsed: 0.0005419254302978516
ell 89, elapsed: 0.0006189346313476562
ell 88, elapsed: 0.0003960132598876953
ell 87, elapsed: 0.0004820823669433594
ell 86, elapsed: 0.00039505958557128906
ell 85, elapsed: 0.0005018711090087891
ell 84, elapsed: 0.00039005279541015625
ell 83, elapsed: 0.0005860328674316406
ell 82, elapsed: 0.0005259513854980469
ell 81, elapsed: 0.0006730556488037109
ell 80, elapsed: 0.0005021095275878906
ell 79, elapsed: 0.00048089027404785156
ell 78, elapsed: 0.0003910064697265625
ell 77, elapsed: 0.0004792213439941406
ell 76, elapsed: 0.0005719661712646484
ell 75, elapsed: 0.00067901611328125
ell 74, elapsed: 0.0005409717559814453
ell 73, elapsed: 0.0005891323089599609
ell 72, elapsed: 0.0003979206085205078
ell 71, elapsed: 0.000469207763671875
ell 70, elapsed: 0.0003879070281982422
ell 69, elapsed: 0.0004680156707763672
ell 68, elapsed: 0.0005578994750976562
ell 67, elapsed: 0.0007388591766357422
ell 66, elapsed: 0.0006279945373535156
ell 65, elapsed: 0.0005629062652587891
ell 64, elapsed: 0.0004000663757324219
ell 63, elapsed: 0.00048089027404785156
ell 62, elapsed: 0.0003960132598876953
ell 61, elapsed: 0.0004830360412597656
ell 60, elapsed: 0.00046896934509277344
ell 59, elapsed: 0.0006380081176757812
ell 58, elapsed: 0.0004570484161376953
ell 57, elapsed: 0.0007319450378417969
ell 56, elapsed: 0.0005741119384765625
ell 55, elapsed: 0.0007500648498535156
ell 54, elapsed: 0.0006299018859863281
ell 53, elapsed: 0.0007491111755371094
ell 52, elapsed: 0.0006210803985595703
ell 51, elapsed: 0.0007660388946533203
ell 50, elapsed: 0.0006260871887207031
ell 49, elapsed: 0.0007431507110595703
ell 48, elapsed: 0.00047898292541503906
ell 47, elapsed: 0.0006079673767089844
ell 46, elapsed: 0.0006201267242431641
ell 45, elapsed: 0.0006220340728759766
ell 44, elapsed: 0.000553131103515625
ell 43, elapsed: 0.0007450580596923828
ell 42, elapsed: 0.0006148815155029297
ell 41, elapsed: 0.0007529258728027344
ell 40, elapsed: 0.0006480216979980469
ell 39, elapsed: 0.0007419586181640625
ell 38, elapsed: 0.0005059242248535156
ell 37, elapsed: 0.0006840229034423828
ell 36, elapsed: 0.0005190372467041016
ell 35, elapsed: 0.0006999969482421875
ell 34, elapsed: 0.0006380081176757812
ell 33, elapsed: 0.0007519721984863281
ell 32, elapsed: 0.0004990100860595703
ell 31, elapsed: 0.0006909370422363281
ell 30, elapsed: 0.0006229877471923828
ell 29, elapsed: 0.0007610321044921875
ell 28, elapsed: 0.0006442070007324219
ell 27, elapsed: 0.0007121562957763672
ell 26, elapsed: 0.0005178451538085938
ell 25, elapsed: 0.0006699562072753906
ell 24, elapsed: 0.0006210803985595703
ell 23, elapsed: 0.0007460117340087891
ell 22, elapsed: 0.0006608963012695312
ell 21, elapsed: 0.0006480216979980469
ell 20, elapsed: 0.0004761219024658203
ell 19, elapsed: 0.0007390975952148438
ell 18, elapsed: 0.0005118846893310547
ell 17, elapsed: 0.0006129741668701172
ell 16, elapsed: 0.0006430149078369141
ell 15, elapsed: 0.0007579326629638672
ell 14, elapsed: 0.0006239414215087891
ell 13, elapsed: 0.0006999969482421875
ell 12, elapsed: 0.0006310939788818359
ell 11, elapsed: 0.0008778572082519531
ell 10, elapsed: 0.0006701946258544922
ell 9, elapsed: 0.0006911754608154297
ell 8, elapsed: 0.0006771087646484375
ell 7, elapsed: 0.0008611679077148438
ell 6, elapsed: 0.0006618499755859375
ell 5, elapsed: 0.0007579326629638672
ell 4, elapsed: 0.0005869865417480469
ell 3, elapsed: 0.0008740425109863281
ell 2, elapsed: 0.000614166259765625
ell 1, elapsed: 0.0008261203765869141
ell 0, elapsed: 0.0006849765777587891
  0.902803 seconds (41.19 k allocations: 2.939 MiB)
elapsed: 0.001703023910522461
step:          0.097126 sec (0 allocations: 0 byte, 0.0% gc time)
swapping:      0.001051 sec (0 allocations: 0 byte, 0.0% gc time)
calc_Mellell!: 0.012863 sec (0 allocations: 0 byte, 0.0% gc time)
  t0 :  0.018732 sec (0 allocations: 0 byte, 0.0% gc time)
  tm2 : 0.144092 sec (0 allocations: 0 byte, 0.0% gc time)
  tm2s: 0.002224 sec (0 allocations: 0 byte, 0.0% gc time)
  tm4 : 0.371927 sec (0 allocations: 0 byte, 0.0% gc time)
  tp2 : 0.0 sec (0 allocations: 0 byte, 0.0% gc time)
  tp2s: 0.0 sec (0 allocations: 0 byte, 0.0% gc time)
  tp4 : 0.0 sec (0 allocations: 0 byte, 0.0% gc time)
calc_wtdll!:   0.556692 sec (9.87 k allocations: 1.043 MB, 0.0% gc time)
calc_wljj!:    0.064205 sec (689 allocations: 10.766 KB, 0.0% gc time)
mult_prefac!:  0.0 sec (0 allocations: 0 byte, 0.0% gc time)
convert:       0.0 sec (0 allocations: 0 byte, 0.0% gc time)
write:         0.069597 sec (0 allocations: 0 byte, 0.0% gc time)
test_rand_2f1: 0.0 sec (0 allocations: 0 byte, 0.0% gc time)
Closing outfile out/Ml21-cache.bin...   0.037914 seconds
  0.000482 seconds (52 allocations: 28.297 KiB)
make_phi():   0.002635 seconds (8.20 k allocations: 238.016 KiB)
  0.192931 seconds (146.69 k allocations: 3.629 MiB)
tskip:       0.001279 sec (0 allocations: 0 byte, 0.0% gc time)
tread:       0.026535 sec (19 allocations: 10.688 KB, 0.0% gc time)
tmultphi:    0.015773 sec (0 allocations: 0 byte, 0.0% gc time)
tbrfft:      0.046334 sec (9.592 k allocations: 449.625 KB, 0.0% gc time)
tmultprefac: 0.038525 sec (0 allocations: 0 byte, 0.0% gc time)
toutfunc:    0.062538 sec (129.905 k allocations: 2.421 MB, 0.0% gc time)
Testing R=1.0 ... passed
Calculating fmax: 
  dlrec    = 4
  dlrecRg1 = -4
  q=1.1, R=0.9:	  0.459563 seconds (116.47 k allocations: 15.614 MiB)

  0.459827 seconds (116.50 k allocations: 15.647 MiB)
ℓ = 1202
Δℓ = 4
ΔℓRg1 = -4
N = 1600
q = 1.1
kmin = 1.0e-5
kmax = 100000.00000000004
χ0 = 0.023029999999999995
RR = RR.tsv
ℓmax = ℓmax.bin
f21 = f21.bin
kmin = 1.0e-5
kmax = 100000.0
dlrec    = 4
dlrecRg1 = -4
Output size: 5741568 bytes = 0.005347251892089844 GiB
Output size: 51264 bytes = 4.774332046508789e-5 GiB
Reading 'out/F21EllCache'...   0.001075 seconds (267 allocations: 84.656 KiB)
ellmax: 1202
lmaxcache: 1202
fell[:,1,1] = Complex{Float64}[1.3482014726274674e-57 - 3.302141236118086e-73im, 1.357860004724329e-57 - 3.3257978169518355e-73im]
ell 1202, elapsed: 0.00020599365234375
ell 1201, elapsed: 0.0009100437164306641
ell 1200, elapsed: 0.0009329319000244141
ell 1199, elapsed: 0.0008411407470703125
ell 1198, elapsed: 0.0008590221405029297
ell 1002, elapsed: 0.01045083999633789
ell 1001, elapsed: 0.0008571147918701172
ell 1000, elapsed: 0.0008478164672851562
ell 999, elapsed: 0.0008461475372314453
ell 998, elapsed: 0.0008220672607421875
ell 902, elapsed: 0.0063250064849853516
ell 901, elapsed: 0.0008521080017089844
ell 900, elapsed: 0.000823974609375
ell 899, elapsed: 0.0008189678192138672
ell 898, elapsed: 0.0008089542388916016
ell 802, elapsed: 0.005697011947631836
ell 801, elapsed: 0.0008571147918701172
ell 800, elapsed: 0.0008349418640136719
ell 799, elapsed: 0.0008258819580078125
ell 798, elapsed: 0.0008268356323242188
ell 702, elapsed: 0.006212949752807617
ell 701, elapsed: 0.0008451938629150391
ell 700, elapsed: 0.0008327960968017578
ell 699, elapsed: 0.0008440017700195312
ell 698, elapsed: 0.000843048095703125
ell 602, elapsed: 0.006319999694824219
ell 601, elapsed: 0.0008800029754638672
ell 600, elapsed: 0.0008649826049804688
ell 599, elapsed: 0.0008521080017089844
ell 598, elapsed: 0.0008420944213867188
ell 502, elapsed: 0.006233930587768555
ell 501, elapsed: 0.0008640289306640625
ell 500, elapsed: 0.0008599758148193359
ell 499, elapsed: 0.0008370876312255859
ell 498, elapsed: 0.00084686279296875
ell 402, elapsed: 0.0057179927825927734
ell 401, elapsed: 0.0008730888366699219
ell 400, elapsed: 0.0008578300476074219
ell 399, elapsed: 0.0008459091186523438
ell 398, elapsed: 0.0008420944213867188
ell 302, elapsed: 0.005625009536743164
ell 301, elapsed: 0.0008749961853027344
ell 300, elapsed: 0.0008931159973144531
ell 299, elapsed: 0.0008480548858642578
ell 298, elapsed: 0.0008459091186523438
ell 202, elapsed: 0.006350994110107422
ell 201, elapsed: 0.0009009838104248047
ell 200, elapsed: 0.0008587837219238281
ell 199, elapsed: 0.0008490085601806641
ell 198, elapsed: 0.0008499622344970703
ell 152, elapsed: 0.0035250186920166016
ell 151, elapsed: 0.0008730888366699219
ell 150, elapsed: 0.0007741451263427734
ell 149, elapsed: 0.0007710456848144531
ell 148, elapsed: 0.0007758140563964844
ell 127, elapsed: 0.0020401477813720703
ell 126, elapsed: 0.0007789134979248047
ell 125, elapsed: 0.0008490085601806641
ell 124, elapsed: 0.0006420612335205078
ell 123, elapsed: 0.0006248950958251953
ell 114, elapsed: 0.0012738704681396484
ell 113, elapsed: 0.0006480216979980469
ell 112, elapsed: 0.0006158351898193359
ell 111, elapsed: 0.0007250308990478516
ell 110, elapsed: 0.0005779266357421875
ell 102, elapsed: 0.001293182373046875
ell 101, elapsed: 0.0006670951843261719
ell 100, elapsed: 0.0007190704345703125
ell 99, elapsed: 0.0005872249603271484
ell 98, elapsed: 0.0005888938903808594
ell 97, elapsed: 0.0006451606750488281
ell 96, elapsed: 0.0007879734039306641
ell 95, elapsed: 0.0006999969482421875
ell 94, elapsed: 0.0009000301361083984
ell 93, elapsed: 0.0008230209350585938
ell 92, elapsed: 0.0009300708770751953
ell 91, elapsed: 0.0008118152618408203
ell 90, elapsed: 0.0009059906005859375
ell 89, elapsed: 0.0005350112915039062
ell 88, elapsed: 0.0008070468902587891
ell 87, elapsed: 0.0006580352783203125
ell 86, elapsed: 0.0008070468902587891
ell 85, elapsed: 0.0006461143493652344
ell 84, elapsed: 0.0009081363677978516
ell 83, elapsed: 0.0006439685821533203
ell 82, elapsed: 0.0008070468902587891
ell 81, elapsed: 0.0006661415100097656
ell 80, elapsed: 0.0007560253143310547
ell 79, elapsed: 0.0005168914794921875
ell 78, elapsed: 0.0008101463317871094
ell 77, elapsed: 0.0005190372467041016
ell 76, elapsed: 0.0007979869842529297
ell 75, elapsed: 0.0007920265197753906
ell 74, elapsed: 0.0008990764617919922
ell 73, elapsed: 0.0006830692291259766
ell 72, elapsed: 0.0008940696716308594
ell 71, elapsed: 0.0008060932159423828
ell 70, elapsed: 0.0009009838104248047
ell 69, elapsed: 0.0007920265197753906
ell 68, elapsed: 0.0009088516235351562
ell 67, elapsed: 0.0007929801940917969
ell 66, elapsed: 0.0009000301361083984
ell 65, elapsed: 0.0008189678192138672
ell 64, elapsed: 0.0007960796356201172
ell 63, elapsed: 0.0006477832794189453
ell 62, elapsed: 0.0008060932159423828
ell 61, elapsed: 0.0005300045013427734
ell 60, elapsed: 0.0008070468902587891
ell 59, elapsed: 0.000823974609375
ell 58, elapsed: 0.0008950233459472656
ell 57, elapsed: 0.0006968975067138672
ell 56, elapsed: 0.0007798671722412109
ell 55, elapsed: 0.0008540153503417969
ell 54, elapsed: 0.0009229183197021484
ell 53, elapsed: 0.0007929801940917969
ell 52, elapsed: 0.0007860660552978516
ell 51, elapsed: 0.0007879734039306641
ell 50, elapsed: 0.0009198188781738281
ell 49, elapsed: 0.0006520748138427734
ell 48, elapsed: 0.0007989406585693359
ell 47, elapsed: 0.0005860328674316406
ell 46, elapsed: 0.0007879734039306641
ell 45, elapsed: 0.0006930828094482422
ell 44, elapsed: 0.0009219646453857422
ell 43, elapsed: 0.0007920265197753906
ell 42, elapsed: 0.0007879734039306641
ell 41, elapsed: 0.0005199909210205078
ell 40, elapsed: 0.0007960796356201172
ell 39, elapsed: 0.000701904296875
ell 38, elapsed: 0.0007631778717041016
ell 37, elapsed: 0.0007970333099365234
ell 36, elapsed: 0.0009300708770751953
ell 35, elapsed: 0.0008111000061035156
ell 34, elapsed: 0.0009191036224365234
ell 33, elapsed: 0.0005810260772705078
ell 32, elapsed: 0.0009260177612304688
ell 31, elapsed: 0.0005948543548583984
ell 30, elapsed: 0.0007848739624023438
ell 29, elapsed: 0.0006549358367919922
ell 28, elapsed: 0.0007879734039306641
ell 27, elapsed: 0.0008120536804199219
ell 26, elapsed: 0.0007870197296142578
ell 25, elapsed: 0.0007989406585693359
ell 24, elapsed: 0.00090789794921875
ell 23, elapsed: 0.000701904296875
ell 22, elapsed: 0.0007619857788085938
ell 21, elapsed: 0.0008020401000976562
ell 20, elapsed: 0.0009050369262695312
ell 19, elapsed: 0.0007948875427246094
ell 18, elapsed: 0.0009219646453857422
ell 17, elapsed: 0.0008008480072021484
ell 16, elapsed: 0.0009019374847412109
ell 15, elapsed: 0.0008089542388916016
ell 14, elapsed: 0.0009150505065917969
ell 13, elapsed: 0.0008051395416259766
ell 12, elapsed: 0.0008940696716308594
ell 11, elapsed: 0.0006940364837646484
ell 10, elapsed: 0.0009009838104248047
ell 9, elapsed: 0.0006849765777587891
ell 8, elapsed: 0.0008978843688964844
ell 7, elapsed: 0.0008070468902587891
ell 6, elapsed: 0.0009009838104248047
ell 5, elapsed: 0.0006589889526367188
ell 4, elapsed: 0.0008029937744140625
ell 3, elapsed: 0.0007028579711914062
ell 2, elapsed: 0.0008978843688964844
ell 1, elapsed: 0.0008199214935302734
ell 0, elapsed: 0.0009200572967529297
  0.236544 seconds (10.83 k allocations: 697.938 KiB)
elapsed: 0.001336812973022461
step:          0.066053 sec (0 allocations: 0 byte, 0.0% gc time)
swapping:      0.0007 sec (0 allocations: 0 byte, 0.0% gc time)
calc_Mellell!: 0.009736 sec (0 allocations: 0 byte, 0.0% gc time)
  t0 :  0.000853 sec (0 allocations: 0 byte, 0.0% gc time)
  tm2 : 0.020807 sec (0 allocations: 0 byte, 0.0% gc time)
  tm2s: 0.000424 sec (0 allocations: 0 byte, 0.0% gc time)
  tm4 : 0.052733 sec (0 allocations: 0 byte, 0.0% gc time)
  tp2 : 0.0 sec (0 allocations: 0 byte, 0.0% gc time)
  tp2s: 0.0 sec (0 allocations: 0 byte, 0.0% gc time)
  tp4 : 0.0 sec (0 allocations: 0 byte, 0.0% gc time)
calc_wtdll!:   0.07595 sec (1.344 k allocations: 147.0 KB, 0.0% gc time)
calc_wljj!:    0.005509 sec (6 allocations: 96 byte, 0.0% gc time)
mult_prefac!:  0.0 sec (0 allocations: 0 byte, 0.0% gc time)
convert:       0.0 sec (0 allocations: 0 byte, 0.0% gc time)
write:         0.007267 sec (0 allocations: 0 byte, 0.0% gc time)
test_rand_2f1: 0.0 sec (0 allocations: 0 byte, 0.0% gc time)
Closing outfile out/Ml21-cache.bin...   0.004765 seconds
  0.000231 seconds (52 allocations: 28.297 KiB)
make_phi():   0.002745 seconds (8.20 k allocations: 238.016 KiB)
  0.018441 seconds (12.10 k allocations: 322.000 KiB)
tskip:       2.2e-5 sec (0 allocations: 0 byte, 0.0% gc time)
tread:       0.002588 sec (19 allocations: 2.172 KB, 0.0% gc time)
tmultphi:    0.001413 sec (0 allocations: 0 byte, 0.0% gc time)
tbrfft:      0.004552 sec (896 allocations: 42.0 KB, 0.0% gc time)
tmultprefac: 0.003823 sec (0 allocations: 0 byte, 0.0% gc time)
toutfunc:    0.006007 sec (10.528 k allocations: 206.5 KB, 0.0% gc time)
Testing R=0.9 ... passed
Calculating fmax: 
  dlrec    = 4
  dlrecRg1 = -4
  q=1.1, R=0.8:	  0.371929 seconds (113.61 k allocations: 15.166 MiB)

  0.372172 seconds (113.65 k allocations: 15.200 MiB)
ℓ = 1202
Δℓ = 4
ΔℓRg1 = -4
N = 1600
q = 1.1
kmin = 1.0e-5
kmax = 100000.00000000004
χ0 = 0.023029999999999995
RR = RR.tsv
ℓmax = ℓmax.bin
f21 = f21.bin
kmin = 1.0e-5
kmax = 100000.0
dlrec    = 4
dlrecRg1 = -4
Output size: 5741568 bytes = 0.005347251892089844 GiB
Output size: 51264 bytes = 4.774332046508789e-5 GiB
Reading 'out/F21EllCache'...   0.001036 seconds (267 allocations: 84.656 KiB)
ellmax: 1202
lmaxcache: 1202
fell[:,1,1] = Complex{Float64}[7.519068145690986e-120 - 1.8416405474382574e-135im, 7.541664537386155e-120 - 1.847175067190611e-135im]
ell 1202, elapsed: 2.002716064453125e-5
ell 1201, elapsed: 0.0004291534423828125
ell 1200, elapsed: 0.0003859996795654297
ell 1199, elapsed: 0.0005550384521484375
ell 1198, elapsed: 0.0005481243133544922
ell 1002, elapsed: 0.009720087051391602
ell 1001, elapsed: 0.0003809928894042969
ell 1000, elapsed: 0.0003600120544433594
ell 999, elapsed: 0.0003540515899658203
ell 998, elapsed: 0.0004520416259765625
ell 902, elapsed: 0.005620002746582031
ell 901, elapsed: 0.0005178451538085938
ell 900, elapsed: 0.00045013427734375
ell 899, elapsed: 0.00048804283142089844
ell 898, elapsed: 0.0004589557647705078
ell 802, elapsed: 0.0051898956298828125
ell 801, elapsed: 0.00047087669372558594
ell 800, elapsed: 0.0005578994750976562
ell 799, elapsed: 0.0005710124969482422
ell 798, elapsed: 0.0005729198455810547
ell 702, elapsed: 0.005335092544555664
ell 701, elapsed: 0.00055694580078125
ell 700, elapsed: 0.000453948974609375
ell 699, elapsed: 0.0003581047058105469
ell 698, elapsed: 0.00035691261291503906
ell 602, elapsed: 0.005382061004638672
ell 601, elapsed: 0.0005640983581542969
ell 600, elapsed: 0.0005161762237548828
ell 599, elapsed: 0.0003609657287597656
ell 598, elapsed: 0.0003540515899658203
ell 502, elapsed: 0.005307912826538086
ell 501, elapsed: 0.0005159378051757812
ell 500, elapsed: 0.0005190372467041016
ell 499, elapsed: 0.00034809112548828125
ell 498, elapsed: 0.0003509521484375
ell 402, elapsed: 0.005409955978393555
ell 401, elapsed: 0.00043892860412597656
ell 400, elapsed: 0.0005350112915039062
ell 399, elapsed: 0.0006220340728759766
ell 398, elapsed: 0.0004150867462158203
ell 302, elapsed: 0.005103111267089844
ell 301, elapsed: 0.00037384033203125
ell 300, elapsed: 0.0003478527069091797
ell 299, elapsed: 0.0003490447998046875
ell 298, elapsed: 0.00035500526428222656
ell 202, elapsed: 0.005270957946777344
ell 201, elapsed: 0.0003719329833984375
ell 200, elapsed: 0.0005021095275878906
ell 199, elapsed: 0.0005609989166259766
ell 198, elapsed: 0.0005640983581542969
ell 152, elapsed: 0.0029659271240234375
ell 151, elapsed: 0.0003859996795654297
ell 150, elapsed: 0.0004990100860595703
ell 149, elapsed: 0.0005500316619873047
ell 148, elapsed: 0.0004839897155761719
ell 127, elapsed: 0.0017380714416503906
ell 126, elapsed: 0.0004878044128417969
ell 125, elapsed: 0.0005550384521484375
ell 124, elapsed: 0.0004489421844482422
ell 123, elapsed: 0.00033783912658691406
ell 114, elapsed: 0.0011851787567138672
ell 113, elapsed: 0.0005261898040771484
ell 112, elapsed: 0.0005178451538085938
ell 111, elapsed: 0.00047206878662109375
ell 110, elapsed: 0.0005578994750976562
ell 102, elapsed: 0.0010721683502197266
ell 101, elapsed: 0.00034689903259277344
ell 100, elapsed: 0.0003371238708496094
ell 99, elapsed: 0.00047397613525390625
ell 98, elapsed: 0.00044798851013183594
ell 97, elapsed: 0.0005550384521484375
ell 96, elapsed: 0.0005769729614257812
ell 95, elapsed: 0.0003859996795654297
ell 94, elapsed: 0.0008449554443359375
ell 93, elapsed: 0.00047898292541503906
ell 92, elapsed: 0.0007431507110595703
ell 91, elapsed: 0.0006260871887207031
ell 90, elapsed: 0.0006189346313476562
ell 89, elapsed: 0.0003859996795654297
ell 88, elapsed: 0.0007929801940917969
ell 87, elapsed: 0.0005040168762207031
ell 86, elapsed: 0.0007228851318359375
ell 85, elapsed: 0.0005090236663818359
ell 84, elapsed: 0.0006520748138427734
ell 83, elapsed: 0.00046706199645996094
ell 82, elapsed: 0.0008230209350585938
ell 81, elapsed: 0.0005140304565429688
ell 80, elapsed: 0.00048804283142089844
ell 79, elapsed: 0.0004990100860595703
ell 78, elapsed: 0.000759124755859375
ell 77, elapsed: 0.00045299530029296875
ell 76, elapsed: 0.0004718303680419922
ell 75, elapsed: 0.0005049705505371094
ell 74, elapsed: 0.0006608963012695312
ell 73, elapsed: 0.0004639625549316406
ell 72, elapsed: 0.0006539821624755859
ell 71, elapsed: 0.0004439353942871094
ell 70, elapsed: 0.0004901885986328125
ell 69, elapsed: 0.0003991127014160156
ell 68, elapsed: 0.0008420944213867188
ell 67, elapsed: 0.0004649162292480469
ell 66, elapsed: 0.0006020069122314453
ell 65, elapsed: 0.0006198883056640625
ell 64, elapsed: 0.0006668567657470703
ell 63, elapsed: 0.0005030632019042969
ell 62, elapsed: 0.0007808208465576172
ell 61, elapsed: 0.0005581378936767578
ell 60, elapsed: 0.0007529258728027344
ell 59, elapsed: 0.0004999637603759766
ell 58, elapsed: 0.0004849433898925781
ell 57, elapsed: 0.0005559921264648438
ell 56, elapsed: 0.0007658004760742188
ell 55, elapsed: 0.0005278587341308594
ell 54, elapsed: 0.0006442070007324219
ell 53, elapsed: 0.00039505958557128906
ell 52, elapsed: 0.0006940364837646484
ell 51, elapsed: 0.0005280971527099609
ell 50, elapsed: 0.0008230209350585938
ell 49, elapsed: 0.000514984130859375
ell 48, elapsed: 0.0007338523864746094
ell 47, elapsed: 0.0004870891571044922
ell 46, elapsed: 0.0005671977996826172
ell 45, elapsed: 0.0006089210510253906
ell 44, elapsed: 0.0007059574127197266
ell 43, elapsed: 0.0003960132598876953
ell 42, elapsed: 0.0005979537963867188
ell 41, elapsed: 0.0006220340728759766
ell 40, elapsed: 0.0007340908050537109
ell 39, elapsed: 0.0005400180816650391
ell 38, elapsed: 0.0008339881896972656
ell 37, elapsed: 0.0005269050598144531
ell 36, elapsed: 0.0005970001220703125
ell 35, elapsed: 0.0005450248718261719
ell 34, elapsed: 0.0006470680236816406
ell 33, elapsed: 0.0005259513854980469
ell 32, elapsed: 0.0007450580596923828
ell 31, elapsed: 0.00055694580078125
ell 30, elapsed: 0.0007309913635253906
ell 29, elapsed: 0.0005009174346923828
ell 28, elapsed: 0.00045990943908691406
ell 27, elapsed: 0.00036907196044921875
ell 26, elapsed: 0.0006802082061767578
ell 25, elapsed: 0.0007369518280029297
ell 24, elapsed: 0.0006859302520751953
ell 23, elapsed: 0.0004730224609375
ell 22, elapsed: 0.0006170272827148438
ell 21, elapsed: 0.0006210803985595703
ell 20, elapsed: 0.0007548332214355469
ell 19, elapsed: 0.0006871223449707031
ell 18, elapsed: 0.0006039142608642578
ell 17, elapsed: 0.0003788471221923828
ell 16, elapsed: 0.0006778240203857422
ell 15, elapsed: 0.0005381107330322266
ell 14, elapsed: 0.0004601478576660156
ell 13, elapsed: 0.0006258487701416016
[...]
ell 789, elapsed: 0.0008499622344970703
ell 788, elapsed: 0.0008418560028076172
ell 782, elapsed: 0.0018439292907714844
ell 781, elapsed: 0.0007889270782470703
ell 780, elapsed: 0.0008478164672851562
ell 779, elapsed: 0.0008399486541748047
ell 778, elapsed: 0.0008380413055419922
ell 772, elapsed: 0.0018107891082763672
ell 771, elapsed: 0.0008358955383300781
ell 770, elapsed: 0.0008440017700195312
ell 769, elapsed: 0.0008351802825927734
ell 768, elapsed: 0.0008420944213867188
ell 762, elapsed: 0.0018889904022216797
ell 761, elapsed: 0.0007979869842529297
ell 760, elapsed: 0.0008440017700195312
ell 759, elapsed: 0.0013651847839355469
ell 758, elapsed: 0.0008530616760253906
ell 752, elapsed: 0.0018849372863769531
ell 751, elapsed: 0.0012700557708740234
ell 750, elapsed: 0.0008449554443359375
ell 749, elapsed: 0.0008449554443359375
ell 748, elapsed: 0.0008499622344970703
ell 742, elapsed: 0.002359151840209961
ell 741, elapsed: 0.0008001327514648438
ell 740, elapsed: 0.0008490085601806641
ell 739, elapsed: 0.0013170242309570312
ell 738, elapsed: 0.0008480548858642578
ell 732, elapsed: 0.0018429756164550781
ell 731, elapsed: 0.0013668537139892578
ell 730, elapsed: 0.0008411407470703125
ell 729, elapsed: 0.0008368492126464844
ell 728, elapsed: 0.0008401870727539062
ell 722, elapsed: 0.0022699832916259766
ell 721, elapsed: 0.0007948875427246094
ell 720, elapsed: 0.0008461475372314453
ell 719, elapsed: 0.001329183578491211
ell 718, elapsed: 0.0008459091186523438
ell 712, elapsed: 0.002407073974609375
ell 711, elapsed: 0.0008549690246582031
ell 710, elapsed: 0.000843048095703125
ell 709, elapsed: 0.0008399486541748047
ell 708, elapsed: 0.0013151168823242188
ell 702, elapsed: 0.0018970966339111328
ell 701, elapsed: 0.0007932186126708984
ell 700, elapsed: 0.001322031021118164
ell 699, elapsed: 0.0008361339569091797
ell 698, elapsed: 0.0008420944213867188
ell 692, elapsed: 0.0023069381713867188
ell 691, elapsed: 0.0008521080017089844
ell 690, elapsed: 0.00084686279296875
ell 689, elapsed: 0.0008399486541748047
ell 688, elapsed: 0.0013170242309570312
ell 682, elapsed: 0.0018038749694824219
ell 681, elapsed: 0.0007998943328857422
ell 680, elapsed: 0.001322031021118164
ell 679, elapsed: 0.0008461475372314453
ell 678, elapsed: 0.0008440017700195312
ell 672, elapsed: 0.0022499561309814453
ell 671, elapsed: 0.0007929801940917969
ell 670, elapsed: 0.0008451938629150391
ell 669, elapsed: 0.0008409023284912109
ell 668, elapsed: 0.001313924789428711
ell 662, elapsed: 0.0018541812896728516
ell 661, elapsed: 0.0007939338684082031
ell 660, elapsed: 0.001318216323852539
ell 659, elapsed: 0.000843048095703125
ell 658, elapsed: 0.0008440017700195312
ell 652, elapsed: 0.001811981201171875
ell 651, elapsed: 0.0008060932159423828
ell 650, elapsed: 0.0008440017700195312
ell 649, elapsed: 0.0008358955383300781
ell 648, elapsed: 0.0008409023284912109
ell 642, elapsed: 0.0018351078033447266
ell 641, elapsed: 0.0007970333099365234
ell 640, elapsed: 0.00084686279296875
ell 639, elapsed: 0.0008518695831298828
ell 638, elapsed: 0.0008449554443359375
ell 632, elapsed: 0.001600027084350586
ell 631, elapsed: 0.000843048095703125
ell 630, elapsed: 0.0008609294891357422
ell 629, elapsed: 0.0008389949798583984
ell 628, elapsed: 0.0008399486541748047
ell 622, elapsed: 0.0015938282012939453
ell 621, elapsed: 0.0008611679077148438
ell 620, elapsed: 0.0008449554443359375
ell 619, elapsed: 0.0008349418640136719
ell 618, elapsed: 0.0008440017700195312
ell 612, elapsed: 0.0018351078033447266
ell 611, elapsed: 0.0008389949798583984
ell 610, elapsed: 0.0008440017700195312
ell 609, elapsed: 0.0008389949798583984
ell 608, elapsed: 0.0009608268737792969
ell 602, elapsed: 0.0017828941345214844
ell 601, elapsed: 0.0007970333099365234
ell 600, elapsed: 0.0009357929229736328
ell 599, elapsed: 0.000843048095703125
ell 598, elapsed: 0.0008409023284912109
ell 592, elapsed: 0.0015969276428222656
ell 591, elapsed: 0.0011889934539794922
ell 590, elapsed: 0.0008449554443359375
ell 589, elapsed: 0.0008480548858642578
ell 588, elapsed: 0.0008440017700195312
ell 582, elapsed: 0.002012968063354492
ell 581, elapsed: 0.0008540153503417969
ell 580, elapsed: 0.0008399486541748047
ell 579, elapsed: 0.0009179115295410156
ell 578, elapsed: 0.0008471012115478516
ell 572, elapsed: 0.0018088817596435547
ell 571, elapsed: 0.0008759498596191406
ell 570, elapsed: 0.0009059906005859375
ell 569, elapsed: 0.0008399486541748047
ell 568, elapsed: 0.0008389949798583984
ell 562, elapsed: 0.0019001960754394531
ell 561, elapsed: 0.0008401870727539062
ell 560, elapsed: 0.0008389949798583984
ell 559, elapsed: 0.0008401870727539062
ell 558, elapsed: 0.0008959770202636719
ell 552, elapsed: 0.0019309520721435547
ell 551, elapsed: 0.0007910728454589844
ell 550, elapsed: 0.0008409023284912109
ell 549, elapsed: 0.0009369850158691406
ell 548, elapsed: 0.000843048095703125
ell 542, elapsed: 0.0019161701202392578
ell 541, elapsed: 0.0008800029754638672
ell 540, elapsed: 0.0008389949798583984
ell 539, elapsed: 0.0008399486541748047
ell 538, elapsed: 0.000843048095703125
ell 532, elapsed: 0.0016601085662841797
ell 531, elapsed: 0.0008480548858642578
ell 530, elapsed: 0.000843048095703125
ell 529, elapsed: 0.0008358955383300781
ell 528, elapsed: 0.0009179115295410156
ell 522, elapsed: 0.001811981201171875
ell 521, elapsed: 0.0008409023284912109
ell 520, elapsed: 0.0008800029754638672
ell 519, elapsed: 0.0009000301361083984
ell 518, elapsed: 0.00084686279296875
ell 512, elapsed: 0.0018301010131835938
ell 511, elapsed: 0.000946044921875
ell 510, elapsed: 0.000843048095703125
ell 509, elapsed: 0.0008418560028076172
ell 508, elapsed: 0.0008409023284912109
ell 502, elapsed: 0.0019330978393554688
ell 501, elapsed: 0.0007920265197753906
ell 500, elapsed: 0.0008399486541748047
ell 499, elapsed: 0.0008418560028076172
ell 498, elapsed: 0.0009429454803466797
ell 492, elapsed: 0.001878976821899414
ell 491, elapsed: 0.0007898807525634766
ell 490, elapsed: 0.001180887222290039
ell 489, elapsed: 0.0008420944213867188
ell 488, elapsed: 0.0008428096771240234
ell 482, elapsed: 0.0019059181213378906
ell 481, elapsed: 0.0008428096771240234
ell 480, elapsed: 0.0008418560028076172
ell 479, elapsed: 0.0008389949798583984
ell 478, elapsed: 0.0008649826049804688
ell 472, elapsed: 0.0019481182098388672
ell 471, elapsed: 0.0008189678192138672
ell 470, elapsed: 0.0008428096771240234
ell 469, elapsed: 0.0009369850158691406
ell 468, elapsed: 0.0008451938629150391
ell 462, elapsed: 0.0018129348754882812
ell 461, elapsed: 0.0009098052978515625
ell 460, elapsed: 0.0008499622344970703
ell 459, elapsed: 0.0008449554443359375
ell 458, elapsed: 0.0008480548858642578
ell 452, elapsed: 0.0018491744995117188
ell 451, elapsed: 0.0007979869842529297
ell 450, elapsed: 0.0008478164672851562
ell 449, elapsed: 0.000843048095703125
ell 448, elapsed: 0.0009181499481201172
ell 442, elapsed: 0.0018219947814941406
ell 441, elapsed: 0.0008471012115478516
ell 440, elapsed: 0.0008800029754638672
ell 439, elapsed: 0.0008978843688964844
ell 438, elapsed: 0.00084686279296875
ell 432, elapsed: 0.0019199848175048828
ell 431, elapsed: 0.0008969306945800781
ell 430, elapsed: 0.0008509159088134766
ell 429, elapsed: 0.0008389949798583984
ell 428, elapsed: 0.0008428096771240234
ell 422, elapsed: 0.0018649101257324219
ell 421, elapsed: 0.0007920265197753906
ell 420, elapsed: 0.0008349418640136719
ell 419, elapsed: 0.0008389949798583984
ell 418, elapsed: 0.0009958744049072266
ell 412, elapsed: 0.0018749237060546875
ell 411, elapsed: 0.0007910728454589844
ell 410, elapsed: 0.0009920597076416016
ell 409, elapsed: 0.0008399486541748047
ell 408, elapsed: 0.0008399486541748047
ell 402, elapsed: 0.0018949508666992188
ell 401, elapsed: 0.0008320808410644531
ell 400, elapsed: 0.0008409023284912109
ell 399, elapsed: 0.0008380413055419922
ell 398, elapsed: 0.0008409023284912109
ell 392, elapsed: 0.0019440650939941406
ell 391, elapsed: 0.0007920265197753906
ell 390, elapsed: 0.0008389949798583984
ell 389, elapsed: 0.0009980201721191406
ell 388, elapsed: 0.0008399486541748047
ell 382, elapsed: 0.0017931461334228516
ell 381, elapsed: 0.0008890628814697266
ell 380, elapsed: 0.0009031295776367188
ell 379, elapsed: 0.0008389949798583984
ell 378, elapsed: 0.0008418560028076172
ell 372, elapsed: 0.0019469261169433594
ell 371, elapsed: 0.0007920265197753906
ell 370, elapsed: 0.0008378028869628906
ell 369, elapsed: 0.0008368492126464844
ell 368, elapsed: 0.0009670257568359375
ell 362, elapsed: 0.0018131732940673828
ell 361, elapsed: 0.0007948875427246094
ell 360, elapsed: 0.0008521080017089844
ell 359, elapsed: 0.0010170936584472656
ell 358, elapsed: 0.0008449554443359375
ell 352, elapsed: 0.0019168853759765625
ell 351, elapsed: 0.0009369850158691406
ell 350, elapsed: 0.0008499622344970703
ell 349, elapsed: 0.0008411407470703125
ell 348, elapsed: 0.0008399486541748047
ell 342, elapsed: 0.0019659996032714844
ell 341, elapsed: 0.0007920265197753906
ell 340, elapsed: 0.0008370876312255859
ell 339, elapsed: 0.0008370876312255859
ell 338, elapsed: 0.0009889602661132812
ell 332, elapsed: 0.00179290771484375
ell 331, elapsed: 0.0007932186126708984
ell 330, elapsed: 0.0010030269622802734
ell 329, elapsed: 0.0008459091186523438
ell 328, elapsed: 0.0008459091186523438
ell 322, elapsed: 0.0019621849060058594
ell 321, elapsed: 0.0008449554443359375
ell 320, elapsed: 0.00084686279296875
ell 319, elapsed: 0.0008399486541748047
ell 318, elapsed: 0.000843048095703125
ell 312, elapsed: 0.0020360946655273438
ell 311, elapsed: 0.0007929801940917969
ell 310, elapsed: 0.000843048095703125
ell 309, elapsed: 0.000985860824584961
ell 308, elapsed: 0.0008428096771240234
ell 302, elapsed: 0.0017840862274169922
ell 301, elapsed: 0.00090789794921875
ell 300, elapsed: 0.0008680820465087891
ell 299, elapsed: 0.0008389949798583984
ell 298, elapsed: 0.0008411407470703125
ell 292, elapsed: 0.001744985580444336
ell 291, elapsed: 0.0008411407470703125
ell 290, elapsed: 0.0008409023284912109
ell 289, elapsed: 0.0008440017700195312
ell 288, elapsed: 0.000990152359008789
ell 282, elapsed: 0.0018849372863769531
ell 281, elapsed: 0.0007941722869873047
ell 280, elapsed: 0.0009407997131347656
ell 279, elapsed: 0.0009038448333740234
ell 278, elapsed: 0.0008518695831298828
ell 272, elapsed: 0.0018260478973388672
ell 271, elapsed: 0.0009560585021972656
ell 270, elapsed: 0.0008490085601806641
ell 269, elapsed: 0.0008418560028076172
ell 268, elapsed: 0.0008389949798583984
ell 262, elapsed: 0.0016779899597167969
ell 261, elapsed: 0.0008440017700195312
ell 260, elapsed: 0.0008389949798583984
ell 259, elapsed: 0.0008399486541748047
ell 258, elapsed: 0.0009350776672363281
ell 252, elapsed: 0.0018069744110107422
ell 251, elapsed: 0.0007951259613037109
ell 250, elapsed: 0.0008959770202636719
ell 249, elapsed: 0.0008628368377685547
ell 248, elapsed: 0.0008420944213867188
ell 242, elapsed: 0.0019009113311767578
ell 241, elapsed: 0.0008759498596191406
ell 240, elapsed: 0.0008449554443359375
ell 239, elapsed: 0.000843048095703125
ell 238, elapsed: 0.0008449554443359375
ell 232, elapsed: 0.0019598007202148438
ell 231, elapsed: 0.0008709430694580078
ell 230, elapsed: 0.0008571147918701172
ell 229, elapsed: 0.01672196388244629
ell 228, elapsed: 0.0008721351623535156
ell 222, elapsed: 0.0015840530395507812
ell 221, elapsed: 0.0008289813995361328
ell 220, elapsed: 0.0008220672607421875
ell 219, elapsed: 0.0008428096771240234
ell 218, elapsed: 0.0008270740509033203
ell 212, elapsed: 0.0015630722045898438
ell 211, elapsed: 0.0008311271667480469
ell 210, elapsed: 0.0008268356323242188
ell 209, elapsed: 0.0008180141448974609
ell 208, elapsed: 0.0008208751678466797
ell 202, elapsed: 0.01768016815185547
ell 201, elapsed: 0.000885009765625
ell 200, elapsed: 0.0008459091186523438
ell 199, elapsed: 0.0008161067962646484
ell 198, elapsed: 0.000843048095703125
ell 192, elapsed: 0.0015599727630615234
ell 191, elapsed: 0.0008261203765869141
ell 190, elapsed: 0.0008149147033691406
ell 189, elapsed: 0.0008471012115478516
ell 188, elapsed: 0.0008320808410644531
ell 182, elapsed: 0.001619100570678711
ell 181, elapsed: 0.0007719993591308594
ell 180, elapsed: 0.02091217041015625
ell 179, elapsed: 0.0008449554443359375
ell 178, elapsed: 0.0008311271667480469
ell 172, elapsed: 0.0016529560089111328
ell 171, elapsed: 0.000843048095703125
ell 170, elapsed: 0.0008149147033691406
ell 169, elapsed: 0.0008111000061035156
ell 168, elapsed: 0.001096963882446289
ell 162, elapsed: 0.0015900135040283203
ell 161, elapsed: 0.0008258819580078125
ell 160, elapsed: 0.0008339881896972656
ell 159, elapsed: 0.01692795753479004
ell 158, elapsed: 0.0008311271667480469
ell 152, elapsed: 0.001764059066772461
ell 151, elapsed: 0.0007848739624023438
ell 150, elapsed: 0.0008389949798583984
ell 149, elapsed: 0.0008170604705810547
ell 148, elapsed: 0.0008230209350585938
ell 142, elapsed: 0.001592874526977539
ell 141, elapsed: 0.0007939338684082031
ell 140, elapsed: 0.0008099079132080078
ell 139, elapsed: 0.0007991790771484375
ell 138, elapsed: 0.0008158683776855469
ell 132, elapsed: 0.013783931732177734
ell 131, elapsed: 0.0008711814880371094
ell 130, elapsed: 0.0008511543273925781
ell 129, elapsed: 0.0008599758148193359
ell 128, elapsed: 0.0008459091186523438
ell 122, elapsed: 0.0018019676208496094
ell 121, elapsed: 0.0008001327514648438
ell 120, elapsed: 0.0008568763732910156
ell 119, elapsed: 0.0008399486541748047
ell 118, elapsed: 0.0008461475372314453
ell 112, elapsed: 0.0018601417541503906
ell 111, elapsed: 0.0007729530334472656
ell 110, elapsed: 0.0008299350738525391
ell 109, elapsed: 0.0008029937744140625
ell 108, elapsed: 0.0008242130279541016
ell 102, elapsed: 0.0016570091247558594
ell 101, elapsed: 0.004588127136230469
ell 100, elapsed: 0.004601001739501953
ell 99, elapsed: 0.004658222198486328
ell 98, elapsed: 0.004624128341674805
ell 92, elapsed: 0.007416963577270508
ell 91, elapsed: 0.004024028778076172
ell 90, elapsed: 0.004415988922119141
ell 89, elapsed: 0.003994941711425781
ell 88, elapsed: 0.0037598609924316406
ell 82, elapsed: 0.006669044494628906
ell 81, elapsed: 0.0036568641662597656
ell 80, elapsed: 0.004225969314575195
ell 79, elapsed: 0.00426483154296875
ell 78, elapsed: 0.003690004348754883
ell 72, elapsed: 0.006201982498168945
ell 71, elapsed: 0.0032448768615722656
ell 70, elapsed: 0.0031969547271728516
ell 69, elapsed: 0.003284931182861328
ell 68, elapsed: 0.003256082534790039
ell 62, elapsed: 0.0060100555419921875
ell 61, elapsed: 0.0031890869140625
ell 60, elapsed: 0.003278970718383789
ell 59, elapsed: 0.0032749176025390625
ell 58, elapsed: 0.003300905227661133
ell 52, elapsed: 0.006218910217285156
ell 51, elapsed: 0.0035178661346435547
ell 50, elapsed: 0.0033140182495117188
ell 49, elapsed: 0.0032842159271240234
ell 48, elapsed: 0.003298044204711914
ell 42, elapsed: 0.006242036819458008
ell 41, elapsed: 0.0032951831817626953
ell 40, elapsed: 0.0034241676330566406
ell 39, elapsed: 0.0033490657806396484
ell 38, elapsed: 0.003401041030883789
ell 32, elapsed: 0.005934000015258789
ell 31, elapsed: 0.003409147262573242
ell 30, elapsed: 0.003384828567504883
ell 29, elapsed: 0.0033020973205566406
ell 28, elapsed: 0.0032639503479003906
ell 22, elapsed: 0.005944967269897461
ell 21, elapsed: 0.0032019615173339844
ell 20, elapsed: 0.0032579898834228516
ell 19, elapsed: 0.0032749176025390625
ell 18, elapsed: 0.003251791000366211
ell 12, elapsed: 0.005938053131103516
ell 11, elapsed: 0.0032448768615722656
ell 10, elapsed: 0.003258943557739258
ell 9, elapsed: 0.0032579898834228516
ell 8, elapsed: 0.003248929977416992
  0.942825 seconds (66.75 k allocations: 12.139 MiB)
elapsed: 0.003984928131103516
step:          0.078442 sec (0 allocations: 0 byte, 0.0% gc time)
swapping:      0.000798 sec (0 allocations: 0 byte, 0.0% gc time)
calc_Mellell!: 0.060345 sec (0 allocations: 0 byte, 0.0% gc time)
  t0 :  0.010614 sec (0 allocations: 0 byte, 0.0% gc time)
  tm2 : 0.079411 sec (0 allocations: 0 byte, 0.0% gc time)
  tm2s: 0.010023 sec (0 allocations: 0 byte, 0.0% gc time)
  tm4 : 0.214709 sec (0 allocations: 0 byte, 0.0% gc time)
  tp2 : 0.0 sec (0 allocations: 0 byte, 0.0% gc time)
  tp2s: 0.0 sec (0 allocations: 0 byte, 0.0% gc time)
  tp4 : 0.0 sec (0 allocations: 0 byte, 0.0% gc time)
calc_wtdll!:   0.625582 sec (49.2 k allocations: 11.133 MB, 0.0% gc time)
calc_wljj!:    0.069172 sec (69 allocations: 1.078 KB, 0.0% gc time)
mult_prefac!:  0.0 sec (0 allocations: 0 byte, 0.0% gc time)
convert:       0.0 sec (0 allocations: 0 byte, 0.0% gc time)
write:         0.043986 sec (0 allocations: 0 byte, 0.0% gc time)
test_rand_2f1: 0.0 sec (0 allocations: 0 byte, 0.0% gc time)
Closing outfile out/MlCache/MlCache.bin...   0.000010 seconds
xi, l=0, nu=0:   0.511607 seconds (551.85 k allocations: 26.842 MiB)
xi, l=0, nu=-2:  0.002671 seconds (144 allocations: 149.562 KiB)
Created 'out/xi.tsv'.
  q=1.1, R=0.6:	  0.812042 seconds (291.08 k allocations: 38.895 MiB, 2.23% gc time)
  q=1.1, R=0.7:	  0.889777 seconds (304.75 k allocations: 40.996 MiB, 1.41% gc time)
  q=1.1, R=0.8:	  1.165687 seconds (299.14 k allocations: 40.132 MiB, 0.81% gc time)
  q=1.1, R=0.9:	  1.106197 seconds (293.57 k allocations: 39.286 MiB, 0.71% gc time)
  q=1.1, R=0.998:	 22.504237 seconds (10.67 M allocations: 823.453 MiB, 0.78% gc time)
  q=1.1, R=1.0:	  0.004538 seconds (10.24 k allocations: 768.375 KiB)

ℓ = 1000
Δℓ = 4
ΔℓRg1 = -4
N = 4096
q = 1.1
kmin = 1.0e-5
kmax = 1000.0
χ0 = 0.001
RR = RR.tsv
ℓmax = ℓmax.bin
f21 = f21.bin
kmin = 1.0e-5
kmax = 1000.0
dlrec    = 4
dlrecRg1 = -4
Output size: 1573632 bytes = 0.0014655590057373047 GiB
Output size: 786816 bytes = 0.0007327795028686523 GiB
Reading 'out/F21EllCache'...   0.001603 seconds (268 allocations: 533.531 KiB)
ellmax: 1002
lmaxcache: 1000
fell[:,1,1] = Complex{Float64}[1.7262928128202118e-224 - 4.2281979352226944e-240im, 1.7282693092099662e-224 - 4.233038955177176e-240im]
ell 1002, elapsed: 8.702278137207031e-5
ell 1001, elapsed: 0.0014841556549072266
ell 1000, elapsed: 0.0012729167938232422
ell 999, elapsed: 0.008401870727539062
ell 998, elapsed: 0.008064031600952148
ell 44, elapsed: 0.7295761108398438
ell 43, elapsed: 0.00662684440612793
ell 42, elapsed: 0.007388114929199219
ell 41, elapsed: 0.007840871810913086
ell 40, elapsed: 0.00690007209777832
  0.787730 seconds (4.55 k allocations: 320.031 KiB)
elapsed: 0.008275985717773438
step:          0.707995 sec (0 allocations: 0 byte, 0.0% gc time)
swapping:      0.000615 sec (0 allocations: 0 byte, 0.0% gc time)
calc_Mellell!: 0.001555 sec (0 allocations: 0 byte, 0.0% gc time)
  t0 :  0.000962 sec (0 allocations: 0 byte, 0.0% gc time)
  tm2 : 0.012705 sec (0 allocations: 0 byte, 0.0% gc time)
  tm2s: 0.00081 sec (0 allocations: 0 byte, 0.0% gc time)
  tm4 : 0.037173 sec (0 allocations: 0 byte, 0.0% gc time)
  tp2 : 0.0 sec (0 allocations: 0 byte, 0.0% gc time)
  tp2s: 0.0 sec (0 allocations: 0 byte, 0.0% gc time)
  tp4 : 0.0 sec (0 allocations: 0 byte, 0.0% gc time)
calc_wtdll!:   0.05198 sec (480 allocations: 52.5 KB, 0.0% gc time)
calc_wljj!:    0.0019 sec (1 allocations: 16 byte, 0.0% gc time)
mult_prefac!:  0.0 sec (0 allocations: 0 byte, 0.0% gc time)
convert:       0.0 sec (0 allocations: 0 byte, 0.0% gc time)
write:         0.001015 sec (0 allocations: 0 byte, 0.0% gc time)
test_rand_2f1: 0.0 sec (0 allocations: 0 byte, 0.0% gc time)
Closing outfile out/MlCache/MlCache.bin...   0.000918 seconds
  0.494876 seconds (54 allocations: 67.203 KiB)
make_phi():   0.011614 seconds (80 allocations: 276.297 KiB)
  0.003974 seconds (108 allocations: 5.812 KiB)
tskip:       2.0e-6 sec (0 allocations: 0 byte, 0.0% gc time)
tread:       0.000865 sec (19 allocations: 1.312 KB, 0.0% gc time)
tmultphi:    0.000393 sec (0 allocations: 0 byte, 0.0% gc time)
tbrfft:      0.001291 sec (96 allocations: 4.5 KB, 0.0% gc time)
tmultprefac: 0.001237 sec (0 allocations: 0 byte, 0.0% gc time)
toutfunc:    0.000322 sec (0 allocations: 0 byte, 0.0% gc time)
Created 'out/wl42_jj00.tsv'.
Created 'out/wl42_jj02.tsv'.
   Testing TwoFAST tests passed 
