Julia Version 1.4.0-DEV.667
Commit acb7bd93fb (2019-12-27 21:20 UTC)
Platform Info:
  OS: Linux (x86_64-pc-linux-gnu)
  CPU: Intel(R) Xeon(R) Silver 4114 CPU @ 2.20GHz
  WORD_SIZE: 64
  LIBM: libopenlibm
  LLVM: libLLVM-8.0.1 (ORCJIT, skylake)
Environment:
  JULIA_DEPOT_PATH = ::/usr/local/share/julia

 Resolving package versions...
 Installed MKL_jll ────────── v2019.0.117+0
 Installed Reexport ───────── v0.2.0
 Installed AbstractFFTs ───── v0.5.0
 Installed BinDeps ────────── v1.0.0
 Installed SpecialFunctions ─ v0.8.0
 Installed BinaryProvider ─── v0.5.8
 Installed Nemo ───────────── v0.15.1
 Installed FFTW ───────────── v1.2.0
 Installed URIParser ──────── v0.4.0
 Installed IncGammaBeta ───── v0.1.0
 Installed FFTW_jll ───────── v3.3.9+3
 Installed IntelOpenMP_jll ── v2018.0.3+0
 Installed AbstractAlgebra ── v0.7.1
 Installed TwoFAST ────────── v0.1.0
  Updating `~/.julia/environments/v1.4/Project.toml`
  [0dd23c3e] + TwoFAST v0.1.0
  Updating `~/.julia/environments/v1.4/Manifest.toml`
  [c3fe647b] + AbstractAlgebra v0.7.1
  [621f4979] + AbstractFFTs v0.5.0
  [9e28174c] + BinDeps v1.0.0
  [b99e7846] + BinaryProvider v0.5.8
  [7a1cc6ca] + FFTW v1.2.0
  [f5851436] + FFTW_jll v3.3.9+3
  [5087d2c0] + IncGammaBeta v0.1.0
  [1d5cc7b8] + IntelOpenMP_jll v2018.0.3+0
  [856f044c] + MKL_jll v2019.0.117+0
  [2edaba10] + Nemo v0.15.1
  [189a3867] + Reexport v0.2.0
  [276daf66] + SpecialFunctions v0.8.0
  [0dd23c3e] + TwoFAST v0.1.0
  [30578b45] + URIParser v0.4.0
  [2a0f44e3] + Base64 
  [ade2ca70] + Dates 
  [8bb1440f] + DelimitedFiles 
  [8ba89e20] + Distributed 
  [b77e0a4c] + InteractiveUtils 
  [76f85450] + LibGit2 
  [8f399da3] + Libdl 
  [37e2e46d] + LinearAlgebra 
  [56ddb016] + Logging 
  [d6f4376e] + Markdown 
  [a63ad114] + Mmap 
  [44cfe95a] + Pkg 
  [de0858da] + Printf 
  [3fa0cd96] + REPL 
  [9a3f8284] + Random 
  [ea8e919c] + SHA 
  [9e88b42a] + Serialization 
  [6462fe0b] + Sockets 
  [2f01184e] + SparseArrays 
  [8dfed614] + Test 
  [cf7118a7] + UUIDs 
  [4ec0a83e] + Unicode 
  Building Nemo ────────────→ `~/.julia/packages/Nemo/qzx0m/deps/build.log`
  Updating `/tmp/jl_opyzA9/Project.toml`
 [no changes]
  Updating `/tmp/jl_opyzA9/Manifest.toml`
 [no changes]
  Building SpecialFunctions → `~/.julia/packages/SpecialFunctions/ne2iw/deps/build.log`
  Updating `/tmp/jl_bUOYpR/Project.toml`
 [no changes]
  Updating `/tmp/jl_bUOYpR/Manifest.toml`
 [no changes]
  Building FFTW ────────────→ `~/.julia/packages/FFTW/qqcBj/deps/build.log`
  Updating `/tmp/jl_K9ZqgM/Project.toml`
 [no changes]
  Updating `/tmp/jl_K9ZqgM/Manifest.toml`
 [no changes]
   Testing TwoFAST
 Installed Dierckx ─ v0.4.1
  Updating `/tmp/jl_pgUNPO/Project.toml`
  [39dd38d3] + Dierckx v0.4.1
  Updating `/tmp/jl_pgUNPO/Manifest.toml`
  [39dd38d3] + Dierckx v0.4.1
  Building Dierckx → `~/.julia/packages/Dierckx/9SY4A/deps/build.log`
  Updating `/tmp/jl_jYfRyW/Project.toml`
 [no changes]
  Updating `/tmp/jl_jYfRyW/Manifest.toml`
 [no changes]
Running sandbox
Status `/tmp/jl_pgUNPO/Project.toml`
  [39dd38d3] Dierckx v0.4.1
  [7a1cc6ca] FFTW v1.2.0
  [5087d2c0] IncGammaBeta v0.1.0
  [2edaba10] Nemo v0.15.1
  [276daf66] SpecialFunctions v0.8.0
  [0dd23c3e] TwoFAST v0.1.0
  [8bb1440f] DelimitedFiles 
  [37e2e46d] LinearAlgebra 
  [56ddb016] Logging 
  [8dfed614] Test 

Welcome to Nemo version 0.15.1

Nemo comes with absolutely no warranty whatsoever


Welcome to Nemo version 0.15.1

Nemo comes with absolutely no warranty whatsoever

Testing ξ(r), ℓ=0, ν=-1 ... passed
Testing ξ(r), ℓ=0, ν=0 ... passed
Testing ξ(r), ℓ=0, ν=1 ... passed
Testing ξ(r), ℓ=0, ν=2 ... passed
Testing ξ(r), ℓ=0, ν=3 ... passed
Testing ξ(r), ℓ=1, ν=0 ... passed
Testing ξ(r), ℓ=1, ν=1 ... passed
Testing ξ(r), ℓ=1, ν=2 ... passed
Testing ξ(r), ℓ=1, ν=3 ... passed
Testing ξ(r), ℓ=2, ν=-1 ... passed
Testing ξ(r), ℓ=2, ν=0 ... passed
Testing ξ(r), ℓ=2, ν=1 ... passed
Testing ξ(r), ℓ=2, ν=2 ... passed
Testing ξ(r), ℓ=2, ν=3 ... passed
Testing ξ(r), ℓ=3, ν=-1 ... passed
Testing ξ(r), ℓ=3, ν=0 ... passed
Testing ξ(r), ℓ=3, ν=1 ... passed
Testing ξ(r), ℓ=3, ν=2 ... passed
Testing ξ(r), ℓ=3, ν=3 ... passed
Testing ξ(r), ℓ=4, ν=-1 ... passed
Testing ξ(r), ℓ=4, ν=0 ... passed
Testing ξ(r), ℓ=4, ν=1 ... passed
Testing ξ(r), ℓ=4, ν=2 ... passed
Testing ξ(r), ℓ=4, ν=3 ... passed
Testing ξ(r) ... passed
Testing ξ′(r) ... passed
Testing ξ″(r) ... passed
Calculating fmax: 
  dlrec    = 4
  dlrecRg1 = -4
  q=1.1, R=1.1:	  4.577922 seconds (1.20 M allocations: 67.955 MiB, 0.72% gc time)

  4.617998 seconds (1.22 M allocations: 69.064 MiB, 0.71% gc time)
ℓ = 1202
Δℓ = 4
ΔℓRg1 = -4
N = 1600
q = 1.1
kmin = 1.0e-5
kmax = 100000.00000000004
χ0 = 0.023029999999999995
RR = RR.tsv
ℓmax = ℓmax.bin
f21 = f21.bin
kmin = 1.0e-5
kmax = 100000.0
dlrec    = 4
dlrecRg1 = -4
Output size: 5741568 bytes = 0.005347251892089844 GiB
Output size: 51264 bytes = 4.774332046508789e-5 GiB
Reading 'out/F21EllCache'...   0.561686 seconds (318.67 k allocations: 16.381 MiB)
ellmax: 1202
lmaxcache: 1202
fell[:,1,1] = Complex{Float64}[3.9583795592771634e-52 - 9.695233714158177e-68im, 3.990121772925759e-52 - 9.772979714843386e-68im]
ell 1202, elapsed: 9.584426879882812e-5
ell 1201, elapsed: 2.1636338233947754
ell 1200, elapsed: 0.0005469322204589844
ell 1199, elapsed: 0.0005109310150146484
ell 1198, elapsed: 0.0006067752838134766
ell 1002, elapsed: 0.009439229965209961
ell 1001, elapsed: 0.0005249977111816406
ell 1000, elapsed: 0.00047206878662109375
ell 999, elapsed: 0.00045680999755859375
ell 998, elapsed: 0.00045609474182128906
ell 902, elapsed: 0.004939079284667969
ell 901, elapsed: 0.0004980564117431641
ell 900, elapsed: 0.0004680156707763672
ell 899, elapsed: 0.0004661083221435547
ell 898, elapsed: 0.0004799365997314453
ell 802, elapsed: 0.005053043365478516
ell 801, elapsed: 0.0005168914794921875
ell 800, elapsed: 0.0004799365997314453
ell 799, elapsed: 0.0004990100860595703
ell 798, elapsed: 0.0005550384521484375
ell 702, elapsed: 0.004837989807128906
ell 701, elapsed: 0.0004978179931640625
ell 700, elapsed: 0.0005359649658203125
ell 699, elapsed: 0.0005578994750976562
ell 698, elapsed: 0.0005369186401367188
ell 602, elapsed: 0.005084037780761719
ell 601, elapsed: 0.0005481243133544922
ell 600, elapsed: 0.0005168914794921875
ell 599, elapsed: 0.0004889965057373047
ell 598, elapsed: 0.00047206878662109375
ell 502, elapsed: 0.0049381256103515625
ell 501, elapsed: 0.00047898292541503906
ell 500, elapsed: 0.0004630088806152344
ell 499, elapsed: 0.00047206878662109375
ell 498, elapsed: 0.00048613548278808594
ell 402, elapsed: 0.005028963088989258
ell 401, elapsed: 0.0005199909210205078
ell 400, elapsed: 0.0004730224609375
ell 399, elapsed: 0.0004608631134033203
ell 398, elapsed: 0.0004620552062988281
ell 302, elapsed: 0.005001068115234375
ell 301, elapsed: 0.0005140304565429688
ell 300, elapsed: 0.0004811286926269531
ell 299, elapsed: 0.000476837158203125
ell 298, elapsed: 0.0004811286926269531
ell 202, elapsed: 0.005159139633178711
ell 201, elapsed: 0.0004742145538330078
ell 200, elapsed: 0.0006651878356933594
ell 199, elapsed: 0.00047898292541503906
ell 198, elapsed: 0.0004639625549316406
ell 152, elapsed: 0.002550840377807617
ell 151, elapsed: 0.0005040168762207031
ell 150, elapsed: 0.0004658699035644531
ell 149, elapsed: 0.0004608631134033203
ell 148, elapsed: 0.00045990943908691406
ell 127, elapsed: 0.0014998912811279297
ell 126, elapsed: 0.0004620552062988281
ell 125, elapsed: 0.0005538463592529297
ell 124, elapsed: 0.00046706199645996094
ell 123, elapsed: 0.0004730224609375
ell 114, elapsed: 0.0009560585021972656
ell 113, elapsed: 0.0005009174346923828
ell 112, elapsed: 0.00047397613525390625
ell 111, elapsed: 0.00047516822814941406
ell 110, elapsed: 0.0005860328674316406
ell 102, elapsed: 0.0009319782257080078
ell 101, elapsed: 0.0005128383636474609
ell 100, elapsed: 0.0005428791046142578
ell 99, elapsed: 0.0004680156707763672
ell 98, elapsed: 0.0004830360412597656
ell 97, elapsed: 0.0005919933319091797
ell 96, elapsed: 0.0006871223449707031
ell 95, elapsed: 0.0005469322204589844
ell 94, elapsed: 0.0006029605865478516
ell 93, elapsed: 0.0005080699920654297
ell 92, elapsed: 0.0005831718444824219
ell 91, elapsed: 0.0005118846893310547
ell 90, elapsed: 0.0006098747253417969
ell 89, elapsed: 0.0005540847778320312
ell 88, elapsed: 0.0006630420684814453
ell 87, elapsed: 0.0005509853363037109
ell 86, elapsed: 0.0006577968597412109
ell 85, elapsed: 0.0005278587341308594
ell 84, elapsed: 0.0006959438323974609
ell 83, elapsed: 0.0005249977111816406
ell 82, elapsed: 0.0005879402160644531
ell 81, elapsed: 0.0004968643188476562
ell 80, elapsed: 0.0005810260772705078
ell 79, elapsed: 0.00051116943359375
ell 78, elapsed: 0.0005869865417480469
ell 77, elapsed: 0.0005879402160644531
ell 76, elapsed: 0.0006508827209472656
ell 75, elapsed: 0.0005800724029541016
ell 74, elapsed: 0.0006549358367919922
ell 73, elapsed: 0.0005068778991699219
ell 72, elapsed: 0.0005741119384765625
ell 71, elapsed: 0.0006020069122314453
ell 70, elapsed: 0.0005948543548583984
ell 69, elapsed: 0.0005099773406982422
ell 68, elapsed: 0.0005850791931152344
ell 67, elapsed: 0.0005087852478027344
ell 66, elapsed: 0.0005860328674316406
ell 65, elapsed: 0.0005161762237548828
ell 64, elapsed: 0.0006761550903320312
ell 63, elapsed: 0.0004889965057373047
ell 62, elapsed: 0.0005700588226318359
ell 61, elapsed: 0.0004820823669433594
ell 60, elapsed: 0.0005910396575927734
ell 59, elapsed: 0.0005178451538085938
ell 58, elapsed: 0.0007090568542480469
ell 57, elapsed: 0.0006330013275146484
ell 56, elapsed: 0.0007159709930419922
ell 55, elapsed: 0.00061798095703125
ell 54, elapsed: 0.0007061958312988281
ell 53, elapsed: 0.0006270408630371094
ell 52, elapsed: 0.0007269382476806641
ell 51, elapsed: 0.0006208419799804688
ell 50, elapsed: 0.0007178783416748047
ell 49, elapsed: 0.0006210803985595703
ell 48, elapsed: 0.0007178783416748047
ell 47, elapsed: 0.0006210803985595703
ell 46, elapsed: 0.0007250308990478516
ell 45, elapsed: 0.0006241798400878906
ell 44, elapsed: 0.0007090568542480469
ell 43, elapsed: 0.0006191730499267578
ell 42, elapsed: 0.0007119178771972656
ell 41, elapsed: 0.00061798095703125
ell 40, elapsed: 0.0007810592651367188
ell 39, elapsed: 0.0006258487701416016
ell 38, elapsed: 0.0007200241088867188
ell 37, elapsed: 0.0006279945373535156
ell 36, elapsed: 0.0007028579711914062
ell 35, elapsed: 0.0006158351898193359
ell 34, elapsed: 0.0007748603820800781
ell 33, elapsed: 0.0006260871887207031
ell 32, elapsed: 0.0007071495056152344
ell 31, elapsed: 0.0006229877471923828
ell 30, elapsed: 0.0007061958312988281
ell 29, elapsed: 0.0007030963897705078
ell 28, elapsed: 0.000720977783203125
ell 27, elapsed: 0.0006239414215087891
ell 26, elapsed: 0.0007090568542480469
ell 25, elapsed: 0.0006229877471923828
ell 24, elapsed: 0.0007050037384033203
ell 23, elapsed: 0.0007059574127197266
ell 22, elapsed: 0.0007169246673583984
ell 21, elapsed: 0.0006279945373535156
ell 20, elapsed: 0.0007200241088867188
ell 19, elapsed: 0.0006239414215087891
ell 18, elapsed: 0.0007350444793701172
ell 17, elapsed: 0.0006239414215087891
ell 16, elapsed: 0.0007128715515136719
ell 15, elapsed: 0.0006220340728759766
ell 14, elapsed: 0.0007090568542480469
ell 13, elapsed: 0.0006291866302490234
ell 12, elapsed: 0.0007200241088867188
ell 11, elapsed: 0.0006191730499267578
ell 10, elapsed: 0.0007100105285644531
ell 9, elapsed: 0.0006251335144042969
ell 8, elapsed: 0.0007119178771972656
ell 7, elapsed: 0.0006201267242431641
ell 6, elapsed: 0.000720977783203125
ell 5, elapsed: 0.0006241798400878906
ell 4, elapsed: 0.0006968975067138672
ell 3, elapsed: 0.0006198883056640625
ell 2, elapsed: 0.0007038116455078125
ell 1, elapsed: 0.0006220340728759766
ell 0, elapsed: 0.0007278919219970703
  2.978602 seconds (1.75 M allocations: 85.471 MiB, 1.69% gc time)
elapsed: 0.0007429122924804688
step:          0.760953 sec (402.549 k allocations: 20.272 MB, 3.3% gc time)
swapping:      0.000543 sec (0 allocations: 0 byte, 0.0% gc time)
calc_Mellell!: 0.574711 sec (296.399 k allocations: 14.958 MB, 4.38% gc time)
  t0 :  0.0 sec (0 allocations: 0 byte, 0.0% gc time)
  tm2 : 0.0 sec (0 allocations: 0 byte, 0.0% gc time)
  tm2s: 0.0 sec (0 allocations: 0 byte, 0.0% gc time)
  tm4 : 0.0 sec (0 allocations: 0 byte, 0.0% gc time)
  tp2 : 0.0 sec (0 allocations: 0 byte, 0.0% gc time)
  tp2s: 0.0 sec (0 allocations: 0 byte, 0.0% gc time)
  tp4 : 0.0 sec (0 allocations: 0 byte, 0.0% gc time)
calc_wtdll!:   0.958059 sec (525.859 k allocations: 26.376 MB, 0.0% gc time)
calc_wljj!:    0.003473 sec (6 allocations: 96 byte, 0.0% gc time)
mult_prefac!:  0.0 sec (0 allocations: 0 byte, 0.0% gc time)
convert:       0.0 sec (0 allocations: 0 byte, 0.0% gc time)
write:         0.005445 sec (0 allocations: 0 byte, 0.0% gc time)
test_rand_2f1: 0.0 sec (0 allocations: 0 byte, 0.0% gc time)
Closing outfile out/Ml21-cache.bin...   0.000563 seconds
  1.037592 seconds (8.66 k allocations: 420.969 KiB)
make_phi():   0.013181 seconds (8.20 k allocations: 238.016 KiB)
  0.225639 seconds (121.70 k allocations: 5.902 MiB)
tskip:       2.4e-5 sec (0 allocations: 0 byte, 0.0% gc time)
tread:       0.002588 sec (19 allocations: 2.172 KB, 0.0% gc time)
tmultphi:    0.040492 sec (26.022 k allocations: 1.338 MB, 0.0% gc time)
tbrfft:      0.005388 sec (896 allocations: 42.0 KB, 0.0% gc time)
tmultprefac: 0.003325 sec (0 allocations: 0 byte, 0.0% gc time)
toutfunc:    0.173662 sec (94.108 k allocations: 4.451 MB, 0.0% gc time)
Testing R=1.1 ... passed
Calculating fmax: 
  dlrec    = 4
  dlrecRg1 = -4
  q=1.1, R=1.0:	  0.001683 seconds (4.00 k allocations: 300.375 KiB)

  0.001830 seconds (4.04 k allocations: 335.062 KiB)
ℓ = 1202
Δℓ = 4
ΔℓRg1 = -4
N = 1600
q = 1.1
kmin = 1.0e-5
kmax = 100000.00000000004
χ0 = 0.023029999999999995
RR = RR.tsv
ℓmax = ℓmax.bin
f21 = f21.bin
kmin = 1.0e-5
kmax = 100000.0
dlrec    = 4
dlrecRg1 = -4
Output size: 61465536 bytes = 0.05724424123764038 GiB
Output size: 51264 bytes = 4.774332046508789e-5 GiB
Reading 'out/F21EllCache'...   0.001033 seconds (267 allocations: 84.656 KiB)
ellmax: 1202
lmaxcache: 1202
fell[:,1,1] = Complex{Float64}[809.6031528389767 - 1.9829558194077161e-13im, 0.0 + 0.0im]
ell 1202, elapsed: 2.09808349609375e-5
ell 1201, elapsed: 0.014018058776855469
ell 1200, elapsed: 0.000469207763671875
ell 1199, elapsed: 0.0005481243133544922
ell 1198, elapsed: 0.0005488395690917969
ell 1197, elapsed: 0.0005691051483154297
ell 1196, elapsed: 0.0006978511810302734
ell 1195, elapsed: 0.0005030632019042969
ell 1194, elapsed: 0.0005400180816650391
ell 1193, elapsed: 0.0006418228149414062
ell 1192, elapsed: 0.0005528926849365234
ell 1191, elapsed: 0.0007090568542480469
ell 1190, elapsed: 0.0006148815155029297
ell 1189, elapsed: 0.0006639957427978516
ell 1188, elapsed: 0.0005359649658203125
ell 1187, elapsed: 0.00047087669372558594
ell 1186, elapsed: 0.0003688335418701172
ell 1185, elapsed: 0.0004429817199707031
ell 1184, elapsed: 0.0005359649658203125
ell 1183, elapsed: 0.0008339881896972656
ell 1182, elapsed: 0.0004241466522216797
ell 1181, elapsed: 0.0006392002105712891
ell 1180, elapsed: 0.0006110668182373047
ell 1179, elapsed: 0.0006330013275146484
ell 1178, elapsed: 0.0005178451538085938
ell 1177, elapsed: 0.0008299350738525391
ell 1176, elapsed: 0.0005631446838378906
ell 1175, elapsed: 0.000720977783203125
ell 1174, elapsed: 0.0005631446838378906
ell 1173, elapsed: 0.0006010532379150391
ell 1172, elapsed: 0.0004968643188476562
ell 1171, elapsed: 0.0007147789001464844
ell 1170, elapsed: 0.0005571842193603516
ell 1169, elapsed: 0.0005910396575927734
ell 1168, elapsed: 0.00055694580078125
ell 1167, elapsed: 0.0007200241088867188
ell 1166, elapsed: 0.00045299530029296875
ell 1165, elapsed: 0.0005800724029541016
ell 1164, elapsed: 0.0005910396575927734
ell 1163, elapsed: 0.0004608631134033203
ell 1162, elapsed: 0.0005059242248535156
ell 1161, elapsed: 0.0007200241088867188
ell 1160, elapsed: 0.0005929470062255859
ell 1159, elapsed: 0.0006821155548095703
ell 1158, elapsed: 0.0007309913635253906
ell 1157, elapsed: 0.0006439685821533203
ell 1156, elapsed: 0.00046706199645996094
ell 1155, elapsed: 0.0006301403045654297
ell 1154, elapsed: 0.0004010200500488281
ell 1153, elapsed: 0.0006651878356933594
ell 1152, elapsed: 0.0004870891571044922
ell 1151, elapsed: 0.0006041526794433594
ell 1150, elapsed: 0.0005860328674316406
ell 1149, elapsed: 0.0006098747253417969
ell 1148, elapsed: 0.00038886070251464844
ell 1147, elapsed: 0.0006608963012695312
ell 1146, elapsed: 0.0005009174346923828
ell 1145, elapsed: 0.0006628036499023438
ell 1144, elapsed: 0.0005900859832763672
ell 1143, elapsed: 0.0006749629974365234
ell 1142, elapsed: 0.0004849433898925781
ell 1141, elapsed: 0.00045013427734375
ell 1140, elapsed: 0.0003829002380371094
ell 1139, elapsed: 0.0006518363952636719
ell 1138, elapsed: 0.0005488395690917969
ell 1137, elapsed: 0.0006849765777587891
ell 1136, elapsed: 0.0006120204925537109
ell 1135, elapsed: 0.0007259845733642578
ell 1134, elapsed: 0.0006160736083984375
ell 1133, elapsed: 0.0007150173187255859
ell 1132, elapsed: 0.0005688667297363281
ell 1131, elapsed: 0.0007219314575195312
ell 1130, elapsed: 0.0004379749298095703
ell 1129, elapsed: 0.0004611015319824219
ell 1128, elapsed: 0.0005609989166259766
ell 1127, elapsed: 0.0007309913635253906
ell 1126, elapsed: 0.0005440711975097656
ell 1125, elapsed: 0.0006620883941650391
ell 1124, elapsed: 0.0005109310150146484
ell 1123, elapsed: 0.0006659030914306641
ell 1122, elapsed: 0.0006091594696044922
ell 1121, elapsed: 0.0007259845733642578
ell 1120, elapsed: 0.0004589557647705078
ell 1119, elapsed: 0.0004658699035644531
ell 1118, elapsed: 0.0004811286926269531
ell 1117, elapsed: 0.0007259845733642578
ell 1116, elapsed: 0.0006101131439208984
ell 1115, elapsed: 0.0005481243133544922
ell 1114, elapsed: 0.0005550384521484375
ell 1113, elapsed: 0.0008549690246582031
ell 1112, elapsed: 0.0005230903625488281
ell 1111, elapsed: 0.0006630420684814453
ell 1110, elapsed: 0.0006070137023925781
ell 1109, elapsed: 0.0007188320159912109
ell 1108, elapsed: 0.0007288455963134766
ell 1107, elapsed: 0.0005259513854980469
ell 1106, elapsed: 0.0005331039428710938
ell 1105, elapsed: 0.0007171630859375
ell 1104, elapsed: 0.000598907470703125
ell 1103, elapsed: 0.0007190704345703125
ell 1102, elapsed: 0.0006411075592041016
ell 1101, elapsed: 0.0006678104400634766
ell 1100, elapsed: 0.0006070137023925781
ell 1099, elapsed: 0.0006589889526367188
ell 1098, elapsed: 0.0003879070281982422
ell 1097, elapsed: 0.0006740093231201172
ell 1096, elapsed: 0.0005960464477539062
ell 1095, elapsed: 0.0005679130554199219
ell 1094, elapsed: 0.00038313865661621094
ell 1093, elapsed: 0.0005748271942138672
ell 1092, elapsed: 0.0006158351898193359
ell 1091, elapsed: 0.0007181167602539062
ell 1090, elapsed: 0.0005259513854980469
ell 1089, elapsed: 0.0004749298095703125
ell 1088, elapsed: 0.0004818439483642578
ell 1087, elapsed: 0.0007250308990478516
ell 1086, elapsed: 0.00047016143798828125
ell 1085, elapsed: 0.0006680488586425781
ell 1084, elapsed: 0.00046515464782714844
ell 1083, elapsed: 0.0006489753723144531
ell 1082, elapsed: 0.0004601478576660156
ell 1081, elapsed: 0.0004360675811767578
ell 1080, elapsed: 0.00037217140197753906
ell 1079, elapsed: 0.0006508827209472656
ell 1078, elapsed: 0.0006089210510253906
ell 1077, elapsed: 0.000720977783203125
ell 1076, elapsed: 0.00042700767517089844
ell 1075, elapsed: 0.0005998611450195312
ell 1074, elapsed: 0.000614166259765625
ell 1073, elapsed: 0.0007359981536865234
ell 1072, elapsed: 0.0006201267242431641
ell 1071, elapsed: 0.0007309913635253906
ell 1070, elapsed: 0.0006358623504638672
ell 1069, elapsed: 0.0005288124084472656
ell 1068, elapsed: 0.0004661083221435547
ell 1067, elapsed: 0.0007197856903076172
ell 1066, elapsed: 0.0005180835723876953
ell 1065, elapsed: 0.0004699230194091797
ell 1064, elapsed: 0.0005421638488769531
ell 1063, elapsed: 0.0005650520324707031
ell 1062, elapsed: 0.0005488395690917969
ell 1061, elapsed: 0.0005819797515869141
ell 1060, elapsed: 0.0003750324249267578
ell 1059, elapsed: 0.0004420280456542969
ell 1058, elapsed: 0.00037097930908203125
ell 1057, elapsed: 0.0005609989166259766
ell 1056, elapsed: 0.0006339550018310547
ell 1055, elapsed: 0.0005190372467041016
ell 1054, elapsed: 0.0005290508270263672
ell 1053, elapsed: 0.0007259845733642578
ell 1052, elapsed: 0.0005059242248535156
ell 1051, elapsed: 0.0006151199340820312
ell 1050, elapsed: 0.0005199909210205078
ell 1049, elapsed: 0.0006670951843261719
ell 1048, elapsed: 0.0006070137023925781
ell 1047, elapsed: 0.0007128715515136719
ell 1046, elapsed: 0.0004649162292480469
ell 1045, elapsed: 0.0006110668182373047
ell 1044, elapsed: 0.0004780292510986328
ell 1043, elapsed: 0.0006558895111083984
ell 1042, elapsed: 0.00049591064453125
ell 1041, elapsed: 0.0006659030914306641
ell 1040, elapsed: 0.0006108283996582031
ell 1039, elapsed: 0.0007259845733642578
ell 1038, elapsed: 0.00055694580078125
ell 1037, elapsed: 0.0006880760192871094
ell 1036, elapsed: 0.00047707557678222656
ell 1035, elapsed: 0.0007379055023193359
ell 1034, elapsed: 0.0005090236663818359
ell 1033, elapsed: 0.0004589557647705078
ell 1032, elapsed: 0.0004980564117431641
ell 1031, elapsed: 0.0005919933319091797
ell 1030, elapsed: 0.0003750324249267578
ell 1029, elapsed: 0.00045800209045410156
ell 1028, elapsed: 0.00036406517028808594
ell 1027, elapsed: 0.00044918060302734375
ell 1026, elapsed: 0.0005240440368652344
ell 1025, elapsed: 0.0006930828094482422
ell 1024, elapsed: 0.0005040168762207031
ell 1023, elapsed: 0.0006380081176757812
ell 1022, elapsed: 0.00044989585876464844
ell 1021, elapsed: 0.0004489421844482422
ell 1020, elapsed: 0.0005500316619873047
ell 1019, elapsed: 0.0006940364837646484
ell 1018, elapsed: 0.0005891323089599609
ell 1017, elapsed: 0.0007119178771972656
ell 1016, elapsed: 0.0005121231079101562
ell 1015, elapsed: 0.0004551410675048828
ell 1014, elapsed: 0.0005669593811035156
ell 1013, elapsed: 0.0005629062652587891
ell 1012, elapsed: 0.00037097930908203125
ell 1011, elapsed: 0.0004398822784423828
ell 1010, elapsed: 0.0003750324249267578
ell 1009, elapsed: 0.0004668235778808594
ell 1008, elapsed: 0.0005571842193603516
ell 1007, elapsed: 0.0006070137023925781
ell 1006, elapsed: 0.0005648136138916016
ell 1005, elapsed: 0.0007240772247314453
ell 1004, elapsed: 0.0006010532379150391
ell 1003, elapsed: 0.0007460117340087891
ell 1002, elapsed: 0.0006029605865478516
ell 1001, elapsed: 0.0007200241088867188
ell 1000, elapsed: 0.0005028247833251953
ell 999, elapsed: 0.0006358623504638672
ell 998, elapsed: 0.0004858970642089844
ell 997, elapsed: 0.0007119178771972656
ell 996, elapsed: 0.0006089210510253906
ell 995, elapsed: 0.0007169246673583984
ell 994, elapsed: 0.0005922317504882812
ell 993, elapsed: 0.0006051063537597656
ell 992, elapsed: 0.0005390644073486328
ell 991, elapsed: 0.0008540153503417969
ell 990, elapsed: 0.00046515464782714844
ell 989, elapsed: 0.0004489421844482422
ell 988, elapsed: 0.0003781318664550781
ell 987, elapsed: 0.0005979537963867188
ell 986, elapsed: 0.0006000995635986328
ell 985, elapsed: 0.0007221698760986328
ell 984, elapsed: 0.0006060600280761719
ell 983, elapsed: 0.0006661415100097656
ell 982, elapsed: 0.0005979537963867188
ell 981, elapsed: 0.0007278919219970703
ell 980, elapsed: 0.000598907470703125
ell 979, elapsed: 0.0007259845733642578
ell 978, elapsed: 0.0006101131439208984
ell 977, elapsed: 0.0007021427154541016
ell 976, elapsed: 0.0005829334259033203
ell 975, elapsed: 0.0006909370422363281
ell 974, elapsed: 0.0006058216094970703
ell 973, elapsed: 0.0008521080017089844
ell 972, elapsed: 0.000476837158203125
ell 971, elapsed: 0.0004169940948486328
ell 970, elapsed: 0.0005230903625488281
ell 969, elapsed: 0.0007181167602539062
ell 968, elapsed: 0.0006039142608642578
ell 967, elapsed: 0.0008599758148193359
ell 966, elapsed: 0.0004811286926269531
ell 965, elapsed: 0.0006589889526367188
ell 964, elapsed: 0.0005230903625488281
ell 963, elapsed: 0.00045990943908691406
ell 962, elapsed: 0.00048804283142089844
ell 961, elapsed: 0.0007200241088867188
ell 960, elapsed: 0.0007460117340087891
ell 959, elapsed: 0.0006041526794433594
ell 958, elapsed: 0.0003731250762939453
ell 957, elapsed: 0.0004661083221435547
ell 956, elapsed: 0.0003819465637207031
ell 955, elapsed: 0.00047898292541503906
ell 954, elapsed: 0.00046896934509277344
ell 953, elapsed: 0.0008399486541748047
ell 952, elapsed: 0.0005090236663818359
ell 951, elapsed: 0.0006530284881591797
ell 950, elapsed: 0.0005769729614257812
ell 949, elapsed: 0.0005679130554199219
ell 948, elapsed: 0.00047898292541503906
ell 947, elapsed: 0.0008809566497802734
ell 946, elapsed: 0.0004620552062988281
ell 945, elapsed: 0.0006480216979980469
ell 944, elapsed: 0.0005669593811035156
ell 943, elapsed: 0.0007300376892089844
ell 942, elapsed: 0.0005340576171875
ell 941, elapsed: 0.00086212158203125
ell 940, elapsed: 0.00061798095703125
ell 939, elapsed: 0.0007169246673583984
ell 938, elapsed: 0.0006129741668701172
ell 937, elapsed: 0.0006411075592041016
ell 936, elapsed: 0.0005469322204589844
ell 935, elapsed: 0.0007109642028808594
ell 934, elapsed: 0.0005600452423095703
ell 933, elapsed: 0.000698089599609375
ell 932, elapsed: 0.0005829334259033203
ell 931, elapsed: 0.0007109642028808594
ell 930, elapsed: 0.0005338191986083984
ell 929, elapsed: 0.0005588531494140625
ell 928, elapsed: 0.00036716461181640625
ell 927, elapsed: 0.00044608116149902344
ell 926, elapsed: 0.000370025634765625
ell 925, elapsed: 0.0006699562072753906
ell 924, elapsed: 0.0004968643188476562
ell 923, elapsed: 0.0004611015319824219
ell 922, elapsed: 0.0006659030914306641
ell 921, elapsed: 0.0006020069122314453
ell 920, elapsed: 0.0005040168762207031
ell 919, elapsed: 0.0007300376892089844
ell 918, elapsed: 0.0006060600280761719
ell 917, elapsed: 0.0007231235504150391
ell 916, elapsed: 0.0007379055023193359
ell 915, elapsed: 0.0006129741668701172
ell 914, elapsed: 0.0003838539123535156
ell 913, elapsed: 0.0005910396575927734
ell 912, elapsed: 0.0005271434783935547
ell 911, elapsed: 0.0006451606750488281
ell 910, elapsed: 0.0007488727569580078
ell 909, elapsed: 0.0007472038269042969
ell 908, elapsed: 0.00047397613525390625
ell 907, elapsed: 0.0005960464477539062
ell 906, elapsed: 0.0005941390991210938
ell 905, elapsed: 0.0005779266357421875
ell 904, elapsed: 0.00038504600524902344
ell 903, elapsed: 0.00051116943359375
ell 902, elapsed: 0.000331878662109375
ell 901, elapsed: 0.0003979206085205078
ell 900, elapsed: 0.00047898292541503906
ell 899, elapsed: 0.0006210803985595703
ell 898, elapsed: 0.000370025634765625
ell 897, elapsed: 0.0005970001220703125
ell 896, elapsed: 0.0004801750183105469
ell 895, elapsed: 0.0004849433898925781
ell 894, elapsed: 0.0005271434783935547
ell 893, elapsed: 0.0005419254302978516
ell 892, elapsed: 0.0005099773406982422
ell 891, elapsed: 0.000698089599609375
ell 890, elapsed: 0.0005080699920654297
ell 889, elapsed: 0.0006079673767089844
ell 888, elapsed: 0.0005090236663818359
ell 887, elapsed: 0.00045108795166015625
ell 886, elapsed: 0.0005469322204589844
ell 885, elapsed: 0.0006258487701416016
ell 884, elapsed: 0.00043511390686035156
ell 883, elapsed: 0.000701904296875
ell 882, elapsed: 0.0005338191986083984
ell 881, elapsed: 0.0004489421844482422
ell 880, elapsed: 0.0005090236663818359
ell 879, elapsed: 0.0008311271667480469
ell 878, elapsed: 0.0006999969482421875
ell 877, elapsed: 0.0008168220520019531
ell 876, elapsed: 0.0007369518280029297
ell 875, elapsed: 0.000804901123046875
ell 874, elapsed: 0.0006818771362304688
ell 873, elapsed: 0.0008139610290527344
ell 872, elapsed: 0.0006830692291259766
ell 871, elapsed: 0.0008211135864257812
ell 870, elapsed: 0.00067901611328125
ell 869, elapsed: 0.0008099079132080078
ell 868, elapsed: 0.0006718635559082031
ell 867, elapsed: 0.00078582763671875
ell 866, elapsed: 0.000782012939453125
ell 865, elapsed: 0.0007920265197753906
ell 864, elapsed: 0.0006709098815917969
ell 863, elapsed: 0.0007870197296142578
ell 862, elapsed: 0.0006659030914306641
ell 861, elapsed: 0.0007989406585693359
ell 860, elapsed: 0.0006768703460693359
ell 859, elapsed: 0.00080108642578125
ell 858, elapsed: 0.0006639957427978516
ell 857, elapsed: 0.0007898807525634766
ell 856, elapsed: 0.0007779598236083984
ell 855, elapsed: 0.0007951259613037109
ell 854, elapsed: 0.0006680488586425781
ell 853, elapsed: 0.0007910728454589844
ell 852, elapsed: 0.0006699562072753906
ell 851, elapsed: 0.0009391307830810547
ell 850, elapsed: 0.0006740093231201172
ell 849, elapsed: 0.0007951259613037109
ell 848, elapsed: 0.0006699562072753906
ell 847, elapsed: 0.0007891654968261719
ell 846, elapsed: 0.0006930828094482422
ell 845, elapsed: 0.0007958412170410156
ell 844, elapsed: 0.0006728172302246094
ell 843, elapsed: 0.0007970333099365234
ell 842, elapsed: 0.0006659030914306641
ell 841, elapsed: 0.0008051395416259766
ell 840, elapsed: 0.0006670951843261719
ell 839, elapsed: 0.0007920265197753906
ell 838, elapsed: 0.0006659030914306641
ell 837, elapsed: 0.0007810592651367188
ell 836, elapsed: 0.0006811618804931641
ell 835, elapsed: 0.0007901191711425781
ell 834, elapsed: 0.0006690025329589844
ell 833, elapsed: 0.0007879734039306641
ell 832, elapsed: 0.0006740093231201172
ell 831, elapsed: 0.0008060932159423828
ell 830, elapsed: 0.0006849765777587891
ell 829, elapsed: 0.000782012939453125
ell 828, elapsed: 0.0006659030914306641
ell 827, elapsed: 0.0007810592651367188
ell 826, elapsed: 0.000682830810546875
ell 825, elapsed: 0.0007848739624023438
ell 824, elapsed: 0.0006680488586425781
ell 823, elapsed: 0.0007891654968261719
ell 822, elapsed: 0.0006659030914306641
ell 821, elapsed: 0.0008561611175537109
ell 820, elapsed: 0.0006690025329589844
ell 819, elapsed: 0.0007760524749755859
ell 818, elapsed: 0.0006761550903320312
ell 817, elapsed: 0.0007910728454589844
ell 816, elapsed: 0.0006990432739257812
ell 815, elapsed: 0.0007898807525634766
ell 814, elapsed: 0.0006740093231201172
ell 813, elapsed: 0.0008099079132080078
ell 812, elapsed: 0.0006730556488037109
ell 811, elapsed: 0.0008080005645751953
ell 810, elapsed: 0.0006730556488037109
ell 809, elapsed: 0.0007920265197753906
ell 808, elapsed: 0.00067901611328125
ell 807, elapsed: 0.0008029937744140625
ell 806, elapsed: 0.0008039474487304688
ell 805, elapsed: 0.0008029937744140625
ell 804, elapsed: 0.0006740093231201172
ell 803, elapsed: 0.0008029937744140625
ell 802, elapsed: 0.0006778240203857422
ell 801, elapsed: 0.0009429454803466797
ell 800, elapsed: 0.0006730556488037109
ell 799, elapsed: 0.0007932186126708984
ell 798, elapsed: 0.0006709098815917969
ell 797, elapsed: 0.0007829666137695312
ell 796, elapsed: 0.0008089542388916016
ell 795, elapsed: 0.0008060932159423828
ell 794, elapsed: 0.0006740093231201172
ell 793, elapsed: 0.0008029937744140625
ell 792, elapsed: 0.0006809234619140625
ell 791, elapsed: 0.0009419918060302734
ell 790, elapsed: 0.0006721019744873047
ell 789, elapsed: 0.0007920265197753906
ell 788, elapsed: 0.0006699562072753906
ell 787, elapsed: 0.0007929801940917969
ell 786, elapsed: 0.000804901123046875
ell 785, elapsed: 0.0008139610290527344
ell 784, elapsed: 0.0006680488586425781
ell 783, elapsed: 0.0007929801940917969
ell 782, elapsed: 0.0006730556488037109
ell 781, elapsed: 0.0009300708770751953
ell 780, elapsed: 0.0006709098815917969
ell 779, elapsed: 0.0008058547973632812
ell 778, elapsed: 0.0006740093231201172
ell 777, elapsed: 0.0008051395416259766
ell 776, elapsed: 0.0008029937744140625
ell 775, elapsed: 0.0008039474487304688
ell 774, elapsed: 0.0006709098815917969
ell 773, elapsed: 0.0008060932159423828
ell 772, elapsed: 0.0006680488586425781
ell 771, elapsed: 0.0009551048278808594
ell 770, elapsed: 0.0006749629974365234
ell 769, elapsed: 0.0007870197296142578
ell 768, elapsed: 0.0006568431854248047
ell 767, elapsed: 0.00078582763671875
ell 766, elapsed: 0.0008180141448974609
ell 765, elapsed: 0.0008070468902587891
ell 764, elapsed: 0.0006690025329589844
ell 763, elapsed: 0.0007979869842529297
ell 762, elapsed: 0.0006728172302246094
ell 761, elapsed: 0.0009350776672363281
ell 760, elapsed: 0.0006690025329589844
ell 759, elapsed: 0.0007998943328857422
ell 758, elapsed: 0.0006659030914306641
ell 757, elapsed: 0.0009350776672363281
ell 756, elapsed: 0.0006721019744873047
ell 755, elapsed: 0.0007908344268798828
ell 754, elapsed: 0.0006659030914306641
ell 753, elapsed: 0.0008080005645751953
ell 752, elapsed: 0.0008039474487304688
ell 751, elapsed: 0.0008168220520019531
ell 750, elapsed: 0.0006041526794433594
ell 749, elapsed: 0.0005071163177490234
ell 748, elapsed: 0.0004069805145263672
ell 747, elapsed: 0.0004978179931640625
ell 746, elapsed: 0.0004181861877441406
ell 745, elapsed: 0.0004999637603759766
ell 744, elapsed: 0.0004191398620605469
ell 743, elapsed: 0.0004858970642089844
ell 742, elapsed: 0.0004119873046875
ell 741, elapsed: 0.0004951953887939453
ell 740, elapsed: 0.0004169940948486328
ell 739, elapsed: 0.0004930496215820312
ell 738, elapsed: 0.00041294097900390625
ell 737, elapsed: 0.0005099773406982422
ell 736, elapsed: 0.00041604042053222656
ell 735, elapsed: 0.0004971027374267578
ell 734, elapsed: 0.0004169940948486328
ell 733, elapsed: 0.0004971027374267578
ell 732, elapsed: 0.0005350112915039062
ell 731, elapsed: 0.0006010532379150391
ell 730, elapsed: 0.0004138946533203125
ell 729, elapsed: 0.0005950927734375
ell 728, elapsed: 0.00041604042053222656
ell 727, elapsed: 0.0004980564117431641
ell 726, elapsed: 0.0004169940948486328
ell 725, elapsed: 0.0004930496215820312
ell 724, elapsed: 0.0004119873046875
ell 723, elapsed: 0.0004901885986328125
ell 722, elapsed: 0.0005290508270263672
ell 721, elapsed: 0.000640869140625
ell 720, elapsed: 0.0004189014434814453
ell 719, elapsed: 0.0006968975067138672
ell 718, elapsed: 0.0004420280456542969
ell 717, elapsed: 0.0004980564117431641
ell 716, elapsed: 0.0004210472106933594
ell 715, elapsed: 0.0004949569702148438
ell 714, elapsed: 0.00042819976806640625
ell 713, elapsed: 0.0004930496215820312
ell 712, elapsed: 0.0004169940948486328
ell 711, elapsed: 0.0004930496215820312
ell 710, elapsed: 0.00041794776916503906
ell 709, elapsed: 0.0004899501800537109
ell 708, elapsed: 0.0004191398620605469
ell 707, elapsed: 0.00049591064453125
ell 706, elapsed: 0.00042510032653808594
ell 705, elapsed: 0.0006990432739257812
ell 704, elapsed: 0.00048804283142089844
ell 703, elapsed: 0.0006990432739257812
ell 702, elapsed: 0.00044798851013183594
ell 701, elapsed: 0.0004889965057373047
ell 700, elapsed: 0.00041604042053222656
ell 699, elapsed: 0.0006389617919921875
ell 698, elapsed: 0.0005128383636474609
ell 697, elapsed: 0.000492095947265625
ell 696, elapsed: 0.0004169940948486328
ell 695, elapsed: 0.0006809234619140625
ell 694, elapsed: 0.00047397613525390625
ell 693, elapsed: 0.0006420612335205078
ell 692, elapsed: 0.0005178451538085938
ell 691, elapsed: 0.0004990100860595703
ell 690, elapsed: 0.0004189014434814453
ell 689, elapsed: 0.0004909038543701172
ell 688, elapsed: 0.0005021095275878906
ell 687, elapsed: 0.0006759166717529297
ell 686, elapsed: 0.00041794776916503906
ell 685, elapsed: 0.0004961490631103516
ell 684, elapsed: 0.00041985511779785156
ell 683, elapsed: 0.0004909038543701172
ell 682, elapsed: 0.0004169940948486328
ell 681, elapsed: 0.0004949569702148438
ell 680, elapsed: 0.0004899501800537109
ell 679, elapsed: 0.0006639957427978516
ell 678, elapsed: 0.00040984153747558594
ell 677, elapsed: 0.0005099773406982422
ell 676, elapsed: 0.00041103363037109375
ell 675, elapsed: 0.0004858970642089844
ell 674, elapsed: 0.0004100799560546875
ell 673, elapsed: 0.00048613548278808594
ell 672, elapsed: 0.00041294097900390625
ell 671, elapsed: 0.0004968643188476562
ell 670, elapsed: 0.0004169940948486328
ell 669, elapsed: 0.0005948543548583984
ell 668, elapsed: 0.0005440711975097656
ell 667, elapsed: 0.0004940032958984375
ell 666, elapsed: 0.0004100799560546875
ell 665, elapsed: 0.0004899501800537109
ell 664, elapsed: 0.0004088878631591797
ell 663, elapsed: 0.0006940364837646484
ell 662, elapsed: 0.0005221366882324219
ell 661, elapsed: 0.0007460117340087891
ell 660, elapsed: 0.0005459785461425781
ell 659, elapsed: 0.0004949569702148438
ell 658, elapsed: 0.00040984153747558594
ell 657, elapsed: 0.00048804283142089844
ell 656, elapsed: 0.0005660057067871094
ell 655, elapsed: 0.0006270408630371094
ell 654, elapsed: 0.0004220008850097656
ell 653, elapsed: 0.0004940032958984375
ell 652, elapsed: 0.00055694580078125
ell 651, elapsed: 0.0007240772247314453
ell 650, elapsed: 0.0006201267242431641
ell 649, elapsed: 0.0007369518280029297
ell 648, elapsed: 0.0006520748138427734
ell 647, elapsed: 0.0007338523864746094
ell 646, elapsed: 0.0006101131439208984
ell 645, elapsed: 0.0007190704345703125
ell 644, elapsed: 0.0005741119384765625
ell 643, elapsed: 0.0007619857788085938
ell 642, elapsed: 0.0006079673767089844
ell 641, elapsed: 0.0007219314575195312
ell 640, elapsed: 0.0006201267242431641
ell 639, elapsed: 0.0007350444793701172
ell 638, elapsed: 0.0005619525909423828
ell 637, elapsed: 0.000720977783203125
ell 636, elapsed: 0.0004978179931640625
ell 635, elapsed: 0.0006749629974365234
ell 634, elapsed: 0.0005371570587158203
ell 633, elapsed: 0.0006198883056640625
ell 632, elapsed: 0.0006258487701416016
ell 631, elapsed: 0.0007669925689697266
ell 630, elapsed: 0.00061798095703125
ell 629, elapsed: 0.0007259845733642578
ell 628, elapsed: 0.0004987716674804688
ell 627, elapsed: 0.0006110668182373047
ell 626, elapsed: 0.0004780292510986328
ell 625, elapsed: 0.0006918907165527344
ell 624, elapsed: 0.0005609989166259766
ell 623, elapsed: 0.0006008148193359375
ell 622, elapsed: 0.0005459785461425781
ell 621, elapsed: 0.0007100105285644531
ell 620, elapsed: 0.0006000995635986328
ell 619, elapsed: 0.0006668567657470703
ell 618, elapsed: 0.0003819465637207031
ell 617, elapsed: 0.0005960464477539062
ell 616, elapsed: 0.0005011558532714844
ell 615, elapsed: 0.00061798095703125
ell 614, elapsed: 0.0005991458892822266
ell 613, elapsed: 0.0006368160247802734
ell 612, elapsed: 0.0005469322204589844
ell 611, elapsed: 0.0005679130554199219
ell 610, elapsed: 0.0004901885986328125
ell 609, elapsed: 0.0007009506225585938
ell 608, elapsed: 0.0006129741668701172
ell 607, elapsed: 0.0006289482116699219
ell 606, elapsed: 0.0003769397735595703
ell 605, elapsed: 0.00047087669372558594
ell 604, elapsed: 0.0003800392150878906
ell 603, elapsed: 0.0006451606750488281
ell 602, elapsed: 0.0006010532379150391
ell 601, elapsed: 0.0005660057067871094
ell 600, elapsed: 0.000514984130859375
ell 599, elapsed: 0.0007271766662597656
ell 598, elapsed: 0.00048804283142089844
ell 597, elapsed: 0.0006401538848876953
ell 596, elapsed: 0.0005309581756591797
ell 595, elapsed: 0.0006279945373535156
ell 594, elapsed: 0.000598907470703125
ell 593, elapsed: 0.0007030963897705078
ell 592, elapsed: 0.0004761219024658203
ell 591, elapsed: 0.0006029605865478516
ell 590, elapsed: 0.00048089027404785156
ell 589, elapsed: 0.0005769729614257812
ell 588, elapsed: 0.0005059242248535156
ell 587, elapsed: 0.000640869140625
ell 586, elapsed: 0.0006208419799804688
ell 585, elapsed: 0.0006690025329589844
ell 584, elapsed: 0.0005319118499755859
ell 583, elapsed: 0.0004589557647705078
ell 582, elapsed: 0.0005168914794921875
ell 581, elapsed: 0.0005769729614257812
ell 580, elapsed: 0.0003800392150878906
ell 579, elapsed: 0.00045990943908691406
ell 578, elapsed: 0.0003981590270996094
ell 577, elapsed: 0.00046896934509277344
ell 576, elapsed: 0.00037980079650878906
ell 575, elapsed: 0.0005781650543212891
ell 574, elapsed: 0.0005121231079101562
ell 573, elapsed: 0.0006341934204101562
ell 572, elapsed: 0.0005700588226318359
ell 571, elapsed: 0.0007219314575195312
ell 570, elapsed: 0.0004680156707763672
ell 569, elapsed: 0.0006051063537597656
ell 568, elapsed: 0.00047397613525390625
ell 567, elapsed: 0.0006508827209472656
ell 566, elapsed: 0.0005249977111816406
ell 565, elapsed: 0.0006117820739746094
ell 564, elapsed: 0.0005819797515869141
ell 563, elapsed: 0.0006351470947265625
ell 562, elapsed: 0.0005459785461425781
ell 561, elapsed: 0.0007030963897705078
ell 560, elapsed: 0.0004630088806152344
ell 559, elapsed: 0.0005991458892822266
ell 558, elapsed: 0.0004930496215820312
ell 557, elapsed: 0.0006101131439208984
ell 556, elapsed: 0.0004830360412597656
ell 555, elapsed: 0.0005741119384765625
ell 554, elapsed: 0.0005960464477539062
ell 553, elapsed: 0.000701904296875
ell 552, elapsed: 0.0006270408630371094
ell 551, elapsed: 0.0006961822509765625
ell 550, elapsed: 0.000453948974609375
ell 549, elapsed: 0.0005731582641601562
ell 548, elapsed: 0.0006020069122314453
ell 547, elapsed: 0.0007090568542480469
ell 546, elapsed: 0.0006160736083984375
ell 545, elapsed: 0.0006020069122314453
ell 544, elapsed: 0.0005040168762207031
ell 543, elapsed: 0.0005981922149658203
ell 542, elapsed: 0.0004940032958984375
ell 541, elapsed: 0.0006089210510253906
ell 540, elapsed: 0.0005390644073486328
ell 539, elapsed: 0.0007920265197753906
ell 538, elapsed: 0.0006151199340820312
ell 537, elapsed: 0.0005638599395751953
ell 536, elapsed: 0.0005278587341308594
ell 535, elapsed: 0.0005860328674316406
ell 534, elapsed: 0.0005071163177490234
ell 533, elapsed: 0.0006129741668701172
ell 532, elapsed: 0.0004930496215820312
ell 531, elapsed: 0.0007309913635253906
ell 530, elapsed: 0.0006089210510253906
ell 529, elapsed: 0.0007128715515136719
ell 528, elapsed: 0.0004639625549316406
ell 527, elapsed: 0.0006110668182373047
ell 526, elapsed: 0.0005037784576416016
ell 525, elapsed: 0.0006241798400878906
ell 524, elapsed: 0.0006041526794433594
ell 523, elapsed: 0.0007090568542480469
ell 522, elapsed: 0.000514984130859375
ell 521, elapsed: 0.0007522106170654297
ell 520, elapsed: 0.0006120204925537109
ell 519, elapsed: 0.0007288455963134766
ell 518, elapsed: 0.0005180835723876953
ell 517, elapsed: 0.0006308555603027344
ell 516, elapsed: 0.0004680156707763672
ell 515, elapsed: 0.0006029605865478516
ell 514, elapsed: 0.00045609474182128906
ell 513, elapsed: 0.0006527900695800781
ell 512, elapsed: 0.0004899501800537109
ell 511, elapsed: 0.0005800724029541016
ell 510, elapsed: 0.0005040168762207031
ell 509, elapsed: 0.0006279945373535156
ell 508, elapsed: 0.0007188320159912109
ell 507, elapsed: 0.00055694580078125
ell 506, elapsed: 0.0005040168762207031
ell 505, elapsed: 0.0005929470062255859
ell 504, elapsed: 0.000469207763671875
ell 503, elapsed: 0.0007009506225585938
ell 502, elapsed: 0.0004661083221435547
ell 501, elapsed: 0.0007929801940917969
ell 500, elapsed: 0.0006151199340820312
ell 499, elapsed: 0.0005650520324707031
ell 498, elapsed: 0.0005710124969482422
ell 497, elapsed: 0.0007388591766357422
ell 496, elapsed: 0.0007572174072265625
ell 495, elapsed: 0.0007441043853759766
ell 494, elapsed: 0.0006139278411865234
ell 493, elapsed: 0.0007338523864746094
ell 492, elapsed: 0.0005321502685546875
ell 491, elapsed: 0.0005950927734375
ell 490, elapsed: 0.0006430149078369141
ell 489, elapsed: 0.0007100105285644531
ell 488, elapsed: 0.0006349086761474609
ell 487, elapsed: 0.0007410049438476562
ell 486, elapsed: 0.0006310939788818359
ell 485, elapsed: 0.0008590221405029297
ell 484, elapsed: 0.000640869140625
ell 483, elapsed: 0.0007481575012207031
ell 482, elapsed: 0.0004911422729492188
ell 481, elapsed: 0.0006539821624755859
ell 480, elapsed: 0.0006351470947265625
ell 479, elapsed: 0.0005679130554199219
ell 478, elapsed: 0.0005419254302978516
ell 477, elapsed: 0.0007219314575195312
ell 476, elapsed: 0.0006201267242431641
ell 475, elapsed: 0.000743865966796875
ell 474, elapsed: 0.0006320476531982422
ell 473, elapsed: 0.0007519721984863281
ell 472, elapsed: 0.0006320476531982422
ell 471, elapsed: 0.000743865966796875
ell 470, elapsed: 0.0006139278411865234
ell 469, elapsed: 0.0007319450378417969
ell 468, elapsed: 0.0006418228149414062
ell 467, elapsed: 0.0007219314575195312
ell 466, elapsed: 0.0005919933319091797
ell 465, elapsed: 0.0007290840148925781
ell 464, elapsed: 0.0005350112915039062
ell 463, elapsed: 0.0006299018859863281
ell 462, elapsed: 0.0005891323089599609
ell 461, elapsed: 0.000682830810546875
ell 460, elapsed: 0.0006210803985595703
ell 459, elapsed: 0.0006020069122314453
ell 458, elapsed: 0.00039196014404296875
ell 457, elapsed: 0.0006120204925537109
ell 456, elapsed: 0.0006198883056640625
ell 455, elapsed: 0.0008499622344970703
ell 454, elapsed: 0.0006268024444580078
ell 453, elapsed: 0.0007379055023193359
ell 452, elapsed: 0.0006198883056640625
ell 451, elapsed: 0.0007340908050537109
ell 450, elapsed: 0.0005970001220703125
ell 449, elapsed: 0.0005400180816650391
ell 448, elapsed: 0.000576019287109375
ell 447, elapsed: 0.0006959438323974609
ell 446, elapsed: 0.0005788803100585938
ell 445, elapsed: 0.0007600784301757812
ell 444, elapsed: 0.0009019374847412109
ell 443, elapsed: 0.0006690025329589844
ell 442, elapsed: 0.0005459785461425781
ell 441, elapsed: 0.0007300376892089844
ell 440, elapsed: 0.0006449222564697266
ell 439, elapsed: 0.0007729530334472656
ell 438, elapsed: 0.0006260871887207031
ell 437, elapsed: 0.0005791187286376953
ell 436, elapsed: 0.00039315223693847656
ell 435, elapsed: 0.0004749298095703125
ell 434, elapsed: 0.0003979206085205078
ell 433, elapsed: 0.0004780292510986328
ell 432, elapsed: 0.00039386749267578125
ell 431, elapsed: 0.000576019287109375
ell 430, elapsed: 0.0003991127014160156
ell 429, elapsed: 0.0004730224609375
ell 428, elapsed: 0.0003910064697265625
ell 427, elapsed: 0.0004711151123046875
ell 426, elapsed: 0.00039005279541015625
ell 425, elapsed: 0.0004780292510986328
ell 424, elapsed: 0.0003948211669921875
ell 423, elapsed: 0.0005970001220703125
ell 422, elapsed: 0.0004019737243652344
ell 421, elapsed: 0.0004870891571044922
ell 420, elapsed: 0.0005309581756591797
ell 419, elapsed: 0.0005891323089599609
ell 418, elapsed: 0.00039196014404296875
ell 417, elapsed: 0.00047898292541503906
ell 416, elapsed: 0.0003979206085205078
ell 415, elapsed: 0.0005869865417480469
ell 414, elapsed: 0.0003991127014160156
ell 413, elapsed: 0.0006339550018310547
ell 412, elapsed: 0.0004780292510986328
ell 411, elapsed: 0.00048279762268066406
ell 410, elapsed: 0.0005588531494140625
ell 409, elapsed: 0.0005550384521484375
ell 408, elapsed: 0.0005879402160644531
ell 407, elapsed: 0.0004878044128417969
ell 406, elapsed: 0.0003979206085205078
ell 405, elapsed: 0.00048089027404785156
ell 404, elapsed: 0.0003991127014160156
ell 403, elapsed: 0.0004761219024658203
ell 402, elapsed: 0.0003948211669921875
ell 401, elapsed: 0.000476837158203125
ell 400, elapsed: 0.0005140304565429688
ell 399, elapsed: 0.0004820823669433594
ell 398, elapsed: 0.00039315223693847656
ell 397, elapsed: 0.0004761219024658203
ell 396, elapsed: 0.00039505958557128906
ell 395, elapsed: 0.0006539821624755859
ell 394, elapsed: 0.00045990943908691406
ell 393, elapsed: 0.00047779083251953125
ell 392, elapsed: 0.0005290508270263672
ell 391, elapsed: 0.00048613548278808594
ell 390, elapsed: 0.0004000663757324219
ell 389, elapsed: 0.0004930496215820312
ell 388, elapsed: 0.00039887428283691406
ell 387, elapsed: 0.0004870891571044922
ell 386, elapsed: 0.0004010200500488281
ell 385, elapsed: 0.0004820823669433594
ell 384, elapsed: 0.00044798851013183594
ell 383, elapsed: 0.0004889965057373047
ell 382, elapsed: 0.0004591941833496094
ell 381, elapsed: 0.00048613548278808594
ell 380, elapsed: 0.0003981590270996094
ell 379, elapsed: 0.00047707557678222656
ell 378, elapsed: 0.0003960132598876953
ell 377, elapsed: 0.0004830360412597656
ell 376, elapsed: 0.00040984153747558594
ell 375, elapsed: 0.0004820823669433594
ell 374, elapsed: 0.0003960132598876953
ell 373, elapsed: 0.0004730224609375
ell 372, elapsed: 0.0005350112915039062
ell 371, elapsed: 0.0005800724029541016
ell 370, elapsed: 0.00038695335388183594
ell 369, elapsed: 0.00046896934509277344
ell 368, elapsed: 0.0004999637603759766
ell 367, elapsed: 0.000492095947265625
ell 366, elapsed: 0.00039505958557128906
ell 365, elapsed: 0.00046896934509277344
ell 364, elapsed: 0.00039505958557128906
ell 363, elapsed: 0.000469207763671875
ell 362, elapsed: 0.000392913818359375
ell 361, elapsed: 0.00047016143798828125
ell 360, elapsed: 0.0003991127014160156
ell 359, elapsed: 0.0006029605865478516
ell 358, elapsed: 0.0003941059112548828
ell 357, elapsed: 0.0004730224609375
ell 356, elapsed: 0.0003960132598876953
ell 355, elapsed: 0.0004680156707763672
ell 354, elapsed: 0.00039386749267578125
ell 353, elapsed: 0.00047016143798828125
ell 352, elapsed: 0.00039386749267578125
ell 351, elapsed: 0.0006492137908935547
ell 350, elapsed: 0.0004119873046875
ell 349, elapsed: 0.0004799365997314453
ell 348, elapsed: 0.0003981590270996094
ell 347, elapsed: 0.00047707557678222656
ell 346, elapsed: 0.00039315223693847656
ell 345, elapsed: 0.00048804283142089844
ell 344, elapsed: 0.0003981590270996094
ell 343, elapsed: 0.0005497932434082031
ell 342, elapsed: 0.00045299530029296875
ell 341, elapsed: 0.00047516822814941406
ell 340, elapsed: 0.0004000663757324219
ell 339, elapsed: 0.000476837158203125
ell 338, elapsed: 0.0003991127014160156
ell 337, elapsed: 0.00046706199645996094
ell 336, elapsed: 0.00039696693420410156
ell 335, elapsed: 0.00046706199645996094
ell 334, elapsed: 0.0005159378051757812
ell 333, elapsed: 0.0006389617919921875
ell 332, elapsed: 0.0004551410675048828
ell 331, elapsed: 0.0004658699035644531
ell 330, elapsed: 0.00038695335388183594
ell 329, elapsed: 0.0006430149078369141
ell 328, elapsed: 0.0004451274871826172
ell 327, elapsed: 0.0005578994750976562
ell 326, elapsed: 0.0004220008850097656
ell 325, elapsed: 0.0004639625549316406
ell 324, elapsed: 0.0003859996795654297
ell 323, elapsed: 0.0004649162292480469
ell 322, elapsed: 0.0003859996795654297
ell 321, elapsed: 0.0006580352783203125
ell 320, elapsed: 0.0004329681396484375
ell 319, elapsed: 0.0005841255187988281
ell 318, elapsed: 0.0004100799560546875
ell 317, elapsed: 0.0004642009735107422
ell 316, elapsed: 0.0003859996795654297
ell 315, elapsed: 0.0006220340728759766
ell 314, elapsed: 0.0006070137023925781
ell 313, elapsed: 0.0005390644073486328
ell 312, elapsed: 0.0004520416259765625
ell 311, elapsed: 0.000537872314453125
ell 310, elapsed: 0.00038695335388183594
ell 309, elapsed: 0.0006451606750488281
ell 308, elapsed: 0.0004420280456542969
ell 307, elapsed: 0.0004608631134033203
ell 306, elapsed: 0.0003859996795654297
ell 305, elapsed: 0.0004589557647705078
ell 304, elapsed: 0.0004589557647705078
ell 303, elapsed: 0.0005319118499755859
ell 302, elapsed: 0.0005159378051757812
ell 301, elapsed: 0.0007150173187255859
ell 300, elapsed: 0.0006058216094970703
ell 299, elapsed: 0.0007150173187255859
ell 298, elapsed: 0.0004761219024658203
ell 297, elapsed: 0.0005571842193603516
ell 296, elapsed: 0.0005159378051757812
ell 295, elapsed: 0.0007109642028808594
ell 294, elapsed: 0.0006132125854492188
ell 293, elapsed: 0.0007150173187255859
ell 292, elapsed: 0.0005118846893310547
ell 291, elapsed: 0.0005960464477539062
ell 290, elapsed: 0.00038814544677734375
ell 289, elapsed: 0.000469207763671875
ell 288, elapsed: 0.0005450248718261719
ell 287, elapsed: 0.0007100105285644531
ell 286, elapsed: 0.0005848407745361328
ell 285, elapsed: 0.000823974609375
ell 284, elapsed: 0.0005800724029541016
ell 283, elapsed: 0.0007178783416748047
ell 282, elapsed: 0.0005948543548583984
ell 281, elapsed: 0.0005688667297363281
ell 280, elapsed: 0.0004680156707763672
ell 279, elapsed: 0.0008280277252197266
ell 278, elapsed: 0.0005860328674316406
ell 277, elapsed: 0.0007379055023193359
ell 276, elapsed: 0.00049591064453125
ell 275, elapsed: 0.0006258487701416016
ell 274, elapsed: 0.00047206878662109375
ell 273, elapsed: 0.0004589557647705078
ell 272, elapsed: 0.00047588348388671875
ell 271, elapsed: 0.0006730556488037109
ell 270, elapsed: 0.0004918575286865234
ell 269, elapsed: 0.0004639625549316406
ell 268, elapsed: 0.0005259513854980469
ell 267, elapsed: 0.0007190704345703125
ell 266, elapsed: 0.0006539821624755859
ell 265, elapsed: 0.0006079673767089844
ell 264, elapsed: 0.0005061626434326172
ell 263, elapsed: 0.0006029605865478516
ell 262, elapsed: 0.0005500316619873047
ell 261, elapsed: 0.0007119178771972656
ell 260, elapsed: 0.0004699230194091797
ell 259, elapsed: 0.00055694580078125
ell 258, elapsed: 0.0005271434783935547
ell 257, elapsed: 0.000701904296875
ell 256, elapsed: 0.0005719661712646484
ell 255, elapsed: 0.0006308555603027344
ell 254, elapsed: 0.0006048679351806641
ell 253, elapsed: 0.0006470680236816406
ell 252, elapsed: 0.0005450248718261719
ell 251, elapsed: 0.0006420612335205078
ell 250, elapsed: 0.00038695335388183594
ell 249, elapsed: 0.0004591941833496094
ell 248, elapsed: 0.0003819465637207031
ell 247, elapsed: 0.0004570484161376953
ell 246, elapsed: 0.0004658699035644531
ell 245, elapsed: 0.0005390644073486328
ell 244, elapsed: 0.0003879070281982422
ell 243, elapsed: 0.0006029605865478516
ell 242, elapsed: 0.0004730224609375
ell 241, elapsed: 0.0004639625549316406
ell 240, elapsed: 0.00038886070251464844
ell 239, elapsed: 0.00046706199645996094
ell 238, elapsed: 0.0004918575286865234
ell 237, elapsed: 0.0005061626434326172
ell 236, elapsed: 0.0003910064697265625
ell 235, elapsed: 0.00047087669372558594
ell 234, elapsed: 0.00039005279541015625
ell 233, elapsed: 0.0004730224609375
ell 232, elapsed: 0.0003871917724609375
ell 231, elapsed: 0.0004620552062988281
ell 230, elapsed: 0.000453948974609375
ell 229, elapsed: 0.000537872314453125
ell 228, elapsed: 0.00038695335388183594
ell 227, elapsed: 0.0006239414215087891
ell 226, elapsed: 0.00043702125549316406
ell 225, elapsed: 0.00046896934509277344
ell 224, elapsed: 0.0003859996795654297
ell 223, elapsed: 0.0004620552062988281
ell 222, elapsed: 0.0004570484161376953
ell 221, elapsed: 0.0005290508270263672
ell 220, elapsed: 0.00038695335388183594
ell 219, elapsed: 0.00045609474182128906
ell 218, elapsed: 0.0004930496215820312
ell 217, elapsed: 0.0007150173187255859
ell 216, elapsed: 0.0005459785461425781
ell 215, elapsed: 0.0008428096771240234
ell 214, elapsed: 0.0006048679351806641
ell 213, elapsed: 0.0007212162017822266
ell 212, elapsed: 0.0005919933319091797
ell 211, elapsed: 0.0005869865417480469
ell 210, elapsed: 0.0005240440368652344
ell 209, elapsed: 0.0006821155548095703
ell 208, elapsed: 0.0005741119384765625
ell 207, elapsed: 0.0007200241088867188
ell 206, elapsed: 0.0005319118499755859
ell 205, elapsed: 0.0007162094116210938
ell 204, elapsed: 0.0006110668182373047
ell 203, elapsed: 0.0007159709930419922
ell 202, elapsed: 0.0005609989166259766
ell 201, elapsed: 0.0007190704345703125
ell 200, elapsed: 0.0006091594696044922
ell 199, elapsed: 0.0005679130554199219
ell 198, elapsed: 0.0005590915679931641
ell 197, elapsed: 0.0007290840148925781
ell 196, elapsed: 0.0005509853363037109
ell 195, elapsed: 0.0006330013275146484
ell 194, elapsed: 0.0004551410675048828
ell 193, elapsed: 0.0007150173187255859
ell 192, elapsed: 0.0006089210510253906
ell 191, elapsed: 0.0008928775787353516
ell 190, elapsed: 0.0004999637603759766
ell 189, elapsed: 0.0006458759307861328
ell 188, elapsed: 0.0005590915679931641
ell 187, elapsed: 0.0007119178771972656
ell 186, elapsed: 0.0005080699920654297
ell 185, elapsed: 0.0006058216094970703
ell 184, elapsed: 0.0005669593811035156
ell 183, elapsed: 0.000637054443359375
ell 182, elapsed: 0.0005559921264648438
ell 181, elapsed: 0.0007200241088867188
ell 180, elapsed: 0.0006120204925537109
ell 179, elapsed: 0.0007181167602539062
ell 178, elapsed: 0.0005571842193603516
ell 177, elapsed: 0.0005850791931152344
ell 176, elapsed: 0.0005409717559814453
ell 175, elapsed: 0.0007150173187255859
ell 174, elapsed: 0.0006089210510253906
ell 173, elapsed: 0.0008039474487304688
ell 172, elapsed: 0.0005230903625488281
ell 171, elapsed: 0.0006129741668701172
ell 170, elapsed: 0.0006079673767089844
ell 169, elapsed: 0.0005857944488525391
ell 168, elapsed: 0.0005261898040771484
ell 167, elapsed: 0.0007798671722412109
ell 166, elapsed: 0.00048613548278808594
ell 165, elapsed: 0.0005631446838378906
ell 164, elapsed: 0.0005319118499755859
ell 163, elapsed: 0.00048089027404785156
ell 162, elapsed: 0.0004048347473144531
ell 161, elapsed: 0.0004839897155761719
ell 160, elapsed: 0.0004589557647705078
ell 159, elapsed: 0.000492095947265625
ell 158, elapsed: 0.0004031658172607422
ell 157, elapsed: 0.0004889965057373047
ell 156, elapsed: 0.0004048347473144531
ell 155, elapsed: 0.00048089027404785156
ell 154, elapsed: 0.0004038810729980469
ell 153, elapsed: 0.0004858970642089844
ell 152, elapsed: 0.0004601478576660156
ell 151, elapsed: 0.0004889965057373047
ell 150, elapsed: 0.0003979206085205078
ell 149, elapsed: 0.0004801750183105469
ell 148, elapsed: 0.0004038810729980469
ell 147, elapsed: 0.0004858970642089844
ell 146, elapsed: 0.0003941059112548828
ell 145, elapsed: 0.0004799365997314453
ell 144, elapsed: 0.0004050731658935547
ell 143, elapsed: 0.0005710124969482422
ell 142, elapsed: 0.0004031658172607422
ell 141, elapsed: 0.0004961490631103516
ell 140, elapsed: 0.00040602684020996094
ell 139, elapsed: 0.00047707557678222656
ell 138, elapsed: 0.0003998279571533203
ell 137, elapsed: 0.0004761219024658203
ell 136, elapsed: 0.0004050731658935547
ell 135, elapsed: 0.0005428791046142578
ell 134, elapsed: 0.0004029273986816406
ell 133, elapsed: 0.0004839897155761719
ell 132, elapsed: 0.000392913818359375
ell 131, elapsed: 0.0006330013275146484
ell 130, elapsed: 0.0004980564117431641
ell 129, elapsed: 0.0004749298095703125
ell 128, elapsed: 0.0003998279571533203
ell 127, elapsed: 0.0005240440368652344
ell 126, elapsed: 0.0005550384521484375
ell 125, elapsed: 0.0007240772247314453
ell 124, elapsed: 0.0004570484161376953
ell 123, elapsed: 0.0006530284881591797
ell 122, elapsed: 0.0005259513854980469
ell 121, elapsed: 0.0005240440368652344
ell 120, elapsed: 0.00039315223693847656
ell 119, elapsed: 0.0006291866302490234
ell 118, elapsed: 0.0006048679351806641
ell 117, elapsed: 0.0007469654083251953
ell 116, elapsed: 0.0004940032958984375
ell 115, elapsed: 0.0004820823669433594
ell 114, elapsed: 0.0004088878631591797
ell 113, elapsed: 0.0004639625549316406
ell 112, elapsed: 0.00039196014404296875
ell 111, elapsed: 0.00047397613525390625
ell 110, elapsed: 0.0003960132598876953
ell 109, elapsed: 0.0004718303680419922
ell 108, elapsed: 0.0003979206085205078
ell 107, elapsed: 0.0004849433898925781
ell 106, elapsed: 0.00039505958557128906
ell 105, elapsed: 0.0006070137023925781
ell 104, elapsed: 0.0003979206085205078
ell 103, elapsed: 0.0004699230194091797
ell 102, elapsed: 0.0003979206085205078
ell 101, elapsed: 0.00047206878662109375
ell 100, elapsed: 0.00039696693420410156
ell 99, elapsed: 0.0004730224609375
ell 98, elapsed: 0.00039505958557128906
ell 97, elapsed: 0.0004899501800537109
ell 96, elapsed: 0.0003960132598876953
ell 95, elapsed: 0.0004699230194091797
ell 94, elapsed: 0.0003960132598876953
ell 93, elapsed: 0.00047087669372558594
ell 92, elapsed: 0.0003960132598876953
ell 91, elapsed: 0.0004680156707763672
ell 90, elapsed: 0.00039696693420410156
ell 89, elapsed: 0.0004839897155761719
ell 88, elapsed: 0.0004010200500488281
ell 87, elapsed: 0.00047206878662109375
ell 86, elapsed: 0.0003960132598876953
ell 85, elapsed: 0.00047087669372558594
ell 84, elapsed: 0.0003960132598876953
ell 83, elapsed: 0.00047397613525390625
ell 82, elapsed: 0.0003979206085205078
ell 81, elapsed: 0.00046706199645996094
ell 80, elapsed: 0.0004107952117919922
ell 79, elapsed: 0.0004730224609375
ell 78, elapsed: 0.0003960132598876953
ell 77, elapsed: 0.00047087669372558594
ell 76, elapsed: 0.0003960132598876953
ell 75, elapsed: 0.0004711151123046875
ell 74, elapsed: 0.00039505958557128906
ell 73, elapsed: 0.00047206878662109375
ell 72, elapsed: 0.0003960132598876953
ell 71, elapsed: 0.0004839897155761719
ell 70, elapsed: 0.0003960132598876953
ell 69, elapsed: 0.00047087669372558594
ell 68, elapsed: 0.00039887428283691406
ell 67, elapsed: 0.0004749298095703125
ell 66, elapsed: 0.00039696693420410156
ell 65, elapsed: 0.0004699230194091797
ell 64, elapsed: 0.0003960132598876953
ell 63, elapsed: 0.00048804283142089844
ell 62, elapsed: 0.0003998279571533203
ell 61, elapsed: 0.00047898292541503906
ell 60, elapsed: 0.00039696693420410156
ell 59, elapsed: 0.00047206878662109375
ell 58, elapsed: 0.00039696693420410156
ell 57, elapsed: 0.00047278404235839844
ell 56, elapsed: 0.00039696693420410156
ell 55, elapsed: 0.0004780292510986328
ell 54, elapsed: 0.00040984153747558594
ell 53, elapsed: 0.0004818439483642578
ell 52, elapsed: 0.0003910064697265625
ell 51, elapsed: 0.0004799365997314453
ell 50, elapsed: 0.0004000663757324219
ell 49, elapsed: 0.0004780292510986328
ell 48, elapsed: 0.0004019737243652344
ell 47, elapsed: 0.0004811286926269531
ell 46, elapsed: 0.00041413307189941406
ell 45, elapsed: 0.0004780292510986328
ell 44, elapsed: 0.00039696693420410156
ell 43, elapsed: 0.0004761219024658203
ell 42, elapsed: 0.0004000663757324219
ell 41, elapsed: 0.00047898292541503906
ell 40, elapsed: 0.0004010200500488281
ell 39, elapsed: 0.0004811286926269531
ell 38, elapsed: 0.00040221214294433594
ell 37, elapsed: 0.0004911422729492188
ell 36, elapsed: 0.0003981590270996094
ell 35, elapsed: 0.0004718303680419922
ell 34, elapsed: 0.0003979206085205078
ell 33, elapsed: 0.0004730224609375
ell 32, elapsed: 0.0003960132598876953
ell 31, elapsed: 0.00047588348388671875
ell 30, elapsed: 0.0003960132598876953
ell 29, elapsed: 0.0004870891571044922
ell 28, elapsed: 0.00039696693420410156
ell 27, elapsed: 0.0004699230194091797
ell 26, elapsed: 0.0004000663757324219
ell 25, elapsed: 0.0004780292510986328
ell 24, elapsed: 0.0004019737243652344
ell 23, elapsed: 0.00047898292541503906
ell 22, elapsed: 0.0004031658172607422
ell 21, elapsed: 0.0004830360412597656
ell 20, elapsed: 0.0004200935363769531
ell 19, elapsed: 0.00047707557678222656
ell 18, elapsed: 0.00039505958557128906
ell 17, elapsed: 0.0004680156707763672
ell 16, elapsed: 0.0003960132598876953
ell 15, elapsed: 0.0004889965057373047
ell 14, elapsed: 0.00039505958557128906
ell 13, elapsed: 0.00047898292541503906
ell 12, elapsed: 0.00039887428283691406
ell 11, elapsed: 0.0004980564117431641
ell 10, elapsed: 0.00039887428283691406
ell 9, elapsed: 0.000476837158203125
ell 8, elapsed: 0.0004000663757324219
ell 7, elapsed: 0.0004780292510986328
ell 6, elapsed: 0.0004010200500488281
ell 5, elapsed: 0.0004799365997314453
ell 4, elapsed: 0.0004010200500488281
ell 3, elapsed: 0.0006229877471923828
ell 2, elapsed: 0.0004031658172607422
ell 1, elapsed: 0.0004820823669433594
ell 0, elapsed: 0.0004031658172607422
  0.742971 seconds (41.19 k allocations: 2.939 MiB)
elapsed: 0.0005860328674316406
step:          0.078307 sec (0 allocations: 0 byte, 0.0% gc time)
swapping:      0.000992 sec (0 allocations: 0 byte, 0.0% gc time)
calc_Mellell!: 0.013494 sec (0 allocations: 0 byte, 0.0% gc time)
  t0 :  0.00349 sec (0 allocations: 0 byte, 0.0% gc time)
  tm2 : 0.117062 sec (0 allocations: 0 byte, 0.0% gc time)
  tm2s: 0.002383 sec (0 allocations: 0 byte, 0.0% gc time)
  tm4 : 0.31371 sec (0 allocations: 0 byte, 0.0% gc time)
  tp2 : 0.0 sec (0 allocations: 0 byte, 0.0% gc time)
  tp2s: 0.0 sec (0 allocations: 0 byte, 0.0% gc time)
  tp4 : 0.0 sec (0 allocations: 0 byte, 0.0% gc time)
calc_wtdll!:   0.454484 sec (9.87 k allocations: 1.043 MB, 0.0% gc time)
calc_wljj!:    0.05004 sec (689 allocations: 10.766 KB, 0.0% gc time)
mult_prefac!:  0.0 sec (0 allocations: 0 byte, 0.0% gc time)
convert:       0.0 sec (0 allocations: 0 byte, 0.0% gc time)
write:         0.065113 sec (0 allocations: 0 byte, 0.0% gc time)
test_rand_2f1: 0.0 sec (0 allocations: 0 byte, 0.0% gc time)
Closing outfile out/Ml21-cache.bin...   0.018785 seconds
  0.000532 seconds (52 allocations: 28.297 KiB)
make_phi():   0.002478 seconds (8.20 k allocations: 238.016 KiB)
  0.193605 seconds (146.69 k allocations: 3.629 MiB)
tskip:       0.001038 sec (0 allocations: 0 byte, 0.0% gc time)
tread:       0.022218 sec (19 allocations: 10.688 KB, 0.0% gc time)
tmultphi:    0.015369 sec (0 allocations: 0 byte, 0.0% gc time)
tbrfft:      0.057657 sec (9.592 k allocations: 449.625 KB, 0.0% gc time)
tmultprefac: 0.040671 sec (0 allocations: 0 byte, 0.0% gc time)
toutfunc:    0.054818 sec (129.905 k allocations: 2.421 MB, 0.0% gc time)
Testing R=1.0 ... passed
Calculating fmax: 
  dlrec    = 4
  dlrecRg1 = -4
  q=1.1, R=0.9:	  0.434410 seconds (116.47 k allocations: 15.614 MiB)

  0.434660 seconds (116.50 k allocations: 15.647 MiB)
ℓ = 1202
Δℓ = 4
ΔℓRg1 = -4
N = 1600
q = 1.1
kmin = 1.0e-5
kmax = 100000.00000000004
χ0 = 0.023029999999999995
RR = RR.tsv
ℓmax = ℓmax.bin
f21 = f21.bin
kmin = 1.0e-5
kmax = 100000.0
dlrec    = 4
dlrecRg1 = -4
Output size: 5741568 bytes = 0.005347251892089844 GiB
Output size: 51264 bytes = 4.774332046508789e-5 GiB
Reading 'out/F21EllCache'...   0.001184 seconds (267 allocations: 84.656 KiB)
ellmax: 1202
lmaxcache: 1202
fell[:,1,1] = Complex{Float64}[1.3482014726274674e-57 - 3.302141236118086e-73im, 1.357860004724329e-57 - 3.3257978169518355e-73im]
ell 1202, elapsed: 3.910064697265625e-5
ell 1201, elapsed: 0.0004830360412597656
ell 1200, elapsed: 0.0004999637603759766
ell 1199, elapsed: 0.0005779266357421875
ell 1198, elapsed: 0.0005431175231933594
ell 1002, elapsed: 0.009623050689697266
ell 1001, elapsed: 0.00048804283142089844
ell 1000, elapsed: 0.0004410743713378906
ell 999, elapsed: 0.00044083595275878906
ell 998, elapsed: 0.0004239082336425781
ell 902, elapsed: 0.0050029754638671875
ell 901, elapsed: 0.0004150867462158203
ell 900, elapsed: 0.0003809928894042969
ell 899, elapsed: 0.0003829002380371094
ell 898, elapsed: 0.0003609657287597656
ell 802, elapsed: 0.004815101623535156
ell 801, elapsed: 0.00037407875061035156
ell 800, elapsed: 0.00044417381286621094
ell 799, elapsed: 0.0005319118499755859
ell 798, elapsed: 0.00047898292541503906
ell 702, elapsed: 0.005112171173095703
ell 701, elapsed: 0.0003600120544433594
ell 700, elapsed: 0.0003521442413330078
ell 699, elapsed: 0.0004680156707763672
ell 698, elapsed: 0.0005409717559814453
ell 602, elapsed: 0.005010128021240234
ell 601, elapsed: 0.0004801750183105469
ell 600, elapsed: 0.0005369186401367188
ell 599, elapsed: 0.0004978179931640625
ell 598, elapsed: 0.000553131103515625
ell 502, elapsed: 0.0050089359283447266
ell 501, elapsed: 0.0004038810729980469
ell 500, elapsed: 0.00043702125549316406
ell 499, elapsed: 0.0005519390106201172
ell 498, elapsed: 0.0005419254302978516
ell 402, elapsed: 0.005011796951293945
ell 401, elapsed: 0.0005369186401367188
ell 400, elapsed: 0.0006251335144042969
ell 399, elapsed: 0.0005540847778320312
ell 398, elapsed: 0.0005369186401367188
ell 302, elapsed: 0.004968166351318359
ell 301, elapsed: 0.0003669261932373047
ell 300, elapsed: 0.00034618377685546875
ell 299, elapsed: 0.0004930496215820312
ell 298, elapsed: 0.0005640983581542969
ell 202, elapsed: 0.005409955978393555
ell 201, elapsed: 0.00045013427734375
ell 200, elapsed: 0.0005631446838378906
ell 199, elapsed: 0.0005490779876708984
ell 198, elapsed: 0.0005428791046142578
ell 152, elapsed: 0.0026900768280029297
ell 151, elapsed: 0.0005249977111816406
ell 150, elapsed: 0.0005819797515869141
ell 149, elapsed: 0.0004379749298095703
ell 148, elapsed: 0.0004909038543701172
ell 127, elapsed: 0.00156402587890625
ell 126, elapsed: 0.0004639625549316406
ell 125, elapsed: 0.0005631446838378906
ell 124, elapsed: 0.0005497932434082031
ell 123, elapsed: 0.0005559921264648438
ell 114, elapsed: 0.0011708736419677734
ell 113, elapsed: 0.00035691261291503906
ell 112, elapsed: 0.0004820823669433594
ell 111, elapsed: 0.0005450248718261719
ell 110, elapsed: 0.0005221366882324219
ell 102, elapsed: 0.0011620521545410156
ell 101, elapsed: 0.00035500526428222656
ell 100, elapsed: 0.0004870891571044922
ell 99, elapsed: 0.0005640983581542969
ell 98, elapsed: 0.0005550384521484375
ell 97, elapsed: 0.0006549358367919922
ell 96, elapsed: 0.0007550716400146484
ell 95, elapsed: 0.0006098747253417969
ell 94, elapsed: 0.0006690025329589844
ell 93, elapsed: 0.0004000663757324219
ell 92, elapsed: 0.0006859302520751953
ell 91, elapsed: 0.0005860328674316406
ell 90, elapsed: 0.00074005126953125
ell 89, elapsed: 0.0006070137023925781
ell 88, elapsed: 0.0007338523864746094
ell 87, elapsed: 0.0006058216094970703
ell 86, elapsed: 0.0007240772247314453
ell 85, elapsed: 0.0005891323089599609
ell 84, elapsed: 0.0005729198455810547
ell 83, elapsed: 0.0003991127014160156
ell 82, elapsed: 0.0007340908050537109
ell 81, elapsed: 0.0005509853363037109
ell 80, elapsed: 0.0007598400115966797
ell 79, elapsed: 0.0004668235778808594
ell 78, elapsed: 0.0006060600280761719
ell 77, elapsed: 0.0004680156707763672
ell 76, elapsed: 0.0004591941833496094
ell 75, elapsed: 0.000514984130859375
ell 74, elapsed: 0.0007059574127197266
ell 73, elapsed: 0.0006170272827148438
ell 72, elapsed: 0.0005979537963867188
ell 71, elapsed: 0.0003688335418701172
ell 70, elapsed: 0.0006089210510253906
ell 69, elapsed: 0.0005230903625488281
ell 68, elapsed: 0.0006439685821533203
ell 67, elapsed: 0.00051116943359375
ell 66, elapsed: 0.0006260871887207031
ell 65, elapsed: 0.0004410743713378906
ell 64, elapsed: 0.00046896934509277344
ell 63, elapsed: 0.0003859996795654297
ell 62, elapsed: 0.0006759166717529297
ell 61, elapsed: 0.0006120204925537109
ell 60, elapsed: 0.0007572174072265625
ell 59, elapsed: 0.0006470680236816406
ell 58, elapsed: 0.0007379055023193359
ell 57, elapsed: 0.0006201267242431641
ell 56, elapsed: 0.0007131099700927734
ell 55, elapsed: 0.0006220340728759766
ell 54, elapsed: 0.0007569789886474609
ell 53, elapsed: 0.0005369186401367188
ell 52, elapsed: 0.0007050037384033203
ell 51, elapsed: 0.0005400180816650391
ell 50, elapsed: 0.0006999969482421875
ell 49, elapsed: 0.0006189346313476562
ell 48, elapsed: 0.0008261203765869141
ell 47, elapsed: 0.0006508827209472656
ell 46, elapsed: 0.0008289813995361328
ell 45, elapsed: 0.0006601810455322266
ell 44, elapsed: 0.0008549690246582031
ell 43, elapsed: 0.0004639625549316406
ell 42, elapsed: 0.0006759166717529297
ell 41, elapsed: 0.0005939006805419922
ell 40, elapsed: 0.0007519721984863281
ell 39, elapsed: 0.0006361007690429688
ell 38, elapsed: 0.0007507801055908203
ell 37, elapsed: 0.0006229877471923828
ell 36, elapsed: 0.000743865966796875
ell 35, elapsed: 0.0006232261657714844
ell 34, elapsed: 0.0007619857788085938
ell 33, elapsed: 0.0006349086761474609
ell 32, elapsed: 0.0007598400115966797
ell 31, elapsed: 0.0005300045013427734
ell 30, elapsed: 0.0005860328674316406
ell 29, elapsed: 0.0005869865417480469
ell 28, elapsed: 0.0007960796356201172
ell 27, elapsed: 0.0006361007690429688
ell 26, elapsed: 0.0007650852203369141
ell 25, elapsed: 0.0006380081176757812
ell 24, elapsed: 0.0007538795471191406
ell 23, elapsed: 0.0006468296051025391
ell 22, elapsed: 0.0007419586181640625
ell 21, elapsed: 0.0006258487701416016
ell 20, elapsed: 0.0007290840148925781
ell 19, elapsed: 0.0006170272827148438
ell 18, elapsed: 0.0007648468017578125
ell 17, elapsed: 0.0006110668182373047
ell 16, elapsed: 0.0007300376892089844
ell 15, elapsed: 0.0005130767822265625
ell 14, elapsed: 0.0006761550903320312
ell 13, elapsed: 0.0006258487701416016
ell 12, elapsed: 0.0007607936859130859
ell 11, elapsed: 0.0005459785461425781
ell 10, elapsed: 0.0007328987121582031
ell 9, elapsed: 0.00048089027404785156
ell 8, elapsed: 0.0005738735198974609
ell 7, elapsed: 0.0005209445953369141
ell 6, elapsed: 0.0008120536804199219
ell 5, elapsed: 0.0005080699920654297
ell 4, elapsed: 0.0005300045013427734
ell 3, elapsed: 0.0005850791931152344
ell 2, elapsed: 0.0006139278411865234
ell 1, elapsed: 0.0005578994750976562
ell 0, elapsed: 0.0006010532379150391
  0.158163 seconds (10.83 k allocations: 697.938 KiB)
elapsed: 0.000637054443359375
step:          0.058 sec (0 allocations: 0 byte, 0.0% gc time)
swapping:      0.000611 sec (0 allocations: 0 byte, 0.0% gc time)
calc_Mellell!: 0.002012 sec (0 allocations: 0 byte, 0.0% gc time)
  t0 :  0.000555 sec (0 allocations: 0 byte, 0.0% gc time)
  tm2 : 0.017002 sec (0 allocations: 0 byte, 0.0% gc time)
  tm2s: 0.000406 sec (0 allocations: 0 byte, 0.0% gc time)
  tm4 : 0.04611 sec (0 allocations: 0 byte, 0.0% gc time)
  tp2 : 0.0 sec (0 allocations: 0 byte, 0.0% gc time)
  tp2s: 0.0 sec (0 allocations: 0 byte, 0.0% gc time)
  tp4 : 0.0 sec (0 allocations: 0 byte, 0.0% gc time)
calc_wtdll!:   0.06479 sec (1.344 k allocations: 147.0 KB, 0.0% gc time)
calc_wljj!:    0.004911 sec (6 allocations: 96 byte, 0.0% gc time)
mult_prefac!:  0.0 sec (0 allocations: 0 byte, 0.0% gc time)
convert:       0.0 sec (0 allocations: 0 byte, 0.0% gc time)
write:         0.007016 sec (0 allocations: 0 byte, 0.0% gc time)
test_rand_2f1: 0.0 sec (0 allocations: 0 byte, 0.0% gc time)
Closing outfile out/Ml21-cache.bin...   0.002577 seconds
  0.000357 seconds (52 allocations: 28.297 KiB)
make_phi():   0.002571 seconds (8.20 k allocations: 238.016 KiB)
  0.017959 seconds (12.10 k allocations: 322.000 KiB)
tskip:       2.2e-5 sec (0 allocations: 0 byte, 0.0% gc time)
tread:       0.002513 sec (19 allocations: 2.172 KB, 0.0% gc time)
tmultphi:    0.00125 sec (0 allocations: 0 byte, 0.0% gc time)
tbrfft:      0.005312 sec (896 allocations: 42.0 KB, 0.0% gc time)
tmultprefac: 0.003699 sec (0 allocations: 0 byte, 0.0% gc time)
toutfunc:    0.00511 sec (10.528 k allocations: 206.5 KB, 0.0% gc time)
Testing R=0.9 ... passed
Calculating fmax: 
  dlrec    = 4
  dlrecRg1 = -4
  q=1.1, R=0.8:	  0.386166 seconds (113.61 k allocations: 15.166 MiB, 5.29% gc time)

  0.386771 seconds (113.66 k allocations: 15.200 MiB, 5.28% gc time)
ℓ = 1202
Δℓ = 4
ΔℓRg1 = -4
N = 1600
q = 1.1
kmin = 1.0e-5
kmax = 100000.00000000004
χ0 = 0.023029999999999995
RR = RR.tsv
ℓmax = ℓmax.bin
f21 = f21.bin
kmin = 1.0e-5
kmax = 100000.0
dlrec    = 4
dlrecRg1 = -4
Output size: 5741568 bytes = 0.005347251892089844 GiB
Output size: 51264 bytes = 4.774332046508789e-5 GiB
Reading 'out/F21EllCache'...   0.001070 seconds (267 allocations: 84.656 KiB)
ellmax: 1202
lmaxcache: 1202
fell[:,1,1] = Complex{Float64}[7.519068145690986e-120 - 1.8416405474382574e-135im, 7.541664537386155e-120 - 1.847175067190611e-135im]
ell 1202, elapsed: 2.9087066650390625e-5
ell 1201, elapsed: 0.0005059242248535156
ell 1200, elapsed: 0.0004801750183105469
ell 1199, elapsed: 0.0006670951843261719
ell 1198, elapsed: 0.0006358623504638672
ell 1002, elapsed: 0.011198043823242188
ell 1001, elapsed: 0.0004899501800537109
ell 1000, elapsed: 0.0004420280456542969
ell 999, elapsed: 0.0005269050598144531
ell 998, elapsed: 0.000576019287109375
ell 902, elapsed: 0.005177021026611328
ell 901, elapsed: 0.0006349086761474609
ell 900, elapsed: 0.0006010532379150391
ell 899, elapsed: 0.0006740093231201172
ell 898, elapsed: 0.0004591941833496094
ell 802, elapsed: 0.004992008209228516
ell 801, elapsed: 0.0006439685821533203
ell 800, elapsed: 0.0005838871002197266
ell 799, elapsed: 0.0006330013275146484
ell 798, elapsed: 0.0005850791931152344
ell 702, elapsed: 0.005599021911621094
ell 701, elapsed: 0.00043392181396484375
ell 700, elapsed: 0.0006070137023925781
ell 699, elapsed: 0.0005898475646972656
ell 698, elapsed: 0.0006110668182373047
ell 602, elapsed: 0.0057981014251708984
ell 601, elapsed: 0.0005819797515869141
ell 600, elapsed: 0.0006699562072753906
ell 599, elapsed: 0.0006139278411865234
ell 598, elapsed: 0.0005838871002197266
ell 502, elapsed: 0.0056231021881103516
ell 501, elapsed: 0.0006530284881591797
ell 500, elapsed: 0.0006270408630371094
ell 499, elapsed: 0.0006628036499023438
ell 498, elapsed: 0.0006849765777587891
ell 402, elapsed: 0.005788087844848633
ell 401, elapsed: 0.0006449222564697266
ell 400, elapsed: 0.0006260871887207031
ell 399, elapsed: 0.0006780624389648438
ell 398, elapsed: 0.0006251335144042969
ell 302, elapsed: 0.005693912506103516
ell 301, elapsed: 0.0005979537963867188
ell 300, elapsed: 0.0005810260772705078
ell 299, elapsed: 0.0006470680236816406
ell 298, elapsed: 0.0005581378936767578
ell 202, elapsed: 0.005944967269897461
ell 201, elapsed: 0.0006799697875976562
ell 200, elapsed: 0.0006139278411865234
ell 199, elapsed: 0.0006310939788818359
ell 198, elapsed: 0.0006699562072753906
ell 152, elapsed: 0.0032389163970947266
ell 151, elapsed: 0.0006580352783203125
ell 150, elapsed: 0.0006427764892578125
ell 149, elapsed: 0.0007610321044921875
ell 148, elapsed: 0.0006830692291259766
ell 127, elapsed: 0.0020148754119873047
ell 126, elapsed: 0.0006659030914306641
ell 125, elapsed: 0.0006129741668701172
ell 124, elapsed: 0.0006020069122314453
ell 123, elapsed: 0.0004680156707763672
ell 114, elapsed: 0.001096963882446289
ell 113, elapsed: 0.0005209445953369141
ell 112, elapsed: 0.0005490779876708984
ell 111, elapsed: 0.0005028247833251953
ell 110, elapsed: 0.0005640983581542969
ell 102, elapsed: 0.0012829303741455078
ell 101, elapsed: 0.0005099773406982422
ell 100, elapsed: 0.0005471706390380859
ell 99, elapsed: 0.000492095947265625
ell 98, elapsed: 0.0005660057067871094
ell 97, elapsed: 0.0006251335144042969
ell 96, elapsed: 0.0007460117340087891
ell 95, elapsed: 0.0006470680236816406
ell 94, elapsed: 0.0007448196411132812
ell 93, elapsed: 0.0006251335144042969
ell 92, elapsed: 0.0007348060607910156
ell 91, elapsed: 0.0006239414215087891
ell 90, elapsed: 0.0008199214935302734
ell 89, elapsed: 0.0005190372467041016
ell 88, elapsed: 0.0007979869842529297
ell 87, elapsed: 0.0005998611450195312
ell 86, elapsed: 0.0007660388946533203
ell 85, elapsed: 0.0006670951843261719
ell 84, elapsed: 0.0007510185241699219
ell 83, elapsed: 0.0006060600280761719
ell 82, elapsed: 0.0007500648498535156
ell 81, elapsed: 0.0006060600280761719
ell 80, elapsed: 0.0007488727569580078
ell 79, elapsed: 0.0005660057067871094
ell 78, elapsed: 0.0006101131439208984
ell 77, elapsed: 0.0005800724029541016
ell 76, elapsed: 0.0007328987121582031
ell 75, elapsed: 0.0004730224609375
ell 74, elapsed: 0.000823974609375
ell 73, elapsed: 0.0004818439483642578
ell 72, elapsed: 0.0007610321044921875
ell 71, elapsed: 0.0006308555603027344
ell 70, elapsed: 0.0008509159088134766
ell 69, elapsed: 0.0006840229034423828
ell 68, elapsed: 0.0008041858673095703
ell 67, elapsed: 0.0007078647613525391
ell 66, elapsed: 0.0008559226989746094
ell 65, elapsed: 0.0006699562072753906
ell 64, elapsed: 0.0008420944213867188
ell 63, elapsed: 0.00047707557678222656
ell 62, elapsed: 0.0005600452423095703
ell 61, elapsed: 0.0006740093231201172
ell 60, elapsed: 0.0007581710815429688
ell 59, elapsed: 0.00047898292541503906
ell 58, elapsed: 0.0007321834564208984
ell 57, elapsed: 0.0007190704345703125
ell 56, elapsed: 0.000621795654296875
ell 55, elapsed: 0.0004470348358154297
ell 54, elapsed: 0.0005319118499755859
ell 53, elapsed: 0.00044798851013183594
ell 52, elapsed: 0.0007951259613037109
ell 51, elapsed: 0.0005090236663818359
ell 50, elapsed: 0.0006618499755859375
ell 49, elapsed: 0.0004801750183105469
ell 48, elapsed: 0.0005791187286376953
ell 47, elapsed: 0.00048089027404785156
ell 46, elapsed: 0.0005810260772705078
ell 45, elapsed: 0.00048613548278808594
ell 44, elapsed: 0.0005810260772705078
ell 43, elapsed: 0.0004811286926269531
ell 42, elapsed: 0.0005860328674316406
ell 41, elapsed: 0.0004799365997314453
ell 40, elapsed: 0.000576019287109375
ell 39, elapsed: 0.0004792213439941406
ell 38, elapsed: 0.0005950927734375
ell 37, elapsed: 0.0004761219024658203
ell 36, elapsed: 0.0005781650543212891
ell 35, elapsed: 0.0004730224609375
ell 34, elapsed: 0.0005791187286376953
ell 33, elapsed: 0.00047898292541503906
ell 32, elapsed: 0.0005691051483154297
ell 31, elapsed: 0.0004909038543701172
ell 30, elapsed: 0.0005738735198974609
ell 29, elapsed: 0.00047397613525390625
ell 28, elapsed: 0.000576019287109375
ell 27, elapsed: 0.00048089027404785156
ell 26, elapsed: 0.0005700588226318359
ell 25, elapsed: 0.0006570816040039062
ell 24, elapsed: 0.000637054443359375
ell 23, elapsed: 0.00047588348388671875
ell 22, elapsed: 0.0005769729614257812
ell 21, elapsed: 0.0004801750183105469
ell 20, elapsed: 0.0005788803100585938
ell 19, elapsed: 0.00048089027404785156
ell 18, elapsed: 0.0005838871002197266
ell 17, elapsed: 0.0004949569702148438
ell 16, elapsed: 0.0005788803100585938
ell 15, elapsed: 0.0004811286926269531
ell 14, elapsed: 0.0005719661712646484
ell 13, elapsed: 0.0004801750183105469
[...]
ell 782, elapsed: 0.001809835433959961
ell 781, elapsed: 0.0009610652923583984
ell 780, elapsed: 0.0009272098541259766
ell 779, elapsed: 0.0009670257568359375
ell 778, elapsed: 0.0009770393371582031
ell 772, elapsed: 0.0017251968383789062
ell 771, elapsed: 0.0009701251983642578
ell 770, elapsed: 0.0009410381317138672
ell 769, elapsed: 0.0009570121765136719
ell 768, elapsed: 0.0009560585021972656
ell 762, elapsed: 0.001722097396850586
ell 761, elapsed: 0.0009469985961914062
ell 760, elapsed: 0.0009479522705078125
ell 759, elapsed: 0.0009708404541015625
ell 758, elapsed: 0.0009598731994628906
ell 752, elapsed: 0.0017428398132324219
ell 751, elapsed: 0.0009579658508300781
ell 750, elapsed: 0.0009791851043701172
ell 749, elapsed: 0.0009610652923583984
ell 748, elapsed: 0.0009949207305908203
ell 742, elapsed: 0.0016939640045166016
ell 741, elapsed: 0.00092315673828125
ell 740, elapsed: 0.0008668899536132812
ell 739, elapsed: 0.0008530616760253906
ell 738, elapsed: 0.0008749961853027344
ell 732, elapsed: 0.0016360282897949219
ell 731, elapsed: 0.0008940696716308594
ell 730, elapsed: 0.0008599758148193359
ell 729, elapsed: 0.0008580684661865234
ell 728, elapsed: 0.0008609294891357422
ell 722, elapsed: 0.0016570091247558594
ell 721, elapsed: 0.0008590221405029297
ell 720, elapsed: 0.0008509159088134766
ell 719, elapsed: 0.0008480548858642578
ell 718, elapsed: 0.0008699893951416016
ell 712, elapsed: 0.0016050338745117188
ell 711, elapsed: 0.0008699893951416016
ell 710, elapsed: 0.000865936279296875
ell 709, elapsed: 0.000843048095703125
ell 708, elapsed: 0.0008540153503417969
ell 702, elapsed: 0.0015850067138671875
ell 701, elapsed: 0.0008618831634521484
ell 700, elapsed: 0.0008490085601806641
ell 699, elapsed: 0.0008459091186523438
ell 698, elapsed: 0.0008521080017089844
ell 692, elapsed: 0.0016529560089111328
ell 691, elapsed: 0.0008480548858642578
ell 690, elapsed: 0.0008459091186523438
ell 689, elapsed: 0.0008509159088134766
ell 688, elapsed: 0.00086212158203125
ell 682, elapsed: 0.001566171646118164
ell 681, elapsed: 0.0008471012115478516
ell 680, elapsed: 0.0008471012115478516
ell 679, elapsed: 0.0008578300476074219
ell 678, elapsed: 0.0008630752563476562
ell 672, elapsed: 0.0016050338745117188
ell 671, elapsed: 0.0008537769317626953
ell 670, elapsed: 0.0008590221405029297
ell 669, elapsed: 0.0008459091186523438
ell 668, elapsed: 0.0008540153503417969
ell 662, elapsed: 0.0015990734100341797
ell 661, elapsed: 0.0008480548858642578
ell 660, elapsed: 0.0008549690246582031
ell 659, elapsed: 0.0008490085601806641
ell 658, elapsed: 0.0008471012115478516
ell 652, elapsed: 0.0015850067138671875
ell 651, elapsed: 0.0008480548858642578
ell 650, elapsed: 0.0008580684661865234
ell 649, elapsed: 0.00084686279296875
ell 648, elapsed: 0.0008630752563476562
ell 642, elapsed: 0.0015721321105957031
ell 641, elapsed: 0.0008451938629150391
ell 640, elapsed: 0.000865936279296875
ell 639, elapsed: 0.0008440017700195312
ell 638, elapsed: 0.0008478164672851562
ell 632, elapsed: 0.0015759468078613281
ell 631, elapsed: 0.0008618831634521484
ell 630, elapsed: 0.0008528232574462891
ell 629, elapsed: 0.0008478164672851562
ell 628, elapsed: 0.0008499622344970703
ell 622, elapsed: 0.0016050338745117188
ell 621, elapsed: 0.0008471012115478516
ell 620, elapsed: 0.0008521080017089844
ell 619, elapsed: 0.0008449554443359375
ell 618, elapsed: 0.0008640289306640625
ell 612, elapsed: 0.0015878677368164062
ell 611, elapsed: 0.0008568763732910156
ell 610, elapsed: 0.0008342266082763672
ell 609, elapsed: 0.0007898807525634766
ell 608, elapsed: 0.0007898807525634766
ell 602, elapsed: 0.0015339851379394531
ell 601, elapsed: 0.0008490085601806641
ell 600, elapsed: 0.0008680820465087891
ell 599, elapsed: 0.0008521080017089844
ell 598, elapsed: 0.0008509159088134766
ell 592, elapsed: 0.0015959739685058594
ell 591, elapsed: 0.0008490085601806641
ell 590, elapsed: 0.0008509159088134766
ell 589, elapsed: 0.0008471012115478516
ell 588, elapsed: 0.0008499622344970703
ell 582, elapsed: 0.0016009807586669922
ell 581, elapsed: 0.0008471012115478516
ell 580, elapsed: 0.0008459091186523438
ell 579, elapsed: 0.00084686279296875
ell 578, elapsed: 0.0008649826049804688
ell 572, elapsed: 0.0016050338745117188
ell 571, elapsed: 0.0008502006530761719
ell 570, elapsed: 0.0008649826049804688
ell 569, elapsed: 0.0008580684661865234
ell 568, elapsed: 0.0008521080017089844
ell 562, elapsed: 0.0015931129455566406
ell 561, elapsed: 0.0008630752563476562
ell 560, elapsed: 0.0008509159088134766
ell 559, elapsed: 0.0008499622344970703
ell 558, elapsed: 0.0008530616760253906
ell 552, elapsed: 0.0016090869903564453
ell 551, elapsed: 0.0008528232574462891
ell 550, elapsed: 0.0008518695831298828
ell 549, elapsed: 0.0008530616760253906
ell 548, elapsed: 0.0008671283721923828
ell 542, elapsed: 0.0015900135040283203
ell 541, elapsed: 0.0008568763732910156
ell 540, elapsed: 0.0008530616760253906
ell 539, elapsed: 0.000865936279296875
ell 538, elapsed: 0.0008518695831298828
ell 532, elapsed: 0.0015950202941894531
ell 531, elapsed: 0.000865936279296875
ell 530, elapsed: 0.0008528232574462891
ell 529, elapsed: 0.0008490085601806641
ell 528, elapsed: 0.0008480548858642578
ell 522, elapsed: 0.0016090869903564453
ell 521, elapsed: 0.0008530616760253906
ell 520, elapsed: 0.0008540153503417969
ell 519, elapsed: 0.0008499622344970703
ell 518, elapsed: 0.0008511543273925781
ell 512, elapsed: 0.0016129016876220703
ell 511, elapsed: 0.0008568763732910156
ell 510, elapsed: 0.0008518695831298828
ell 509, elapsed: 0.0008640289306640625
ell 508, elapsed: 0.0008509159088134766
ell 502, elapsed: 0.0015969276428222656
ell 501, elapsed: 0.0008509159088134766
ell 500, elapsed: 0.0009047985076904297
ell 499, elapsed: 0.0008490085601806641
ell 498, elapsed: 0.0008530616760253906
ell 492, elapsed: 0.0016078948974609375
ell 491, elapsed: 0.0008590221405029297
ell 490, elapsed: 0.0008640289306640625
ell 489, elapsed: 0.0008671283721923828
ell 488, elapsed: 0.0008640289306640625
ell 482, elapsed: 0.001631021499633789
ell 481, elapsed: 0.0008609294891357422
ell 480, elapsed: 0.0008549690246582031
ell 479, elapsed: 0.0008499622344970703
ell 478, elapsed: 0.000865936279296875
ell 472, elapsed: 0.001611948013305664
ell 471, elapsed: 0.0008609294891357422
ell 470, elapsed: 0.0008671283721923828
ell 469, elapsed: 0.0008549690246582031
ell 468, elapsed: 0.0008509159088134766
ell 462, elapsed: 0.00160980224609375
ell 461, elapsed: 0.0008661746978759766
ell 460, elapsed: 0.0008509159088134766
ell 459, elapsed: 0.0008499622344970703
ell 458, elapsed: 0.0008549690246582031
ell 452, elapsed: 0.0016398429870605469
ell 451, elapsed: 0.0008561611175537109
ell 450, elapsed: 0.0008490085601806641
ell 449, elapsed: 0.0008490085601806641
ell 448, elapsed: 0.0008449554443359375
ell 442, elapsed: 0.0016109943389892578
ell 441, elapsed: 0.0008559226989746094
ell 440, elapsed: 0.0008499622344970703
ell 439, elapsed: 0.0008690357208251953
ell 438, elapsed: 0.0008559226989746094
ell 432, elapsed: 0.0016198158264160156
ell 431, elapsed: 0.0008649826049804688
ell 430, elapsed: 0.0008509159088134766
ell 429, elapsed: 0.0008499622344970703
ell 428, elapsed: 0.0008490085601806641
ell 422, elapsed: 0.0016181468963623047
ell 421, elapsed: 0.0008561611175537109
ell 420, elapsed: 0.0008521080017089844
ell 419, elapsed: 0.0008521080017089844
ell 418, elapsed: 0.0008628368377685547
ell 412, elapsed: 0.0015990734100341797
ell 411, elapsed: 0.0008521080017089844
ell 410, elapsed: 0.0008509159088134766
ell 409, elapsed: 0.0008640289306640625
ell 408, elapsed: 0.0008540153503417969
ell 402, elapsed: 0.0016109943389892578
ell 401, elapsed: 0.0008490085601806641
ell 400, elapsed: 0.0008678436279296875
ell 399, elapsed: 0.0008530616760253906
ell 398, elapsed: 0.0008559226989746094
ell 392, elapsed: 0.001631021499633789
ell 391, elapsed: 0.0008568763732910156
ell 390, elapsed: 0.0008509159088134766
ell 389, elapsed: 0.0008611679077148438
ell 388, elapsed: 0.0008649826049804688
ell 382, elapsed: 0.001634836196899414
ell 381, elapsed: 0.0008580684661865234
ell 380, elapsed: 0.0008540153503417969
ell 379, elapsed: 0.0008690357208251953
ell 378, elapsed: 0.0008571147918701172
ell 372, elapsed: 0.0016009807586669922
ell 371, elapsed: 0.0008580684661865234
ell 370, elapsed: 0.0008740425109863281
ell 369, elapsed: 0.0008299350738525391
ell 368, elapsed: 0.0008549690246582031
ell 362, elapsed: 0.0016090869903564453
ell 361, elapsed: 0.000865936279296875
ell 360, elapsed: 0.0008490085601806641
ell 359, elapsed: 0.0008559226989746094
ell 358, elapsed: 0.0008590221405029297
ell 352, elapsed: 0.0016160011291503906
ell 351, elapsed: 0.0008568763732910156
ell 350, elapsed: 0.0008509159088134766
ell 349, elapsed: 0.0008471012115478516
ell 348, elapsed: 0.0008649826049804688
ell 342, elapsed: 0.0016109943389892578
ell 341, elapsed: 0.0008530616760253906
ell 340, elapsed: 0.0008499622344970703
ell 339, elapsed: 0.0008628368377685547
ell 338, elapsed: 0.0008559226989746094
ell 332, elapsed: 0.0016071796417236328
ell 331, elapsed: 0.0008699893951416016
ell 330, elapsed: 0.0008490085601806641
ell 329, elapsed: 0.0008530616760253906
ell 328, elapsed: 0.0008599758148193359
ell 322, elapsed: 0.0016181468963623047
ell 321, elapsed: 0.0008509159088134766
ell 320, elapsed: 0.0008530616760253906
ell 319, elapsed: 0.0008540153503417969
ell 318, elapsed: 0.0008602142333984375
ell 312, elapsed: 0.0016090869903564453
ell 311, elapsed: 0.0008528232574462891
ell 310, elapsed: 0.0008549690246582031
ell 309, elapsed: 0.0008821487426757812
ell 308, elapsed: 0.0008649826049804688
ell 302, elapsed: 0.0015959739685058594
ell 301, elapsed: 0.0008521080017089844
ell 300, elapsed: 0.0008709430694580078
ell 299, elapsed: 0.0008490085601806641
ell 298, elapsed: 0.0008552074432373047
ell 292, elapsed: 0.0016238689422607422
ell 291, elapsed: 0.0008540153503417969
ell 290, elapsed: 0.0008361339569091797
ell 289, elapsed: 0.0008540153503417969
ell 288, elapsed: 0.0008471012115478516
ell 282, elapsed: 0.0016520023345947266
ell 281, elapsed: 0.0008521080017089844
ell 280, elapsed: 0.0008509159088134766
ell 279, elapsed: 0.0008630752563476562
ell 278, elapsed: 0.0008540153503417969
ell 272, elapsed: 0.0016179084777832031
ell 271, elapsed: 0.0008549690246582031
ell 270, elapsed: 0.0008687973022460938
ell 269, elapsed: 0.0008568763732910156
ell 268, elapsed: 0.0008580684661865234
ell 262, elapsed: 0.0016219615936279297
ell 261, elapsed: 0.0008709430694580078
ell 260, elapsed: 0.0008521080017089844
ell 259, elapsed: 0.0008540153503417969
ell 258, elapsed: 0.0008540153503417969
ell 252, elapsed: 0.0016651153564453125
ell 251, elapsed: 0.0008540153503417969
ell 250, elapsed: 0.0008540153503417969
ell 249, elapsed: 0.0008511543273925781
ell 248, elapsed: 0.0008709430694580078
ell 242, elapsed: 0.0016069412231445312
ell 241, elapsed: 0.0008561611175537109
ell 240, elapsed: 0.0008630752563476562
ell 239, elapsed: 0.0008561611175537109
ell 238, elapsed: 0.0008690357208251953
ell 232, elapsed: 0.0016150474548339844
ell 231, elapsed: 0.000865936279296875
ell 230, elapsed: 0.0008499622344970703
ell 229, elapsed: 0.0008471012115478516
ell 228, elapsed: 0.0008478164672851562
ell 222, elapsed: 0.0016260147094726562
ell 221, elapsed: 0.0008528232574462891
ell 220, elapsed: 0.0008471012115478516
ell 219, elapsed: 0.0008511543273925781
ell 218, elapsed: 0.0008668899536132812
ell 212, elapsed: 0.0016260147094726562
ell 211, elapsed: 0.0008599758148193359
ell 210, elapsed: 0.0008590221405029297
ell 209, elapsed: 0.0008771419525146484
ell 208, elapsed: 0.0008609294891357422
ell 202, elapsed: 0.0016129016876220703
ell 201, elapsed: 0.0008699893951416016
ell 200, elapsed: 0.000865936279296875
ell 199, elapsed: 0.0008509159088134766
ell 198, elapsed: 0.0008590221405029297
ell 192, elapsed: 0.0016498565673828125
ell 191, elapsed: 0.0008618831634521484
ell 190, elapsed: 0.0008590221405029297
ell 189, elapsed: 0.0008459091186523438
ell 188, elapsed: 0.000865936279296875
ell 182, elapsed: 0.0015950202941894531
ell 181, elapsed: 0.0008509159088134766
ell 180, elapsed: 0.0008528232574462891
ell 179, elapsed: 0.0008628368377685547
ell 178, elapsed: 0.0008511543273925781
ell 172, elapsed: 0.0016090869903564453
ell 171, elapsed: 0.0008530616760253906
ell 170, elapsed: 0.0008788108825683594
ell 169, elapsed: 0.0008618831634521484
ell 168, elapsed: 0.0008590221405029297
ell 162, elapsed: 0.0016620159149169922
ell 161, elapsed: 0.0008578300476074219
ell 160, elapsed: 0.0008590221405029297
ell 159, elapsed: 0.0008509159088134766
ell 158, elapsed: 0.0008580684661865234
ell 152, elapsed: 0.0016069412231445312
ell 151, elapsed: 0.0008530616760253906
ell 150, elapsed: 0.0008530616760253906
ell 149, elapsed: 0.0008640289306640625
ell 148, elapsed: 0.0008540153503417969
ell 142, elapsed: 0.0016009807586669922
ell 141, elapsed: 0.0008609294891357422
ell 140, elapsed: 0.0008721351623535156
ell 139, elapsed: 0.0008530616760253906
ell 138, elapsed: 0.0008559226989746094
ell 132, elapsed: 0.0015940666198730469
ell 131, elapsed: 0.0008699893951416016
ell 130, elapsed: 0.0008599758148193359
ell 129, elapsed: 0.0008499622344970703
ell 128, elapsed: 0.0008509159088134766
ell 122, elapsed: 0.0016319751739501953
ell 121, elapsed: 0.0008568763732910156
ell 120, elapsed: 0.0008561611175537109
ell 119, elapsed: 0.0008518695831298828
ell 118, elapsed: 0.0009047985076904297
ell 112, elapsed: 0.001611948013305664
ell 111, elapsed: 0.0008499622344970703
ell 110, elapsed: 0.0008640289306640625
ell 109, elapsed: 0.0008518695831298828
ell 108, elapsed: 0.0008509159088134766
ell 102, elapsed: 0.0017859935760498047
ell 101, elapsed: 0.0031349658966064453
ell 100, elapsed: 0.0031800270080566406
ell 99, elapsed: 0.003184795379638672
ell 98, elapsed: 0.0031938552856445312
ell 92, elapsed: 0.005982875823974609
ell 91, elapsed: 0.0032072067260742188
ell 90, elapsed: 0.003195047378540039
ell 89, elapsed: 0.0031998157501220703
ell 88, elapsed: 0.003197193145751953
ell 82, elapsed: 0.006018877029418945
ell 81, elapsed: 0.003214120864868164
ell 80, elapsed: 0.003213167190551758
ell 79, elapsed: 0.0034852027893066406
ell 78, elapsed: 0.0032520294189453125
ell 72, elapsed: 0.006004810333251953
ell 71, elapsed: 0.0032231807708740234
ell 70, elapsed: 0.0032100677490234375
ell 69, elapsed: 0.0032138824462890625
ell 68, elapsed: 0.003201007843017578
ell 62, elapsed: 0.005995988845825195
ell 61, elapsed: 0.0032029151916503906
ell 60, elapsed: 0.003213167190551758
ell 59, elapsed: 0.003206968307495117
ell 58, elapsed: 0.0032129287719726562
ell 52, elapsed: 0.006011009216308594
ell 51, elapsed: 0.003217935562133789
ell 50, elapsed: 0.0032231807708740234
ell 49, elapsed: 0.0032160282135009766
ell 48, elapsed: 0.003245115280151367
ell 42, elapsed: 0.006020069122314453
ell 41, elapsed: 0.003222942352294922
ell 40, elapsed: 0.003220081329345703
ell 39, elapsed: 0.0032150745391845703
ell 38, elapsed: 0.0031969547271728516
ell 32, elapsed: 0.006017923355102539
ell 31, elapsed: 0.003481149673461914
ell 30, elapsed: 0.0032210350036621094
ell 29, elapsed: 0.003202199935913086
ell 28, elapsed: 0.0032258033752441406
ell 22, elapsed: 0.006134986877441406
ell 21, elapsed: 0.0032689571380615234
ell 20, elapsed: 0.0032351016998291016
ell 19, elapsed: 0.003236055374145508
ell 18, elapsed: 0.0032389163970947266
ell 12, elapsed: 0.00603795051574707
ell 11, elapsed: 0.0032269954681396484
ell 10, elapsed: 0.0032880306243896484
ell 9, elapsed: 0.0035119056701660156
ell 8, elapsed: 0.003756999969482422
  0.782170 seconds (66.75 k allocations: 12.139 MiB)
elapsed: 0.004492998123168945
step:          0.074561 sec (0 allocations: 0 byte, 0.0% gc time)
swapping:      0.000801 sec (0 allocations: 0 byte, 0.0% gc time)
calc_Mellell!: 0.039361 sec (0 allocations: 0 byte, 0.0% gc time)
  t0 :  0.011689 sec (0 allocations: 0 byte, 0.0% gc time)
  tm2 : 0.072278 sec (0 allocations: 0 byte, 0.0% gc time)
  tm2s: 0.008778 sec (0 allocations: 0 byte, 0.0% gc time)
  tm4 : 0.18429 sec (0 allocations: 0 byte, 0.0% gc time)
  tp2 : 0.0 sec (0 allocations: 0 byte, 0.0% gc time)
  tp2s: 0.0 sec (0 allocations: 0 byte, 0.0% gc time)
  tp4 : 0.0 sec (0 allocations: 0 byte, 0.0% gc time)
calc_wtdll!:   0.539159 sec (49.2 k allocations: 11.133 MB, 0.0% gc time)
calc_wljj!:    0.037089 sec (69 allocations: 1.078 KB, 0.0% gc time)
mult_prefac!:  0.0 sec (0 allocations: 0 byte, 0.0% gc time)
convert:       0.0 sec (0 allocations: 0 byte, 0.0% gc time)
write:         0.033717 sec (0 allocations: 0 byte, 0.0% gc time)
test_rand_2f1: 0.0 sec (0 allocations: 0 byte, 0.0% gc time)
Closing outfile out/MlCache/MlCache.bin...   0.000011 seconds
xi, l=0, nu=0:   0.423891 seconds (551.85 k allocations: 26.842 MiB, 3.26% gc time)
xi, l=0, nu=-2:  0.002421 seconds (144 allocations: 149.562 KiB)
Created 'out/xi.tsv'.
  q=1.1, R=0.6:	  0.693936 seconds (291.08 k allocations: 38.895 MiB, 1.81% gc time)
  q=1.1, R=0.7:	  0.826323 seconds (304.75 k allocations: 40.996 MiB, 1.12% gc time)
  q=1.1, R=0.8:	  0.895456 seconds (299.14 k allocations: 40.132 MiB, 0.90% gc time)
  q=1.1, R=0.9:	  0.964059 seconds (293.57 k allocations: 39.286 MiB)
  q=1.1, R=0.998:	 20.269733 seconds (10.67 M allocations: 823.453 MiB, 0.26% gc time)
  q=1.1, R=1.0:	  0.004195 seconds (10.24 k allocations: 768.375 KiB)

ℓ = 1000
Δℓ = 4
ΔℓRg1 = -4
N = 4096
q = 1.1
kmin = 1.0e-5
kmax = 1000.0
χ0 = 0.001
RR = RR.tsv
ℓmax = ℓmax.bin
f21 = f21.bin
kmin = 1.0e-5
kmax = 1000.0
dlrec    = 4
dlrecRg1 = -4
Output size: 1573632 bytes = 0.0014655590057373047 GiB
Output size: 786816 bytes = 0.0007327795028686523 GiB
Reading 'out/F21EllCache'...   0.001328 seconds (268 allocations: 533.531 KiB)
ellmax: 1002
lmaxcache: 1000
fell[:,1,1] = Complex{Float64}[1.7262928128202118e-224 - 4.2281979352226944e-240im, 1.7282693092099662e-224 - 4.233038955177176e-240im]
ell 1002, elapsed: 3.0994415283203125e-5
ell 1001, elapsed: 0.0007610321044921875
ell 1000, elapsed: 0.0007030963897705078
ell 999, elapsed: 0.007706880569458008
ell 998, elapsed: 0.0072019100189208984
ell 44, elapsed: 0.6213600635528564
ell 43, elapsed: 0.0070648193359375
ell 42, elapsed: 0.006661891937255859
ell 41, elapsed: 0.006443977355957031
ell 40, elapsed: 0.0068280696868896484
  0.672863 seconds (4.55 k allocations: 320.031 KiB)
elapsed: 0.007503032684326172
step:          0.616988 sec (0 allocations: 0 byte, 0.0% gc time)
swapping:      0.000601 sec (0 allocations: 0 byte, 0.0% gc time)
calc_Mellell!: 0.001178 sec (0 allocations: 0 byte, 0.0% gc time)
  t0 :  0.000515 sec (0 allocations: 0 byte, 0.0% gc time)
  tm2 : 0.012372 sec (0 allocations: 0 byte, 0.0% gc time)
  tm2s: 0.000343 sec (0 allocations: 0 byte, 0.0% gc time)
  tm4 : 0.034553 sec (0 allocations: 0 byte, 0.0% gc time)
  tp2 : 0.0 sec (0 allocations: 0 byte, 0.0% gc time)
  tp2s: 0.0 sec (0 allocations: 0 byte, 0.0% gc time)
  tp4 : 0.0 sec (0 allocations: 0 byte, 0.0% gc time)
calc_wtdll!:   0.048007 sec (480 allocations: 52.5 KB, 0.0% gc time)
calc_wljj!:    0.001461 sec (1 allocations: 16 byte, 0.0% gc time)
mult_prefac!:  0.0 sec (0 allocations: 0 byte, 0.0% gc time)
convert:       0.0 sec (0 allocations: 0 byte, 0.0% gc time)
write:         0.000954 sec (0 allocations: 0 byte, 0.0% gc time)
test_rand_2f1: 0.0 sec (0 allocations: 0 byte, 0.0% gc time)
Closing outfile out/MlCache/MlCache.bin...   0.001039 seconds
  0.490609 seconds (54 allocations: 67.203 KiB)
make_phi():   0.009915 seconds (80 allocations: 276.297 KiB)
  0.003056 seconds (108 allocations: 5.812 KiB)
tskip:       1.0e-6 sec (0 allocations: 0 byte, 0.0% gc time)
tread:       0.000664 sec (19 allocations: 1.312 KB, 0.0% gc time)
tmultphi:    0.000353 sec (0 allocations: 0 byte, 0.0% gc time)
tbrfft:      0.001163 sec (96 allocations: 4.5 KB, 0.0% gc time)
tmultprefac: 0.000859 sec (0 allocations: 0 byte, 0.0% gc time)
toutfunc:    0.000123 sec (0 allocations: 0 byte, 0.0% gc time)
Created 'out/wl42_jj00.tsv'.
Created 'out/wl42_jj02.tsv'.
   Testing TwoFAST tests passed 
