Julia Version 1.4.0-DEV.528
Commit 6970fbdab4 (2019-11-27 09:37 UTC)
Platform Info:
  OS: Linux (x86_64-linux-gnu)
  CPU: Intel(R) Xeon(R) Silver 4114 CPU @ 2.20GHz
  WORD_SIZE: 64
  LIBM: libopenlibm
  LLVM: libLLVM-8.0.1 (ORCJIT, skylake)
Environment:
  JULIA_DEPOT_PATH = ::/usr/local/share/julia

 Resolving package versions...
 Installed Reexport ───────── v0.2.0
 Installed Parsers ────────── v0.3.10
 Installed Conda ──────────── v1.3.0
 Installed SpecialFunctions ─ v0.8.0
 Installed BinaryProvider ─── v0.5.8
 Installed AbstractAlgebra ── v0.7.1
 Installed Nemo ───────────── v0.15.1
 Installed TwoFAST ────────── v0.1.0
 Installed URIParser ──────── v0.4.0
 Installed VersionParsing ─── v1.2.0
 Installed IncGammaBeta ───── v0.1.0
 Installed AbstractFFTs ───── v0.5.0
 Installed BinDeps ────────── v1.0.0
 Installed JSON ───────────── v0.21.0
 Installed FFTW ───────────── v1.1.0
  Updating `~/.julia/environments/v1.4/Project.toml`
  [0dd23c3e] + TwoFAST v0.1.0
  Updating `~/.julia/environments/v1.4/Manifest.toml`
  [c3fe647b] + AbstractAlgebra v0.7.1
  [621f4979] + AbstractFFTs v0.5.0
  [9e28174c] + BinDeps v1.0.0
  [b99e7846] + BinaryProvider v0.5.8
  [8f4d0f93] + Conda v1.3.0
  [7a1cc6ca] + FFTW v1.1.0
  [5087d2c0] + IncGammaBeta v0.1.0
  [682c06a0] + JSON v0.21.0
  [2edaba10] + Nemo v0.15.1
  [69de0a69] + Parsers v0.3.10
  [189a3867] + Reexport v0.2.0
  [276daf66] + SpecialFunctions v0.8.0
  [0dd23c3e] + TwoFAST v0.1.0
  [30578b45] + URIParser v0.4.0
  [81def892] + VersionParsing v1.2.0
  [2a0f44e3] + Base64 
  [ade2ca70] + Dates 
  [8bb1440f] + DelimitedFiles 
  [8ba89e20] + Distributed 
  [b77e0a4c] + InteractiveUtils 
  [76f85450] + LibGit2 
  [8f399da3] + Libdl 
  [37e2e46d] + LinearAlgebra 
  [56ddb016] + Logging 
  [d6f4376e] + Markdown 
  [a63ad114] + Mmap 
  [44cfe95a] + Pkg 
  [de0858da] + Printf 
  [3fa0cd96] + REPL 
  [9a3f8284] + Random 
  [ea8e919c] + SHA 
  [9e88b42a] + Serialization 
  [6462fe0b] + Sockets 
  [2f01184e] + SparseArrays 
  [8dfed614] + Test 
  [cf7118a7] + UUIDs 
  [4ec0a83e] + Unicode 
  Building Conda ───────────→ `~/.julia/packages/Conda/kLXeC/deps/build.log`
  Building SpecialFunctions → `~/.julia/packages/SpecialFunctions/ne2iw/deps/build.log`
  Building Nemo ────────────→ `~/.julia/packages/Nemo/qzx0m/deps/build.log`
  Building FFTW ────────────→ `~/.julia/packages/FFTW/loJ3F/deps/build.log`
   Testing TwoFAST
 Resolving package versions...
 Installed Dierckx ─ v0.4.1
  Building Dierckx → `~/.julia/packages/Dierckx/9SY4A/deps/build.log`
Status `/tmp/jl_S6Rv9u/Manifest.toml`
  [c3fe647b] AbstractAlgebra v0.7.1
  [621f4979] AbstractFFTs v0.5.0
  [9e28174c] BinDeps v1.0.0
  [b99e7846] BinaryProvider v0.5.8
  [8f4d0f93] Conda v1.3.0
  [39dd38d3] Dierckx v0.4.1
  [7a1cc6ca] FFTW v1.1.0
  [5087d2c0] IncGammaBeta v0.1.0
  [682c06a0] JSON v0.21.0
  [2edaba10] Nemo v0.15.1
  [69de0a69] Parsers v0.3.10
  [189a3867] Reexport v0.2.0
  [276daf66] SpecialFunctions v0.8.0
  [0dd23c3e] TwoFAST v0.1.0
  [30578b45] URIParser v0.4.0
  [81def892] VersionParsing v1.2.0
  [2a0f44e3] Base64  [`@stdlib/Base64`]
  [ade2ca70] Dates  [`@stdlib/Dates`]
  [8bb1440f] DelimitedFiles  [`@stdlib/DelimitedFiles`]
  [8ba89e20] Distributed  [`@stdlib/Distributed`]
  [b77e0a4c] InteractiveUtils  [`@stdlib/InteractiveUtils`]
  [76f85450] LibGit2  [`@stdlib/LibGit2`]
  [8f399da3] Libdl  [`@stdlib/Libdl`]
  [37e2e46d] LinearAlgebra  [`@stdlib/LinearAlgebra`]
  [56ddb016] Logging  [`@stdlib/Logging`]
  [d6f4376e] Markdown  [`@stdlib/Markdown`]
  [a63ad114] Mmap  [`@stdlib/Mmap`]
  [44cfe95a] Pkg  [`@stdlib/Pkg`]
  [de0858da] Printf  [`@stdlib/Printf`]
  [3fa0cd96] REPL  [`@stdlib/REPL`]
  [9a3f8284] Random  [`@stdlib/Random`]
  [ea8e919c] SHA  [`@stdlib/SHA`]
  [9e88b42a] Serialization  [`@stdlib/Serialization`]
  [6462fe0b] Sockets  [`@stdlib/Sockets`]
  [2f01184e] SparseArrays  [`@stdlib/SparseArrays`]
  [8dfed614] Test  [`@stdlib/Test`]
  [cf7118a7] UUIDs  [`@stdlib/UUIDs`]
  [4ec0a83e] Unicode  [`@stdlib/Unicode`]

Welcome to Nemo version 0.15.1

Nemo comes with absolutely no warranty whatsoever


Welcome to Nemo version 0.15.1

Nemo comes with absolutely no warranty whatsoever

Testing ξ(r), ℓ=0, ν=-1 ... passed
Testing ξ(r), ℓ=0, ν=0 ... passed
Testing ξ(r), ℓ=0, ν=1 ... passed
Testing ξ(r), ℓ=0, ν=2 ... passed
Testing ξ(r), ℓ=0, ν=3 ... passed
Testing ξ(r), ℓ=1, ν=0 ... passed
Testing ξ(r), ℓ=1, ν=1 ... passed
Testing ξ(r), ℓ=1, ν=2 ... passed
Testing ξ(r), ℓ=1, ν=3 ... passed
Testing ξ(r), ℓ=2, ν=-1 ... passed
Testing ξ(r), ℓ=2, ν=0 ... passed
Testing ξ(r), ℓ=2, ν=1 ... passed
Testing ξ(r), ℓ=2, ν=2 ... passed
Testing ξ(r), ℓ=2, ν=3 ... passed
Testing ξ(r), ℓ=3, ν=-1 ... passed
Testing ξ(r), ℓ=3, ν=0 ... passed
Testing ξ(r), ℓ=3, ν=1 ... passed
Testing ξ(r), ℓ=3, ν=2 ... passed
Testing ξ(r), ℓ=3, ν=3 ... passed
Testing ξ(r), ℓ=4, ν=-1 ... passed
Testing ξ(r), ℓ=4, ν=0 ... passed
Testing ξ(r), ℓ=4, ν=1 ... passed
Testing ξ(r), ℓ=4, ν=2 ... passed
Testing ξ(r), ℓ=4, ν=3 ... passed
Testing ξ(r) ... passed
Testing ξ′(r) ... passed
Testing ξ″(r) ... passed
Calculating fmax: 
  dlrec    = 4
  dlrecRg1 = -4
  q=1.1, R=1.1:	  4.864361 seconds (1.28 M allocations: 71.936 MiB, 1.81% gc time)

  4.904078 seconds (1.31 M allocations: 73.047 MiB, 1.80% gc time)
ℓ = 1202
Δℓ = 4
ΔℓRg1 = -4
N = 1600
q = 1.1
kmin = 1.0e-5
kmax = 100000.00000000004
χ0 = 0.023029999999999995
RR = RR.tsv
ℓmax = ℓmax.bin
f21 = f21.bin
kmin = 1.0e-5
kmax = 100000.0
dlrec    = 4
dlrecRg1 = -4
Output size: 5741568 bytes = 0.005347251892089844 GiB
Output size: 51264 bytes = 4.774332046508789e-5 GiB
Reading 'out/F21EllCache'...   0.584437 seconds (315.14 k allocations: 16.185 MiB)
ellmax: 1202
lmaxcache: 1202
fell[:,1,1] = Complex{Float64}[3.9583795592771634e-52 - 9.695233714158177e-68im, 3.990121772925759e-52 - 9.772979714843386e-68im]
ell 1202, elapsed: 8.702278137207031e-5
ell 1201, elapsed: 2.0723891258239746
ell 1200, elapsed: 0.0007119178771972656
ell 1199, elapsed: 0.0006160736083984375
ell 1198, elapsed: 0.0005748271942138672
ell 1002, elapsed: 0.009624004364013672
ell 1001, elapsed: 0.0006000995635986328
ell 1000, elapsed: 0.0005960464477539062
ell 999, elapsed: 0.0006020069122314453
ell 998, elapsed: 0.0005559921264648438
ell 902, elapsed: 0.004933834075927734
ell 901, elapsed: 0.0005199909210205078
ell 900, elapsed: 0.0005838871002197266
ell 899, elapsed: 0.0005168914794921875
ell 898, elapsed: 0.0005598068237304688
ell 802, elapsed: 0.0052149295806884766
ell 801, elapsed: 0.0005199909210205078
ell 800, elapsed: 0.0004990100860595703
ell 799, elapsed: 0.0004858970642089844
ell 798, elapsed: 0.0004909038543701172
ell 702, elapsed: 0.004781961441040039
ell 701, elapsed: 0.0004851818084716797
ell 700, elapsed: 0.00046706199645996094
ell 699, elapsed: 0.000431060791015625
ell 698, elapsed: 0.0004229545593261719
ell 602, elapsed: 0.004318952560424805
ell 601, elapsed: 0.0004489421844482422
ell 600, elapsed: 0.0004429817199707031
ell 599, elapsed: 0.000431060791015625
ell 598, elapsed: 0.00042700767517089844
ell 502, elapsed: 0.0042400360107421875
ell 501, elapsed: 0.00044798851013183594
ell 500, elapsed: 0.00043010711669921875
ell 499, elapsed: 0.0004279613494873047
ell 498, elapsed: 0.0004220008850097656
ell 402, elapsed: 0.004347085952758789
ell 401, elapsed: 0.0004987716674804688
ell 400, elapsed: 0.0005021095275878906
ell 399, elapsed: 0.00043487548828125
ell 398, elapsed: 0.0004298686981201172
ell 302, elapsed: 0.004212141036987305
ell 301, elapsed: 0.0004420280456542969
ell 300, elapsed: 0.00043082237243652344
ell 299, elapsed: 0.0004220008850097656
ell 298, elapsed: 0.0004229545593261719
ell 202, elapsed: 0.004278898239135742
ell 201, elapsed: 0.0004780292510986328
ell 200, elapsed: 0.00042510032653808594
ell 199, elapsed: 0.0004220008850097656
ell 198, elapsed: 0.0004220008850097656
ell 152, elapsed: 0.0022280216217041016
ell 151, elapsed: 0.0004401206970214844
ell 150, elapsed: 0.0004241466522216797
ell 149, elapsed: 0.0004279613494873047
ell 148, elapsed: 0.0004298686981201172
ell 127, elapsed: 0.0013251304626464844
ell 126, elapsed: 0.0004229545593261719
ell 125, elapsed: 0.0004220008850097656
ell 124, elapsed: 0.00043201446533203125
ell 123, elapsed: 0.0004229545593261719
ell 114, elapsed: 0.0007669925689697266
ell 113, elapsed: 0.0004229545593261719
ell 112, elapsed: 0.0004210472106933594
ell 111, elapsed: 0.0004220008850097656
ell 110, elapsed: 0.0004229545593261719
ell 102, elapsed: 0.0008180141448974609
ell 101, elapsed: 0.0004241466522216797
ell 100, elapsed: 0.0004220008850097656
ell 99, elapsed: 0.0004200935363769531
ell 98, elapsed: 0.0004220008850097656
ell 97, elapsed: 0.0004458427429199219
ell 96, elapsed: 0.0005159378051757812
ell 95, elapsed: 0.0004420280456542969
ell 94, elapsed: 0.0005168914794921875
ell 93, elapsed: 0.0004570484161376953
ell 92, elapsed: 0.0005009174346923828
ell 91, elapsed: 0.0004448890686035156
ell 90, elapsed: 0.0005021095275878906
ell 89, elapsed: 0.0004391670227050781
ell 88, elapsed: 0.0004911422729492188
ell 87, elapsed: 0.00044083595275878906
ell 86, elapsed: 0.0005049705505371094
ell 85, elapsed: 0.0004608631134033203
ell 84, elapsed: 0.0005040168762207031
ell 83, elapsed: 0.0004429817199707031
ell 82, elapsed: 0.0005121231079101562
ell 81, elapsed: 0.0004489421844482422
ell 80, elapsed: 0.0005018711090087891
ell 79, elapsed: 0.0004401206970214844
ell 78, elapsed: 0.0004911422729492188
ell 77, elapsed: 0.0004649162292480469
ell 76, elapsed: 0.0005028247833251953
ell 75, elapsed: 0.00045108795166015625
ell 74, elapsed: 0.0005068778991699219
ell 73, elapsed: 0.00044798851013183594
ell 72, elapsed: 0.0005109310150146484
ell 71, elapsed: 0.00044798851013183594
ell 70, elapsed: 0.0005087852478027344
ell 69, elapsed: 0.0004627704620361328
ell 68, elapsed: 0.0005021095275878906
ell 67, elapsed: 0.0004429817199707031
ell 66, elapsed: 0.0005049705505371094
ell 65, elapsed: 0.0004458427429199219
ell 64, elapsed: 0.0005059242248535156
ell 63, elapsed: 0.0004410743713378906
ell 62, elapsed: 0.0005040168762207031
ell 61, elapsed: 0.0004401206970214844
ell 60, elapsed: 0.0004978179931640625
ell 59, elapsed: 0.0004398822784423828
ell 58, elapsed: 0.0005040168762207031
ell 57, elapsed: 0.00044608116149902344
ell 56, elapsed: 0.0004971027374267578
ell 55, elapsed: 0.00044918060302734375
ell 54, elapsed: 0.0005021095275878906
ell 53, elapsed: 0.0004639625549316406
ell 52, elapsed: 0.0005099773406982422
ell 51, elapsed: 0.0004439353942871094
ell 50, elapsed: 0.0004990100860595703
ell 49, elapsed: 0.0004470348358154297
ell 48, elapsed: 0.0005059242248535156
ell 47, elapsed: 0.00044417381286621094
ell 46, elapsed: 0.0005030632019042969
ell 45, elapsed: 0.00045800209045410156
ell 44, elapsed: 0.0005078315734863281
ell 43, elapsed: 0.00045108795166015625
ell 42, elapsed: 0.0005109310150146484
ell 41, elapsed: 0.00045108795166015625
ell 40, elapsed: 0.0005118846893310547
ell 39, elapsed: 0.0004470348358154297
ell 38, elapsed: 0.0005230903625488281
ell 37, elapsed: 0.00044798851013183594
ell 36, elapsed: 0.0004990100860595703
ell 35, elapsed: 0.0004448890686035156
ell 34, elapsed: 0.0004999637603759766
ell 33, elapsed: 0.0004410743713378906
ell 32, elapsed: 0.0005049705505371094
ell 31, elapsed: 0.0004429817199707031
ell 30, elapsed: 0.0005240440368652344
ell 29, elapsed: 0.0004432201385498047
ell 28, elapsed: 0.0005121231079101562
ell 27, elapsed: 0.0004429817199707031
ell 26, elapsed: 0.0005021095275878906
ell 25, elapsed: 0.00044798851013183594
ell 24, elapsed: 0.0005061626434326172
ell 23, elapsed: 0.0004470348358154297
ell 22, elapsed: 0.0005161762237548828
ell 21, elapsed: 0.0004470348358154297
ell 20, elapsed: 0.0005078315734863281
ell 19, elapsed: 0.0004458427429199219
ell 18, elapsed: 0.0005059242248535156
ell 17, elapsed: 0.0004429817199707031
ell 16, elapsed: 0.0005021095275878906
ell 15, elapsed: 0.00048804283142089844
ell 14, elapsed: 0.0005509853363037109
ell 13, elapsed: 0.00044798851013183594
ell 12, elapsed: 0.0005061626434326172
ell 11, elapsed: 0.0004429817199707031
ell 10, elapsed: 0.0005009174346923828
ell 9, elapsed: 0.0004420280456542969
ell 8, elapsed: 0.0005068778991699219
ell 7, elapsed: 0.0004429817199707031
ell 6, elapsed: 0.0005228519439697266
ell 5, elapsed: 0.000453948974609375
ell 4, elapsed: 0.0010149478912353516
ell 3, elapsed: 0.0006499290466308594
ell 2, elapsed: 0.0007619857788085938
ell 1, elapsed: 0.0006611347198486328
ell 0, elapsed: 0.0007250308990478516
  2.709662 seconds (1.88 M allocations: 92.102 MiB, 1.86% gc time)
elapsed: 0.0006940364837646484
step:          0.767312 sec (479.364 k allocations: 23.815 MB, 3.91% gc time)
swapping:      0.000434 sec (0 allocations: 0 byte, 0.0% gc time)
calc_Mellell!: 0.398768 sec (372.873 k allocations: 18.475 MB, 0.0% gc time)
  t0 :  0.0 sec (0 allocations: 0 byte, 0.0% gc time)
  tm2 : 0.0 sec (0 allocations: 0 byte, 0.0% gc time)
  tm2s: 0.0 sec (0 allocations: 0 byte, 0.0% gc time)
  tm4 : 0.0 sec (0 allocations: 0 byte, 0.0% gc time)
  tp2 : 0.0 sec (0 allocations: 0 byte, 0.0% gc time)
  tp2s: 0.0 sec (0 allocations: 0 byte, 0.0% gc time)
  tp4 : 0.0 sec (0 allocations: 0 byte, 0.0% gc time)
calc_wtdll!:   1.020026 sec (526.586 k allocations: 26.418 MB, 0.0% gc time)
calc_wljj!:    0.002076 sec (6 allocations: 96 byte, 0.0% gc time)
mult_prefac!:  0.0 sec (0 allocations: 0 byte, 0.0% gc time)
convert:       0.0 sec (0 allocations: 0 byte, 0.0% gc time)
write:         0.003901 sec (0 allocations: 0 byte, 0.0% gc time)
test_rand_2f1: 0.0 sec (0 allocations: 0 byte, 0.0% gc time)
Closing outfile out/Ml21-cache.bin...   0.000126 seconds
  0.981513 seconds (8.65 k allocations: 420.781 KiB)
make_phi():   0.013942 seconds (8.20 k allocations: 238.016 KiB)
  0.210773 seconds (121.93 k allocations: 5.914 MiB)
tskip:       2.0e-5 sec (0 allocations: 0 byte, 0.0% gc time)
tread:       0.002374 sec (19 allocations: 2.172 KB, 0.0% gc time)
tmultphi:    0.042626 sec (26.142 k allocations: 1.344 MB, 0.0% gc time)
tbrfft:      0.004725 sec (896 allocations: 42.0 KB, 0.0% gc time)
tmultprefac: 0.003245 sec (0 allocations: 0 byte, 0.0% gc time)
toutfunc:    0.157709 sec (94.22 k allocations: 4.457 MB, 0.0% gc time)
Testing R=1.1 ... passed
Calculating fmax: 
  dlrec    = 4
  dlrecRg1 = -4
  q=1.1, R=1.0:	  0.001980 seconds (4.00 k allocations: 300.375 KiB)

  0.002163 seconds (4.04 k allocations: 334.734 KiB)
ℓ = 1202
Δℓ = 4
ΔℓRg1 = -4
N = 1600
q = 1.1
kmin = 1.0e-5
kmax = 100000.00000000004
χ0 = 0.023029999999999995
RR = RR.tsv
ℓmax = ℓmax.bin
f21 = f21.bin
kmin = 1.0e-5
kmax = 100000.0
dlrec    = 4
dlrecRg1 = -4
Output size: 61465536 bytes = 0.05724424123764038 GiB
Output size: 51264 bytes = 4.774332046508789e-5 GiB
Reading 'out/F21EllCache'...   0.001047 seconds (267 allocations: 84.656 KiB)
ellmax: 1202
lmaxcache: 1202
fell[:,1,1] = Complex{Float64}[809.6031528389767 - 1.9829558194077161e-13im, 0.0 + 0.0im]
ell 1202, elapsed: 2.3126602172851562e-5
ell 1201, elapsed: 0.0144500732421875
ell 1200, elapsed: 0.00041794776916503906
ell 1199, elapsed: 0.00035190582275390625
ell 1198, elapsed: 0.0003490447998046875
ell 1197, elapsed: 0.0003979206085205078
ell 1196, elapsed: 0.0005130767822265625
ell 1195, elapsed: 0.00048089027404785156
ell 1194, elapsed: 0.0004601478576660156
ell 1193, elapsed: 0.0006690025329589844
ell 1192, elapsed: 0.0003840923309326172
ell 1191, elapsed: 0.0006780624389648438
ell 1190, elapsed: 0.0005719661712646484
ell 1189, elapsed: 0.0007791519165039062
ell 1188, elapsed: 0.0004611015319824219
ell 1187, elapsed: 0.0005528926849365234
ell 1186, elapsed: 0.0004630088806152344
ell 1185, elapsed: 0.0005500316619873047
ell 1184, elapsed: 0.0004570484161376953
ell 1183, elapsed: 0.0005540847778320312
ell 1182, elapsed: 0.0006508827209472656
ell 1181, elapsed: 0.0007269382476806641
ell 1180, elapsed: 0.0004870891571044922
ell 1179, elapsed: 0.0006551742553710938
ell 1178, elapsed: 0.0005369186401367188
ell 1177, elapsed: 0.0007319450378417969
ell 1176, elapsed: 0.0006191730499267578
ell 1175, elapsed: 0.0007331371307373047
ell 1174, elapsed: 0.0004971027374267578
ell 1173, elapsed: 0.0006849765777587891
ell 1172, elapsed: 0.0006220340728759766
ell 1171, elapsed: 0.0008471012115478516
ell 1170, elapsed: 0.0004601478576660156
ell 1169, elapsed: 0.0006630420684814453
ell 1168, elapsed: 0.0006279945373535156
ell 1167, elapsed: 0.0006170272827148438
ell 1166, elapsed: 0.0005779266357421875
ell 1165, elapsed: 0.0008471012115478516
ell 1164, elapsed: 0.0006091594696044922
ell 1163, elapsed: 0.0006690025329589844
ell 1162, elapsed: 0.0005400180816650391
ell 1161, elapsed: 0.0007319450378417969
ell 1160, elapsed: 0.0005350112915039062
ell 1159, elapsed: 0.0007760524749755859
ell 1158, elapsed: 0.0004889965057373047
ell 1157, elapsed: 0.0006420612335205078
ell 1156, elapsed: 0.00046896934509277344
ell 1155, elapsed: 0.0006759166717529297
ell 1154, elapsed: 0.0004949569702148438
ell 1153, elapsed: 0.0006771087646484375
ell 1152, elapsed: 0.0004940032958984375
ell 1151, elapsed: 0.0006799697875976562
ell 1150, elapsed: 0.0005831718444824219
ell 1149, elapsed: 0.0007410049438476562
ell 1148, elapsed: 0.0005018711090087891
ell 1147, elapsed: 0.00043702125549316406
ell 1146, elapsed: 0.0006620883941650391
ell 1145, elapsed: 0.0005168914794921875
ell 1144, elapsed: 0.0003600120544433594
ell 1143, elapsed: 0.00042891502380371094
ell 1142, elapsed: 0.00035691261291503906
ell 1141, elapsed: 0.0004360675811767578
ell 1140, elapsed: 0.0004868507385253906
ell 1139, elapsed: 0.0007469654083251953
ell 1138, elapsed: 0.000514984130859375
ell 1137, elapsed: 0.0006918907165527344
ell 1136, elapsed: 0.0005919933319091797
ell 1135, elapsed: 0.00074005126953125
ell 1134, elapsed: 0.0004909038543701172
ell 1133, elapsed: 0.0004420280456542969
ell 1132, elapsed: 0.0005209445953369141
ell 1131, elapsed: 0.0004620552062988281
ell 1130, elapsed: 0.00036597251892089844
ell 1129, elapsed: 0.0004661083221435547
ell 1128, elapsed: 0.0005381107330322266
ell 1127, elapsed: 0.0007228851318359375
ell 1126, elapsed: 0.0006208419799804688
ell 1125, elapsed: 0.0008869171142578125
ell 1124, elapsed: 0.0005559921264648438
ell 1123, elapsed: 0.0005750656127929688
ell 1122, elapsed: 0.0003647804260253906
ell 1121, elapsed: 0.0004470348358154297
ell 1120, elapsed: 0.0005128383636474609
ell 1119, elapsed: 0.0006310939788818359
ell 1118, elapsed: 0.0005450248718261719
ell 1117, elapsed: 0.0006849765777587891
ell 1116, elapsed: 0.000514984130859375
ell 1115, elapsed: 0.0006558895111083984
ell 1114, elapsed: 0.0006291866302490234
ell 1113, elapsed: 0.0005879402160644531
ell 1112, elapsed: 0.0007579326629638672
ell 1111, elapsed: 0.0006859302520751953
ell 1110, elapsed: 0.0004940032958984375
ell 1109, elapsed: 0.00044083595275878906
ell 1108, elapsed: 0.0003619194030761719
ell 1107, elapsed: 0.0004429817199707031
ell 1106, elapsed: 0.00037598609924316406
ell 1105, elapsed: 0.0007228851318359375
ell 1104, elapsed: 0.0005049705505371094
ell 1103, elapsed: 0.0006449222564697266
ell 1102, elapsed: 0.0006241798400878906
ell 1101, elapsed: 0.0005750656127929688
ell 1100, elapsed: 0.0003638267517089844
ell 1099, elapsed: 0.00045299530029296875
ell 1098, elapsed: 0.0005130767822265625
ell 1097, elapsed: 0.0006668567657470703
ell 1096, elapsed: 0.0006091594696044922
ell 1095, elapsed: 0.000579833984375
ell 1094, elapsed: 0.00055694580078125
ell 1093, elapsed: 0.0005729198455810547
ell 1092, elapsed: 0.0007159709930419922
ell 1091, elapsed: 0.0006279945373535156
ell 1090, elapsed: 0.0005490779876708984
ell 1089, elapsed: 0.0006151199340820312
ell 1088, elapsed: 0.0005190372467041016
ell 1087, elapsed: 0.0007359981536865234
ell 1086, elapsed: 0.00043702125549316406
ell 1085, elapsed: 0.0006361007690429688
ell 1084, elapsed: 0.0005471706390380859
ell 1083, elapsed: 0.0006380081176757812
ell 1082, elapsed: 0.00039696693420410156
ell 1081, elapsed: 0.0006210803985595703
ell 1080, elapsed: 0.0006129741668701172
ell 1079, elapsed: 0.0007748603820800781
ell 1078, elapsed: 0.0005259513854980469
ell 1077, elapsed: 0.0007338523864746094
ell 1076, elapsed: 0.0005338191986083984
ell 1075, elapsed: 0.0006499290466308594
ell 1074, elapsed: 0.0005939006805419922
ell 1073, elapsed: 0.0007419586181640625
ell 1072, elapsed: 0.00037598609924316406
ell 1071, elapsed: 0.0006289482116699219
ell 1070, elapsed: 0.0006170272827148438
ell 1069, elapsed: 0.0007460117340087891
ell 1068, elapsed: 0.0005381107330322266
ell 1067, elapsed: 0.0005881786346435547
ell 1066, elapsed: 0.00043010711669921875
ell 1065, elapsed: 0.0005781650543212891
ell 1064, elapsed: 0.00051116943359375
ell 1063, elapsed: 0.0004649162292480469
ell 1062, elapsed: 0.0003788471221923828
ell 1061, elapsed: 0.0006740093231201172
ell 1060, elapsed: 0.0007450580596923828
ell 1059, elapsed: 0.0007429122924804688
ell 1058, elapsed: 0.0004999637603759766
ell 1057, elapsed: 0.0007109642028808594
ell 1056, elapsed: 0.0004949569702148438
ell 1055, elapsed: 0.0006480216979980469
ell 1054, elapsed: 0.0006849765777587891
ell 1053, elapsed: 0.0006518363952636719
ell 1052, elapsed: 0.0004410743713378906
ell 1051, elapsed: 0.0007250308990478516
ell 1050, elapsed: 0.0006167888641357422
ell 1049, elapsed: 0.0007169246673583984
ell 1048, elapsed: 0.0006160736083984375
ell 1047, elapsed: 0.00067901611328125
ell 1046, elapsed: 0.00047516822814941406
ell 1045, elapsed: 0.0006029605865478516
ell 1044, elapsed: 0.0005171298980712891
ell 1043, elapsed: 0.0004730224609375
ell 1042, elapsed: 0.000579833984375
ell 1041, elapsed: 0.0007541179656982422
ell 1040, elapsed: 0.0003662109375
ell 1039, elapsed: 0.000701904296875
ell 1038, elapsed: 0.0006191730499267578
ell 1037, elapsed: 0.0007421970367431641
ell 1036, elapsed: 0.0006167888641357422
ell 1035, elapsed: 0.0007700920104980469
ell 1034, elapsed: 0.0005211830139160156
ell 1033, elapsed: 0.0007259845733642578
ell 1032, elapsed: 0.0006258487701416016
ell 1031, elapsed: 0.0007309913635253906
ell 1030, elapsed: 0.0007569789886474609
ell 1029, elapsed: 0.0006289482116699219
ell 1028, elapsed: 0.0005440711975097656
ell 1027, elapsed: 0.0007379055023193359
ell 1026, elapsed: 0.0006191730499267578
ell 1025, elapsed: 0.0007338523864746094
ell 1024, elapsed: 0.0006361007690429688
ell 1023, elapsed: 0.0006229877471923828
ell 1022, elapsed: 0.0006318092346191406
ell 1021, elapsed: 0.0006580352783203125
ell 1020, elapsed: 0.0006229877471923828
ell 1019, elapsed: 0.0007419586181640625
ell 1018, elapsed: 0.0006639957427978516
ell 1017, elapsed: 0.0006949901580810547
ell 1016, elapsed: 0.0006239414215087891
ell 1015, elapsed: 0.0006198883056640625
ell 1014, elapsed: 0.0003948211669921875
ell 1013, elapsed: 0.0004742145538330078
ell 1012, elapsed: 0.00039696693420410156
ell 1011, elapsed: 0.00048089027404785156
ell 1010, elapsed: 0.0003948211669921875
ell 1009, elapsed: 0.000476837158203125
ell 1008, elapsed: 0.00039505958557128906
ell 1007, elapsed: 0.0004730224609375
ell 1006, elapsed: 0.0004000663757324219
ell 1005, elapsed: 0.0004711151123046875
ell 1004, elapsed: 0.00039887428283691406
ell 1003, elapsed: 0.0005929470062255859
ell 1002, elapsed: 0.0004010200500488281
ell 1001, elapsed: 0.00047397613525390625
ell 1000, elapsed: 0.0004029273986816406
ell 999, elapsed: 0.0004839897155761719
ell 998, elapsed: 0.0003991127014160156
ell 997, elapsed: 0.0006580352783203125
ell 996, elapsed: 0.0004680156707763672
ell 995, elapsed: 0.0005660057067871094
ell 994, elapsed: 0.0003998279571533203
ell 993, elapsed: 0.0004820823669433594
ell 992, elapsed: 0.0004000663757324219
ell 991, elapsed: 0.0004799365997314453
ell 990, elapsed: 0.00040602684020996094
ell 989, elapsed: 0.00047588348388671875
ell 988, elapsed: 0.00039696693420410156
ell 987, elapsed: 0.0008130073547363281
ell 986, elapsed: 0.00047206878662109375
ell 985, elapsed: 0.0007510185241699219
ell 984, elapsed: 0.00040411949157714844
ell 983, elapsed: 0.00046896934509277344
ell 982, elapsed: 0.0005300045013427734
ell 981, elapsed: 0.0007359981536865234
ell 980, elapsed: 0.0005788803100585938
ell 979, elapsed: 0.0005629062652587891
ell 978, elapsed: 0.00039386749267578125
ell 977, elapsed: 0.0004680156707763672
ell 976, elapsed: 0.0003960132598876953
ell 975, elapsed: 0.00046896934509277344
ell 974, elapsed: 0.000392913818359375
ell 973, elapsed: 0.0005869865417480469
ell 972, elapsed: 0.0003960132598876953
ell 971, elapsed: 0.0004730224609375
ell 970, elapsed: 0.0003981590270996094
ell 969, elapsed: 0.0004661083221435547
ell 968, elapsed: 0.0003960132598876953
ell 967, elapsed: 0.00047397613525390625
ell 966, elapsed: 0.0003960132598876953
ell 965, elapsed: 0.0006871223449707031
ell 964, elapsed: 0.0004930496215820312
ell 963, elapsed: 0.0004870891571044922
ell 962, elapsed: 0.00039505958557128906
ell 961, elapsed: 0.00047206878662109375
ell 960, elapsed: 0.00039696693420410156
ell 959, elapsed: 0.00046896934509277344
ell 958, elapsed: 0.00039386749267578125
ell 957, elapsed: 0.00047016143798828125
ell 956, elapsed: 0.0005769729614257812
ell 955, elapsed: 0.0006449222564697266
ell 954, elapsed: 0.0005259513854980469
ell 953, elapsed: 0.0006039142608642578
ell 952, elapsed: 0.0003979206085205078
ell 951, elapsed: 0.0006439685821533203
ell 950, elapsed: 0.0005462169647216797
ell 949, elapsed: 0.0006771087646484375
ell 948, elapsed: 0.0005381107330322266
ell 947, elapsed: 0.0004818439483642578
ell 946, elapsed: 0.0003910064697265625
ell 945, elapsed: 0.0006799697875976562
ell 944, elapsed: 0.00042319297790527344
ell 943, elapsed: 0.0005807876586914062
ell 942, elapsed: 0.0003972053527832031
ell 941, elapsed: 0.00048279762268066406
ell 940, elapsed: 0.0003948211669921875
ell 939, elapsed: 0.0004630088806152344
ell 938, elapsed: 0.000392913818359375
ell 937, elapsed: 0.0004711151123046875
ell 936, elapsed: 0.00039196014404296875
ell 935, elapsed: 0.00046896934509277344
ell 934, elapsed: 0.0004889965057373047
ell 933, elapsed: 0.00047898292541503906
ell 932, elapsed: 0.0003941059112548828
ell 931, elapsed: 0.00047397613525390625
ell 930, elapsed: 0.00039505958557128906
ell 929, elapsed: 0.0004639625549316406
ell 928, elapsed: 0.0003948211669921875
ell 927, elapsed: 0.0004699230194091797
ell 926, elapsed: 0.0004949569702148438
ell 925, elapsed: 0.00047898292541503906
ell 924, elapsed: 0.00039505958557128906
ell 923, elapsed: 0.00046896934509277344
ell 922, elapsed: 0.0003948211669921875
ell 921, elapsed: 0.0004649162292480469
ell 920, elapsed: 0.00039696693420410156
ell 919, elapsed: 0.0004680156707763672
ell 918, elapsed: 0.0003960132598876953
ell 917, elapsed: 0.0004901885986328125
ell 916, elapsed: 0.00030994415283203125
ell 915, elapsed: 0.00037384033203125
ell 914, elapsed: 0.00030493736267089844
ell 913, elapsed: 0.00037288665771484375
ell 912, elapsed: 0.00030612945556640625
ell 911, elapsed: 0.0003681182861328125
ell 910, elapsed: 0.00030493736267089844
ell 909, elapsed: 0.000370025634765625
ell 908, elapsed: 0.0003020763397216797
ell 907, elapsed: 0.00037217140197753906
ell 906, elapsed: 0.0002961158752441406
ell 905, elapsed: 0.00035691261291503906
ell 904, elapsed: 0.0002930164337158203
ell 903, elapsed: 0.00035309791564941406
ell 902, elapsed: 0.00029587745666503906
ell 901, elapsed: 0.00034999847412109375
ell 900, elapsed: 0.00029587745666503906
ell 899, elapsed: 0.00035691261291503906
ell 898, elapsed: 0.0002911090850830078
ell 897, elapsed: 0.0003521442413330078
ell 896, elapsed: 0.0003440380096435547
ell 895, elapsed: 0.00047898292541503906
ell 894, elapsed: 0.00039196014404296875
ell 893, elapsed: 0.0006699562072753906
ell 892, elapsed: 0.0004649162292480469
ell 891, elapsed: 0.0004680156707763672
ell 890, elapsed: 0.00039505958557128906
ell 889, elapsed: 0.0006699562072753906
ell 888, elapsed: 0.0005848407745361328
ell 887, elapsed: 0.0007150173187255859
ell 886, elapsed: 0.0004718303680419922
ell 885, elapsed: 0.0006780624389648438
ell 884, elapsed: 0.00045609474182128906
ell 883, elapsed: 0.0004949569702148438
ell 882, elapsed: 0.0004229545593261719
ell 881, elapsed: 0.00048613548278808594
ell 880, elapsed: 0.000408172607421875
ell 879, elapsed: 0.0004940032958984375
ell 878, elapsed: 0.00041413307189941406
ell 877, elapsed: 0.0004971027374267578
ell 876, elapsed: 0.0004150867462158203
ell 875, elapsed: 0.0004971027374267578
ell 874, elapsed: 0.0004200935363769531
ell 873, elapsed: 0.000537872314453125
ell 872, elapsed: 0.00039696693420410156
ell 871, elapsed: 0.0004711151123046875
ell 870, elapsed: 0.00039505958557128906
ell 869, elapsed: 0.00047087669372558594
ell 868, elapsed: 0.00039505958557128906
ell 867, elapsed: 0.00047397613525390625
ell 866, elapsed: 0.00039505958557128906
ell 865, elapsed: 0.0005841255187988281
ell 864, elapsed: 0.00047397613525390625
ell 863, elapsed: 0.0007359981536865234
ell 862, elapsed: 0.0006229877471923828
ell 861, elapsed: 0.000659942626953125
ell 860, elapsed: 0.0004069805145263672
ell 859, elapsed: 0.00046896934509277344
ell 858, elapsed: 0.0004889965057373047
ell 857, elapsed: 0.0004820823669433594
ell 856, elapsed: 0.0003960132598876953
ell 855, elapsed: 0.0004730224609375
ell 854, elapsed: 0.0003960132598876953
ell 853, elapsed: 0.00047206878662109375
ell 852, elapsed: 0.00039505958557128906
ell 851, elapsed: 0.00047707557678222656
ell 850, elapsed: 0.00049591064453125
ell 849, elapsed: 0.00047707557678222656
ell 848, elapsed: 0.00039505958557128906
ell 847, elapsed: 0.00047206878662109375
ell 846, elapsed: 0.00039386749267578125
ell 845, elapsed: 0.0004680156707763672
ell 844, elapsed: 0.000392913818359375
ell 843, elapsed: 0.00046706199645996094
ell 842, elapsed: 0.0003941059112548828
ell 841, elapsed: 0.0005660057067871094
ell 840, elapsed: 0.0003979206085205078
ell 839, elapsed: 0.00046706199645996094
ell 838, elapsed: 0.0003960132598876953
ell 837, elapsed: 0.00046896934509277344
ell 836, elapsed: 0.0003921985626220703
ell 835, elapsed: 0.000476837158203125
ell 834, elapsed: 0.0003948211669921875
ell 833, elapsed: 0.000576019287109375
ell 832, elapsed: 0.0004000663757324219
ell 831, elapsed: 0.00047397613525390625
ell 830, elapsed: 0.0003960132598876953
ell 829, elapsed: 0.0004711151123046875
ell 828, elapsed: 0.00039386749267578125
ell 827, elapsed: 0.0004661083221435547
ell 826, elapsed: 0.0005600452423095703
ell 825, elapsed: 0.0006399154663085938
ell 824, elapsed: 0.00046706199645996094
ell 823, elapsed: 0.0007619857788085938
ell 822, elapsed: 0.0006229877471923828
ell 821, elapsed: 0.0007658004760742188
ell 820, elapsed: 0.0005137920379638672
ell 819, elapsed: 0.0005879402160644531
ell 818, elapsed: 0.00039505958557128906
ell 817, elapsed: 0.0004699230194091797
ell 816, elapsed: 0.00039505958557128906
ell 815, elapsed: 0.00047016143798828125
ell 814, elapsed: 0.00039696693420410156
ell 813, elapsed: 0.0004711151123046875
ell 812, elapsed: 0.0003991127014160156
ell 811, elapsed: 0.00055694580078125
ell 810, elapsed: 0.0004000663757324219
ell 809, elapsed: 0.0004799365997314453
ell 808, elapsed: 0.0003979206085205078
ell 807, elapsed: 0.000476837158203125
ell 806, elapsed: 0.00039696693420410156
ell 805, elapsed: 0.0004730224609375
ell 804, elapsed: 0.0003991127014160156
ell 803, elapsed: 0.00047588348388671875
ell 802, elapsed: 0.0005021095275878906
ell 801, elapsed: 0.0004749298095703125
ell 800, elapsed: 0.0003960132598876953
ell 799, elapsed: 0.00047087669372558594
ell 798, elapsed: 0.0005660057067871094
ell 797, elapsed: 0.0006709098815917969
ell 796, elapsed: 0.0004019737243652344
ell 795, elapsed: 0.0005629062652587891
ell 794, elapsed: 0.000392913818359375
ell 793, elapsed: 0.00047588348388671875
ell 792, elapsed: 0.00038909912109375
ell 791, elapsed: 0.0004680156707763672
ell 790, elapsed: 0.0004000663757324219
ell 789, elapsed: 0.0004858970642089844
ell 788, elapsed: 0.0003979206085205078
ell 787, elapsed: 0.0004780292510986328
ell 786, elapsed: 0.0004730224609375
ell 785, elapsed: 0.0006649494171142578
ell 784, elapsed: 0.0004489421844482422
ell 783, elapsed: 0.0004589557647705078
ell 782, elapsed: 0.00037288665771484375
ell 781, elapsed: 0.0005619525909423828
ell 780, elapsed: 0.00048804283142089844
ell 779, elapsed: 0.0007050037384033203
ell 778, elapsed: 0.0004799365997314453
ell 777, elapsed: 0.0006999969482421875
ell 776, elapsed: 0.0005199909210205078
ell 775, elapsed: 0.0006380081176757812
ell 774, elapsed: 0.0005481243133544922
ell 773, elapsed: 0.0007112026214599609
ell 772, elapsed: 0.0003979206085205078
ell 771, elapsed: 0.0004801750183105469
ell 770, elapsed: 0.00039196014404296875
ell 769, elapsed: 0.00047397613525390625
ell 768, elapsed: 0.00039696693420410156
ell 767, elapsed: 0.0004699230194091797
ell 766, elapsed: 0.0003650188446044922
ell 765, elapsed: 0.0004489421844482422
ell 764, elapsed: 0.0006089210510253906
ell 763, elapsed: 0.000701904296875
ell 762, elapsed: 0.0004138946533203125
ell 761, elapsed: 0.0006010532379150391
ell 760, elapsed: 0.0005018711090087891
ell 759, elapsed: 0.0006189346313476562
ell 758, elapsed: 0.0005369186401367188
ell 757, elapsed: 0.0006430149078369141
ell 756, elapsed: 0.0005347728729248047
ell 755, elapsed: 0.0004780292510986328
ell 754, elapsed: 0.0004010200500488281
ell 753, elapsed: 0.00047016143798828125
ell 752, elapsed: 0.00039505958557128906
ell 751, elapsed: 0.0004799365997314453
ell 750, elapsed: 0.0004639625549316406
ell 749, elapsed: 0.0004839897155761719
ell 748, elapsed: 0.0003979206085205078
ell 747, elapsed: 0.0006427764892578125
ell 746, elapsed: 0.00045609474182128906
ell 745, elapsed: 0.0004780292510986328
ell 744, elapsed: 0.0005109310150146484
ell 743, elapsed: 0.0007588863372802734
ell 742, elapsed: 0.0004360675811767578
ell 741, elapsed: 0.00047087669372558594
ell 740, elapsed: 0.0003960132598876953
ell 739, elapsed: 0.0004699230194091797
ell 738, elapsed: 0.00039505958557128906
ell 737, elapsed: 0.0004749298095703125
ell 736, elapsed: 0.00039696693420410156
ell 735, elapsed: 0.0004930496215820312
ell 734, elapsed: 0.0005669593811035156
ell 733, elapsed: 0.0006060600280761719
ell 732, elapsed: 0.0003972053527832031
ell 731, elapsed: 0.00047397613525390625
ell 730, elapsed: 0.0005590915679931641
ell 729, elapsed: 0.00074005126953125
ell 728, elapsed: 0.0004520416259765625
ell 727, elapsed: 0.0004792213439941406
ell 726, elapsed: 0.00038814544677734375
ell 725, elapsed: 0.0006849765777587891
ell 724, elapsed: 0.00043201446533203125
ell 723, elapsed: 0.0004699230194091797
ell 722, elapsed: 0.0003960132598876953
ell 721, elapsed: 0.00046706199645996094
ell 720, elapsed: 0.0004169940948486328
ell 719, elapsed: 0.00047206878662109375
ell 718, elapsed: 0.00039505958557128906
ell 717, elapsed: 0.0004661083221435547
ell 716, elapsed: 0.0004999637603759766
ell 715, elapsed: 0.0006670951843261719
ell 714, elapsed: 0.0003960132598876953
ell 713, elapsed: 0.0004820823669433594
ell 712, elapsed: 0.0004978179931640625
ell 711, elapsed: 0.0004870891571044922
ell 710, elapsed: 0.0005788803100585938
ell 709, elapsed: 0.0005509853363037109
ell 708, elapsed: 0.00039696693420410156
ell 707, elapsed: 0.0004839897155761719
ell 706, elapsed: 0.0003991127014160156
ell 705, elapsed: 0.0004780292510986328
ell 704, elapsed: 0.0004172325134277344
ell 703, elapsed: 0.00047588348388671875
ell 702, elapsed: 0.0003960132598876953
ell 701, elapsed: 0.00047588348388671875
ell 700, elapsed: 0.00039386749267578125
ell 699, elapsed: 0.0004730224609375
ell 698, elapsed: 0.0003979206085205078
ell 697, elapsed: 0.0004801750183105469
ell 696, elapsed: 0.0005049705505371094
ell 695, elapsed: 0.0004930496215820312
ell 694, elapsed: 0.0003972053527832031
ell 693, elapsed: 0.0006330013275146484
ell 692, elapsed: 0.0004818439483642578
ell 691, elapsed: 0.00047397613525390625
ell 690, elapsed: 0.00039696693420410156
ell 689, elapsed: 0.0006899833679199219
ell 688, elapsed: 0.0004260540008544922
ell 687, elapsed: 0.0004811286926269531
ell 686, elapsed: 0.0003960132598876953
ell 685, elapsed: 0.0004730224609375
ell 684, elapsed: 0.0004010200500488281
ell 683, elapsed: 0.00047898292541503906
ell 682, elapsed: 0.0004000663757324219
ell 681, elapsed: 0.0004761219024658203
ell 680, elapsed: 0.0007319450378417969
ell 679, elapsed: 0.0007648468017578125
ell 678, elapsed: 0.00040912628173828125
ell 677, elapsed: 0.0004849433898925781
ell 676, elapsed: 0.00039196014404296875
ell 675, elapsed: 0.00048804283142089844
ell 674, elapsed: 0.0003948211669921875
ell 673, elapsed: 0.0010068416595458984
ell 672, elapsed: 0.00040411949157714844
ell 671, elapsed: 0.00047898292541503906
ell 670, elapsed: 0.0005650520324707031
ell 669, elapsed: 0.0005757808685302734
ell 668, elapsed: 0.0003998279571533203
ell 667, elapsed: 0.0006279945373535156
ell 666, elapsed: 0.0004119873046875
ell 665, elapsed: 0.0004951953887939453
ell 664, elapsed: 0.0003981590270996094
ell 663, elapsed: 0.00047206878662109375
ell 662, elapsed: 0.0004749298095703125
ell 661, elapsed: 0.0006508827209472656
ell 660, elapsed: 0.0003921985626220703
ell 659, elapsed: 0.0008151531219482422
ell 658, elapsed: 0.0004010200500488281
ell 657, elapsed: 0.0004818439483642578
ell 656, elapsed: 0.0003972053527832031
ell 655, elapsed: 0.00046896934509277344
ell 654, elapsed: 0.0003590583801269531
ell 653, elapsed: 0.0004360675811767578
ell 652, elapsed: 0.0003631114959716797
ell 651, elapsed: 0.0007510185241699219
ell 650, elapsed: 0.0003600120544433594
ell 649, elapsed: 0.0004410743713378906
ell 648, elapsed: 0.00035500526428222656
ell 647, elapsed: 0.0006418228149414062
ell 646, elapsed: 0.0005738735198974609
ell 645, elapsed: 0.0005409717559814453
ell 644, elapsed: 0.000698089599609375
ell 643, elapsed: 0.0004911422729492188
ell 642, elapsed: 0.0003981590270996094
ell 641, elapsed: 0.0004630088806152344
ell 640, elapsed: 0.00035691261291503906
ell 639, elapsed: 0.0004458427429199219
ell 638, elapsed: 0.0004918575286865234
ell 637, elapsed: 0.0006260871887207031
ell 636, elapsed: 0.0005731582641601562
ell 635, elapsed: 0.0005548000335693359
ell 634, elapsed: 0.0003948211669921875
ell 633, elapsed: 0.0004699230194091797
ell 632, elapsed: 0.00039696693420410156
ell 631, elapsed: 0.0006170272827148438
ell 630, elapsed: 0.0009989738464355469
ell 629, elapsed: 0.0005021095275878906
ell 628, elapsed: 0.0003941059112548828
ell 627, elapsed: 0.000476837158203125
ell 626, elapsed: 0.0003609657287597656
ell 625, elapsed: 0.0004410743713378906
ell 624, elapsed: 0.0003600120544433594
ell 623, elapsed: 0.0006170272827148438
ell 622, elapsed: 0.0007460117340087891
ell 621, elapsed: 0.0005919933319091797
ell 620, elapsed: 0.0003921985626220703
ell 619, elapsed: 0.0004918575286865234
ell 618, elapsed: 0.00038909912109375
ell 617, elapsed: 0.0004761219024658203
ell 616, elapsed: 0.00038504600524902344
ell 615, elapsed: 0.0006759166717529297
ell 614, elapsed: 0.0006110668182373047
ell 613, elapsed: 0.0007469654083251953
ell 612, elapsed: 0.0005168914794921875
ell 611, elapsed: 0.0004858970642089844
ell 610, elapsed: 0.0005230903625488281
ell 609, elapsed: 0.0005559921264648438
ell 608, elapsed: 0.00039005279541015625
ell 607, elapsed: 0.0004830360412597656
ell 606, elapsed: 0.0005190372467041016
ell 605, elapsed: 0.0007410049438476562
ell 604, elapsed: 0.0004889965057373047
ell 603, elapsed: 0.0006020069122314453
ell 602, elapsed: 0.0006210803985595703
ell 601, elapsed: 0.0006220340728759766
ell 600, elapsed: 0.0006060600280761719
ell 599, elapsed: 0.0007421970367431641
ell 598, elapsed: 0.0006139278411865234
ell 597, elapsed: 0.0007491111755371094
ell 596, elapsed: 0.0005929470062255859
ell 595, elapsed: 0.0004730224609375
ell 594, elapsed: 0.00047397613525390625
ell 593, elapsed: 0.0007388591766357422
ell 592, elapsed: 0.0006101131439208984
ell 591, elapsed: 0.0005710124969482422
ell 590, elapsed: 0.0006761550903320312
ell 589, elapsed: 0.0006160736083984375
ell 588, elapsed: 0.000392913818359375
ell 587, elapsed: 0.00048613548278808594
ell 586, elapsed: 0.000492095947265625
ell 585, elapsed: 0.000637054443359375
ell 584, elapsed: 0.0003800392150878906
ell 583, elapsed: 0.0007939338684082031
ell 582, elapsed: 0.0006048679351806641
ell 581, elapsed: 0.0007278919219970703
ell 580, elapsed: 0.0004940032958984375
ell 579, elapsed: 0.0004699230194091797
ell 578, elapsed: 0.00038313865661621094
ell 577, elapsed: 0.000675201416015625
ell 576, elapsed: 0.0006749629974365234
ell 575, elapsed: 0.0005819797515869141
ell 574, elapsed: 0.00039005279541015625
ell 573, elapsed: 0.0006871223449707031
ell 572, elapsed: 0.0004169940948486328
ell 571, elapsed: 0.00047397613525390625
ell 570, elapsed: 0.0005371570587158203
ell 569, elapsed: 0.0008878707885742188
ell 568, elapsed: 0.0004210472106933594
ell 567, elapsed: 0.00047898292541503906
ell 566, elapsed: 0.000476837158203125
ell 565, elapsed: 0.0006439685821533203
ell 564, elapsed: 0.0005221366882324219
ell 563, elapsed: 0.0006780624389648438
ell 562, elapsed: 0.0005002021789550781
ell 561, elapsed: 0.0007359981536865234
ell 560, elapsed: 0.0006170272827148438
ell 559, elapsed: 0.0005650520324707031
ell 558, elapsed: 0.0005118846893310547
ell 557, elapsed: 0.0007700920104980469
ell 556, elapsed: 0.0005769729614257812
ell 555, elapsed: 0.0007319450378417969
ell 554, elapsed: 0.0004749298095703125
ell 553, elapsed: 0.0004811286926269531
ell 552, elapsed: 0.00038814544677734375
ell 551, elapsed: 0.0004799365997314453
ell 550, elapsed: 0.0004730224609375
ell 549, elapsed: 0.0006160736083984375
ell 548, elapsed: 0.0006089210510253906
ell 547, elapsed: 0.000659942626953125
ell 546, elapsed: 0.0003669261932373047
ell 545, elapsed: 0.0006358623504638672
ell 544, elapsed: 0.00044798851013183594
ell 543, elapsed: 0.0006089210510253906
ell 542, elapsed: 0.000392913818359375
ell 541, elapsed: 0.0006940364837646484
ell 540, elapsed: 0.00040984153747558594
ell 539, elapsed: 0.00048089027404785156
ell 538, elapsed: 0.0005040168762207031
ell 537, elapsed: 0.0007281303405761719
ell 536, elapsed: 0.0007221698760986328
ell 535, elapsed: 0.0007340908050537109
ell 534, elapsed: 0.0004830360412597656
ell 533, elapsed: 0.0006730556488037109
ell 532, elapsed: 0.00047087669372558594
ell 531, elapsed: 0.000476837158203125
ell 530, elapsed: 0.0006768703460693359
ell 529, elapsed: 0.0007429122924804688
ell 528, elapsed: 0.0005249977111816406
ell 527, elapsed: 0.0006871223449707031
ell 526, elapsed: 0.0006101131439208984
ell 525, elapsed: 0.0005660057067871094
ell 524, elapsed: 0.000476837158203125
ell 523, elapsed: 0.0006480216979980469
ell 522, elapsed: 0.00047397613525390625
ell 521, elapsed: 0.0006000995635986328
ell 520, elapsed: 0.0005280971527099609
ell 519, elapsed: 0.0006120204925537109
ell 518, elapsed: 0.0005090236663818359
ell 517, elapsed: 0.0005679130554199219
ell 516, elapsed: 0.0005371570587158203
ell 515, elapsed: 0.0006110668182373047
ell 514, elapsed: 0.0005209445953369141
ell 513, elapsed: 0.0006239414215087891
ell 512, elapsed: 0.0005609989166259766
ell 511, elapsed: 0.0008509159088134766
ell 510, elapsed: 0.0006120204925537109
ell 509, elapsed: 0.0007450580596923828
ell 508, elapsed: 0.0006089210510253906
ell 507, elapsed: 0.0007140636444091797
ell 506, elapsed: 0.000518798828125
ell 505, elapsed: 0.0008091926574707031
ell 504, elapsed: 0.0006110668182373047
ell 503, elapsed: 0.0006418228149414062
ell 502, elapsed: 0.00040793418884277344
ell 501, elapsed: 0.00047707557678222656
ell 500, elapsed: 0.0005071163177490234
ell 499, elapsed: 0.0008370876312255859
ell 498, elapsed: 0.00043010711669921875
ell 497, elapsed: 0.0006740093231201172
ell 496, elapsed: 0.000514984130859375
ell 495, elapsed: 0.0006089210510253906
ell 494, elapsed: 0.0006129741668701172
ell 493, elapsed: 0.0007560253143310547
ell 492, elapsed: 0.00039005279541015625
ell 491, elapsed: 0.00047397613525390625
ell 490, elapsed: 0.0005559921264648438
ell 489, elapsed: 0.0005679130554199219
ell 488, elapsed: 0.0005090236663818359
ell 487, elapsed: 0.0007309913635253906
ell 486, elapsed: 0.0007221698760986328
ell 485, elapsed: 0.0007219314575195312
ell 484, elapsed: 0.0006089210510253906
ell 483, elapsed: 0.000659942626953125
ell 482, elapsed: 0.0005209445953369141
ell 481, elapsed: 0.0007171630859375
ell 480, elapsed: 0.0006079673767089844
ell 479, elapsed: 0.0006308555603027344
ell 478, elapsed: 0.0006010532379150391
ell 477, elapsed: 0.0007190704345703125
ell 476, elapsed: 0.0006129741668701172
ell 475, elapsed: 0.0008521080017089844
ell 474, elapsed: 0.0005259513854980469
ell 473, elapsed: 0.0007359981536865234
ell 472, elapsed: 0.0005230903625488281
ell 471, elapsed: 0.0007240772247314453
ell 470, elapsed: 0.0005199909210205078
ell 469, elapsed: 0.0008058547973632812
ell 468, elapsed: 0.0005688667297363281
ell 467, elapsed: 0.0007348060607910156
ell 466, elapsed: 0.00042819976806640625
ell 465, elapsed: 0.0006837844848632812
ell 464, elapsed: 0.0004169940948486328
ell 463, elapsed: 0.0004611015319824219
ell 462, elapsed: 0.0006268024444580078
ell 461, elapsed: 0.0006430149078369141
ell 460, elapsed: 0.0003859996795654297
ell 459, elapsed: 0.0004649162292480469
ell 458, elapsed: 0.0003771781921386719
ell 457, elapsed: 0.0006070137023925781
ell 456, elapsed: 0.0004968643188476562
ell 455, elapsed: 0.0007832050323486328
ell 454, elapsed: 0.0005121231079101562
ell 453, elapsed: 0.0004520416259765625
ell 452, elapsed: 0.0005240440368652344
ell 451, elapsed: 0.0007300376892089844
ell 450, elapsed: 0.0005970001220703125
ell 449, elapsed: 0.0008180141448974609
ell 448, elapsed: 0.0005888938903808594
ell 447, elapsed: 0.0006959438323974609
ell 446, elapsed: 0.0005090236663818359
ell 445, elapsed: 0.00047516822814941406
ell 444, elapsed: 0.0004749298095703125
ell 443, elapsed: 0.0008330345153808594
ell 442, elapsed: 0.0003590583801269531
ell 441, elapsed: 0.00036787986755371094
ell 440, elapsed: 0.00029206275939941406
ell 439, elapsed: 0.00034689903259277344
ell 438, elapsed: 0.0002899169921875
ell 437, elapsed: 0.0003528594970703125
ell 436, elapsed: 0.0002899169921875
ell 435, elapsed: 0.00035309791564941406
ell 434, elapsed: 0.0002880096435546875
ell 433, elapsed: 0.00034999847412109375
ell 432, elapsed: 0.0005559921264648438
ell 431, elapsed: 0.0005838871002197266
ell 430, elapsed: 0.0005409717559814453
ell 429, elapsed: 0.0006968975067138672
ell 428, elapsed: 0.00047779083251953125
ell 427, elapsed: 0.00043892860412597656
ell 426, elapsed: 0.0005359649658203125
ell 425, elapsed: 0.0007288455963134766
ell 424, elapsed: 0.0004899501800537109
ell 423, elapsed: 0.0006511211395263672
ell 422, elapsed: 0.0005891323089599609
ell 421, elapsed: 0.0006952285766601562
ell 420, elapsed: 0.0004420280456542969
ell 419, elapsed: 0.0006728172302246094
ell 418, elapsed: 0.0006191730499267578
ell 417, elapsed: 0.000598907470703125
ell 416, elapsed: 0.0005071163177490234
ell 415, elapsed: 0.0007240772247314453
ell 414, elapsed: 0.0006079673767089844
ell 413, elapsed: 0.0007708072662353516
ell 412, elapsed: 0.0006198883056640625
ell 411, elapsed: 0.0006501674652099609
ell 410, elapsed: 0.0005028247833251953
ell 409, elapsed: 0.0007109642028808594
ell 408, elapsed: 0.00047206878662109375
ell 407, elapsed: 0.0006330013275146484
ell 406, elapsed: 0.0006070137023925781
ell 405, elapsed: 0.0007369518280029297
ell 404, elapsed: 0.0006039142608642578
ell 403, elapsed: 0.0006108283996582031
ell 402, elapsed: 0.0005259513854980469
ell 401, elapsed: 0.0007569789886474609
ell 400, elapsed: 0.0004978179931640625
ell 399, elapsed: 0.0004601478576660156
ell 398, elapsed: 0.0004489421844482422
ell 397, elapsed: 0.0007081031799316406
ell 396, elapsed: 0.0006079673767089844
ell 395, elapsed: 0.0007607936859130859
ell 394, elapsed: 0.0005629062652587891
ell 393, elapsed: 0.0007419586181640625
ell 392, elapsed: 0.0005331039428710938
ell 391, elapsed: 0.0006809234619140625
ell 390, elapsed: 0.0005071163177490234
ell 389, elapsed: 0.00048804283142089844
ell 388, elapsed: 0.0005128383636474609
ell 387, elapsed: 0.0007390975952148438
ell 386, elapsed: 0.0005428791046142578
ell 385, elapsed: 0.0006079673767089844
ell 384, elapsed: 0.0003838539123535156
ell 383, elapsed: 0.0004711151123046875
ell 382, elapsed: 0.0004119873046875
ell 381, elapsed: 0.0006690025329589844
ell 380, elapsed: 0.0004429817199707031
ell 379, elapsed: 0.0004749298095703125
ell 378, elapsed: 0.0003859996795654297
ell 377, elapsed: 0.0006029605865478516
ell 376, elapsed: 0.0006048679351806641
ell 375, elapsed: 0.0005710124969482422
ell 374, elapsed: 0.0005779266357421875
ell 373, elapsed: 0.0007588863372802734
ell 372, elapsed: 0.0005221366882324219
ell 371, elapsed: 0.00067901611328125
ell 370, elapsed: 0.0006070137023925781
ell 369, elapsed: 0.0007860660552978516
ell 368, elapsed: 0.00045680999755859375
ell 367, elapsed: 0.0004980564117431641
ell 366, elapsed: 0.0005698204040527344
ell 365, elapsed: 0.0006210803985595703
ell 364, elapsed: 0.0004911422729492188
ell 363, elapsed: 0.0006351470947265625
ell 362, elapsed: 0.0005359649658203125
ell 361, elapsed: 0.0006120204925537109
ell 360, elapsed: 0.0004858970642089844
ell 359, elapsed: 0.0006279945373535156
ell 358, elapsed: 0.00039696693420410156
ell 357, elapsed: 0.0006968975067138672
ell 356, elapsed: 0.0004639625549316406
ell 355, elapsed: 0.0004911422729492188
ell 354, elapsed: 0.00039196014404296875
ell 353, elapsed: 0.0006480216979980469
ell 352, elapsed: 0.0004467964172363281
ell 351, elapsed: 0.00047516822814941406
ell 350, elapsed: 0.0003859996795654297
ell 349, elapsed: 0.0004799365997314453
ell 348, elapsed: 0.0005350112915039062
ell 347, elapsed: 0.0007560253143310547
ell 346, elapsed: 0.0005290508270263672
ell 345, elapsed: 0.0007410049438476562
ell 344, elapsed: 0.0004820823669433594
ell 343, elapsed: 0.0004811286926269531
ell 342, elapsed: 0.0005221366882324219
ell 341, elapsed: 0.0006558895111083984
ell 340, elapsed: 0.0005390644073486328
ell 339, elapsed: 0.0005548000335693359
ell 338, elapsed: 0.00038909912109375
ell 337, elapsed: 0.0005888938903808594
ell 336, elapsed: 0.0006089210510253906
ell 335, elapsed: 0.0006570816040039062
ell 334, elapsed: 0.0004630088806152344
ell 333, elapsed: 0.0007429122924804688
ell 332, elapsed: 0.00041794776916503906
ell 331, elapsed: 0.0006010532379150391
ell 330, elapsed: 0.0004899501800537109
ell 329, elapsed: 0.0004780292510986328
ell 328, elapsed: 0.00042700767517089844
ell 327, elapsed: 0.0006480216979980469
ell 326, elapsed: 0.0004730224609375
ell 325, elapsed: 0.0005979537963867188
ell 324, elapsed: 0.00048089027404785156
ell 323, elapsed: 0.0006339550018310547
ell 322, elapsed: 0.0006330013275146484
ell 321, elapsed: 0.0006480216979980469
ell 320, elapsed: 0.0004930496215820312
ell 319, elapsed: 0.0007309913635253906
ell 318, elapsed: 0.0005199909210205078
ell 317, elapsed: 0.0006451606750488281
ell 316, elapsed: 0.00044417381286621094
ell 315, elapsed: 0.0006518363952636719
ell 314, elapsed: 0.0006120204925537109
ell 313, elapsed: 0.0006060600280761719
ell 312, elapsed: 0.0003788471221923828
ell 311, elapsed: 0.0006520748138427734
ell 310, elapsed: 0.0004448890686035156
ell 309, elapsed: 0.00047397613525390625
ell 308, elapsed: 0.0005481243133544922
ell 307, elapsed: 0.0007300376892089844
ell 306, elapsed: 0.0006058216094970703
ell 305, elapsed: 0.0007309913635253906
ell 304, elapsed: 0.0005939006805419922
ell 303, elapsed: 0.0006189346313476562
ell 302, elapsed: 0.00047898292541503906
ell 301, elapsed: 0.0007319450378417969
ell 300, elapsed: 0.00048804283142089844
ell 299, elapsed: 0.00047588348388671875
ell 298, elapsed: 0.0003871917724609375
ell 297, elapsed: 0.00047898292541503906
ell 296, elapsed: 0.0003979206085205078
ell 295, elapsed: 0.00049591064453125
ell 294, elapsed: 0.00037384033203125
ell 293, elapsed: 0.0005910396575927734
ell 292, elapsed: 0.0006070137023925781
ell 291, elapsed: 0.0007338523864746094
ell 290, elapsed: 0.0004780292510986328
ell 289, elapsed: 0.0004699230194091797
ell 288, elapsed: 0.0004940032958984375
ell 287, elapsed: 0.0006539821624755859
ell 286, elapsed: 0.00038695335388183594
ell 285, elapsed: 0.00047898292541503906
ell 284, elapsed: 0.00038695335388183594
ell 283, elapsed: 0.0004730224609375
ell 282, elapsed: 0.0003848075866699219
ell 281, elapsed: 0.0006210803985595703
ell 280, elapsed: 0.0008461475372314453
ell 279, elapsed: 0.0006189346313476562
ell 278, elapsed: 0.0006399154663085938
ell 277, elapsed: 0.0007729530334472656
ell 276, elapsed: 0.0005800724029541016
ell 275, elapsed: 0.0007410049438476562
ell 274, elapsed: 0.0004329681396484375
ell 273, elapsed: 0.0006449222564697266
ell 272, elapsed: 0.0004858970642089844
ell 271, elapsed: 0.0006210803985595703
ell 270, elapsed: 0.00048279762268066406
ell 269, elapsed: 0.0009069442749023438
ell 268, elapsed: 0.0005948543548583984
ell 267, elapsed: 0.0005660057067871094
ell 266, elapsed: 0.0004811286926269531
ell 265, elapsed: 0.0007369518280029297
ell 264, elapsed: 0.0006170272827148438
ell 263, elapsed: 0.0007469654083251953
ell 262, elapsed: 0.0006270408630371094
ell 261, elapsed: 0.0006158351898193359
ell 260, elapsed: 0.0005679130554199219
ell 259, elapsed: 0.0006430149078369141
ell 258, elapsed: 0.000392913818359375
ell 257, elapsed: 0.0006539821624755859
ell 256, elapsed: 0.0004508495330810547
ell 255, elapsed: 0.0006389617919921875
ell 254, elapsed: 0.000453948974609375
ell 253, elapsed: 0.0004911422729492188
ell 252, elapsed: 0.00061798095703125
ell 251, elapsed: 0.000576019287109375
ell 250, elapsed: 0.0005090236663818359
ell 249, elapsed: 0.0007421970367431641
ell 248, elapsed: 0.0004878044128417969
ell 247, elapsed: 0.0006577968597412109
ell 246, elapsed: 0.0006358623504638672
ell 245, elapsed: 0.0006549358367919922
ell 244, elapsed: 0.0005609989166259766
ell 243, elapsed: 0.0007278919219970703
ell 242, elapsed: 0.0006070137023925781
ell 241, elapsed: 0.0007331371307373047
ell 240, elapsed: 0.0006208419799804688
ell 239, elapsed: 0.0005631446838378906
ell 238, elapsed: 0.0005578994750976562
ell 237, elapsed: 0.0005729198455810547
ell 236, elapsed: 0.0004930496215820312
ell 235, elapsed: 0.0007348060607910156
ell 234, elapsed: 0.0006871223449707031
ell 233, elapsed: 0.0006639957427978516
ell 232, elapsed: 0.00049591064453125
ell 231, elapsed: 0.0004761219024658203
ell 230, elapsed: 0.0005619525909423828
ell 229, elapsed: 0.0005638599395751953
ell 228, elapsed: 0.0003840923309326172
ell 227, elapsed: 0.0006158351898193359
ell 226, elapsed: 0.0006079673767089844
ell 225, elapsed: 0.0006380081176757812
ell 224, elapsed: 0.00045180320739746094
ell 223, elapsed: 0.0007250308990478516
ell 222, elapsed: 0.0005300045013427734
ell 221, elapsed: 0.0006089210510253906
ell 220, elapsed: 0.0006120204925537109
ell 219, elapsed: 0.0006470680236816406
ell 218, elapsed: 0.00038909912109375
ell 217, elapsed: 0.0006530284881591797
ell 216, elapsed: 0.0005259513854980469
ell 215, elapsed: 0.0004699230194091797
ell 214, elapsed: 0.00039315223693847656
ell 213, elapsed: 0.0004570484161376953
ell 212, elapsed: 0.0005099773406982422
ell 211, elapsed: 0.0006840229034423828
ell 210, elapsed: 0.0004870891571044922
ell 209, elapsed: 0.00044608116149902344
ell 208, elapsed: 0.0005128383636474609
ell 207, elapsed: 0.0007519721984863281
ell 206, elapsed: 0.0005099773406982422
ell 205, elapsed: 0.0006639957427978516
ell 204, elapsed: 0.0005869865417480469
ell 203, elapsed: 0.0006871223449707031
ell 202, elapsed: 0.0005600452423095703
ell 201, elapsed: 0.0007100105285644531
ell 200, elapsed: 0.000553131103515625
ell 199, elapsed: 0.0006489753723144531
ell 198, elapsed: 0.0004870891571044922
ell 197, elapsed: 0.0006868839263916016
ell 196, elapsed: 0.0005888938903808594
ell 195, elapsed: 0.0005879402160644531
ell 194, elapsed: 0.000537872314453125
ell 193, elapsed: 0.0006909370422363281
ell 192, elapsed: 0.0005741119384765625
ell 191, elapsed: 0.0007059574127197266
ell 190, elapsed: 0.0005848407745361328
ell 189, elapsed: 0.0007169246673583984
ell 188, elapsed: 0.0005750656127929688
ell 187, elapsed: 0.0007081031799316406
ell 186, elapsed: 0.0006070137023925781
ell 185, elapsed: 0.0006160736083984375
ell 184, elapsed: 0.0005490779876708984
ell 183, elapsed: 0.0007469654083251953
ell 182, elapsed: 0.0006060600280761719
ell 181, elapsed: 0.0007050037384033203
ell 180, elapsed: 0.0006010532379150391
ell 179, elapsed: 0.0007109642028808594
ell 178, elapsed: 0.0006029605865478516
ell 177, elapsed: 0.0007450580596923828
ell 176, elapsed: 0.0005891323089599609
ell 175, elapsed: 0.0007219314575195312
ell 174, elapsed: 0.0005009174346923828
ell 173, elapsed: 0.00045490264892578125
ell 172, elapsed: 0.0005400180816650391
ell 171, elapsed: 0.0007300376892089844
ell 170, elapsed: 0.0005970001220703125
ell 169, elapsed: 0.0007159709930419922
ell 168, elapsed: 0.0006041526794433594
ell 167, elapsed: 0.0007028579711914062
ell 166, elapsed: 0.0005970001220703125
ell 165, elapsed: 0.0007288455963134766
ell 164, elapsed: 0.0005619525909423828
ell 163, elapsed: 0.0007348060607910156
ell 162, elapsed: 0.00043892860412597656
ell 161, elapsed: 0.0005810260772705078
ell 160, elapsed: 0.0004799365997314453
ell 159, elapsed: 0.0006859302520751953
ell 158, elapsed: 0.0004830360412597656
ell 157, elapsed: 0.0006680488586425781
ell 156, elapsed: 0.0005960464477539062
ell 155, elapsed: 0.0005679130554199219
ell 154, elapsed: 0.0003829002380371094
ell 153, elapsed: 0.0004730224609375
ell 152, elapsed: 0.0003848075866699219
ell 151, elapsed: 0.0004839897155761719
ell 150, elapsed: 0.0005428791046142578
ell 149, elapsed: 0.0007269382476806641
ell 148, elapsed: 0.0004949569702148438
ell 147, elapsed: 0.0006570816040039062
ell 146, elapsed: 0.0005321502685546875
ell 145, elapsed: 0.0007038116455078125
ell 144, elapsed: 0.0005009174346923828
ell 143, elapsed: 0.00045990943908691406
ell 142, elapsed: 0.0003809928894042969
ell 141, elapsed: 0.0004639625549316406
ell 140, elapsed: 0.0003819465637207031
ell 139, elapsed: 0.0005750656127929688
ell 138, elapsed: 0.000514984130859375
ell 137, elapsed: 0.0005710124969482422
ell 136, elapsed: 0.0005109310150146484
ell 135, elapsed: 0.00045013427734375
ell 134, elapsed: 0.0004730224609375
ell 133, elapsed: 0.0006999969482421875
ell 132, elapsed: 0.0005900859832763672
ell 131, elapsed: 0.000637054443359375
ell 130, elapsed: 0.00036597251892089844
ell 129, elapsed: 0.0004680156707763672
ell 128, elapsed: 0.00038313865661621094
ell 127, elapsed: 0.0004591941833496094
ell 126, elapsed: 0.0003840923309326172
ell 125, elapsed: 0.00047588348388671875
ell 124, elapsed: 0.00038504600524902344
ell 123, elapsed: 0.00047206878662109375
ell 122, elapsed: 0.00040721893310546875
ell 121, elapsed: 0.00048089027404785156
ell 120, elapsed: 0.00038886070251464844
ell 119, elapsed: 0.0005860328674316406
ell 118, elapsed: 0.0004961490631103516
ell 117, elapsed: 0.0004718303680419922
ell 116, elapsed: 0.00038504600524902344
ell 115, elapsed: 0.00047588348388671875
ell 114, elapsed: 0.0004029273986816406
ell 113, elapsed: 0.0005888938903808594
ell 112, elapsed: 0.0005230903625488281
ell 111, elapsed: 0.0005688667297363281
ell 110, elapsed: 0.00048804283142089844
ell 109, elapsed: 0.0006299018859863281
ell 108, elapsed: 0.0004680156707763672
ell 107, elapsed: 0.0006630420684814453
ell 106, elapsed: 0.0005810260772705078
ell 105, elapsed: 0.0005779266357421875
ell 104, elapsed: 0.00044798851013183594
ell 103, elapsed: 0.0006859302520751953
ell 102, elapsed: 0.0005970001220703125
ell 101, elapsed: 0.0007529258728027344
ell 100, elapsed: 0.0004839897155761719
ell 99, elapsed: 0.0006010532379150391
ell 98, elapsed: 0.0006060600280761719
ell 97, elapsed: 0.0006189346313476562
ell 96, elapsed: 0.0003840923309326172
ell 95, elapsed: 0.00048089027404785156
ell 94, elapsed: 0.00041294097900390625
ell 93, elapsed: 0.00047397613525390625
ell 92, elapsed: 0.0003859996795654297
ell 91, elapsed: 0.0004839897155761719
ell 90, elapsed: 0.00039076805114746094
ell 89, elapsed: 0.00047588348388671875
ell 88, elapsed: 0.0003809928894042969
ell 87, elapsed: 0.0004868507385253906
ell 86, elapsed: 0.0005609989166259766
ell 85, elapsed: 0.0005538463592529297
ell 84, elapsed: 0.0003879070281982422
ell 83, elapsed: 0.0006761550903320312
ell 82, elapsed: 0.0005929470062255859
ell 81, elapsed: 0.0005710124969482422
ell 80, elapsed: 0.00038504600524902344
ell 79, elapsed: 0.0005109310150146484
ell 78, elapsed: 0.0003848075866699219
ell 77, elapsed: 0.00048279762268066406
ell 76, elapsed: 0.00039505958557128906
ell 75, elapsed: 0.00047588348388671875
ell 74, elapsed: 0.0003848075866699219
ell 73, elapsed: 0.00047898292541503906
ell 72, elapsed: 0.0005049705505371094
ell 71, elapsed: 0.0006420612335205078
ell 70, elapsed: 0.0004780292510986328
ell 69, elapsed: 0.0007350444793701172
ell 68, elapsed: 0.0004978179931640625
ell 67, elapsed: 0.0004799365997314453
ell 66, elapsed: 0.00038504600524902344
ell 65, elapsed: 0.000476837158203125
ell 64, elapsed: 0.00038909912109375
ell 63, elapsed: 0.0004980564117431641
ell 62, elapsed: 0.0003871917724609375
ell 61, elapsed: 0.0004780292510986328
ell 60, elapsed: 0.0003941059112548828
ell 59, elapsed: 0.0005669593811035156
ell 58, elapsed: 0.0005419254302978516
ell 57, elapsed: 0.0004780292510986328
ell 56, elapsed: 0.00039196014404296875
ell 55, elapsed: 0.0004990100860595703
ell 54, elapsed: 0.00039005279541015625
ell 53, elapsed: 0.00047206878662109375
ell 52, elapsed: 0.0005209445953369141
ell 51, elapsed: 0.0006000995635986328
ell 50, elapsed: 0.00038695335388183594
ell 49, elapsed: 0.0004749298095703125
ell 48, elapsed: 0.0003859996795654297
ell 47, elapsed: 0.0004961490631103516
ell 46, elapsed: 0.0003840923309326172
ell 45, elapsed: 0.00047206878662109375
ell 44, elapsed: 0.0003859996795654297
ell 43, elapsed: 0.0004680156707763672
ell 42, elapsed: 0.0003879070281982422
ell 41, elapsed: 0.0004820823669433594
ell 40, elapsed: 0.0004010200500488281
ell 39, elapsed: 0.0005259513854980469
ell 38, elapsed: 0.0005459785461425781
ell 37, elapsed: 0.0007109642028808594
ell 36, elapsed: 0.00044608116149902344
ell 35, elapsed: 0.000576019287109375
ell 34, elapsed: 0.0005800724029541016
ell 33, elapsed: 0.0005879402160644531
ell 32, elapsed: 0.0005919933319091797
ell 31, elapsed: 0.0007390975952148438
ell 30, elapsed: 0.0005660057067871094
ell 29, elapsed: 0.0007457733154296875
ell 28, elapsed: 0.0006160736083984375
ell 27, elapsed: 0.0005729198455810547
ell 26, elapsed: 0.00038695335388183594
ell 25, elapsed: 0.00047206878662109375
ell 24, elapsed: 0.0003838539123535156
ell 23, elapsed: 0.0006151199340820312
ell 22, elapsed: 0.0004980564117431641
ell 21, elapsed: 0.0006020069122314453
ell 20, elapsed: 0.0006148815155029297
ell 19, elapsed: 0.0007719993591308594
ell 18, elapsed: 0.0006268024444580078
ell 17, elapsed: 0.0007500648498535156
ell 16, elapsed: 0.0006108283996582031
ell 15, elapsed: 0.0005829334259033203
ell 14, elapsed: 0.00037789344787597656
ell 13, elapsed: 0.0006949901580810547
ell 12, elapsed: 0.0004780292510986328
ell 11, elapsed: 0.0006620883941650391
ell 10, elapsed: 0.0006020069122314453
ell 9, elapsed: 0.0005948543548583984
ell 8, elapsed: 0.0005240440368652344
ell 7, elapsed: 0.0006630420684814453
ell 6, elapsed: 0.0005469322204589844
ell 5, elapsed: 0.0006780624389648438
ell 4, elapsed: 0.0005209445953369141
ell 3, elapsed: 0.000743865966796875
ell 2, elapsed: 0.0004448890686035156
ell 1, elapsed: 0.0004990100860595703
ell 0, elapsed: 0.00039505958557128906
  0.709330 seconds (41.19 k allocations: 2.939 MiB)
elapsed: 0.0005810260772705078
step:          0.074488 sec (0 allocations: 0 byte, 0.0% gc time)
swapping:      0.000947 sec (0 allocations: 0 byte, 0.0% gc time)
calc_Mellell!: 0.011341 sec (0 allocations: 0 byte, 0.0% gc time)
  t0 :  0.00343 sec (0 allocations: 0 byte, 0.0% gc time)
  tm2 : 0.110378 sec (0 allocations: 0 byte, 0.0% gc time)
  tm2s: 0.002327 sec (0 allocations: 0 byte, 0.0% gc time)
  tm4 : 0.296166 sec (0 allocations: 0 byte, 0.0% gc time)
  tp2 : 0.0 sec (0 allocations: 0 byte, 0.0% gc time)
  tp2s: 0.0 sec (0 allocations: 0 byte, 0.0% gc time)
  tp4 : 0.0 sec (0 allocations: 0 byte, 0.0% gc time)
calc_wtdll!:   0.430268 sec (9.87 k allocations: 1.043 MB, 0.0% gc time)
calc_wljj!:    0.047458 sec (689 allocations: 10.766 KB, 0.0% gc time)
mult_prefac!:  0.0 sec (0 allocations: 0 byte, 0.0% gc time)
convert:       0.0 sec (0 allocations: 0 byte, 0.0% gc time)
write:         0.063785 sec (0 allocations: 0 byte, 0.0% gc time)
test_rand_2f1: 0.0 sec (0 allocations: 0 byte, 0.0% gc time)
Closing outfile out/Ml21-cache.bin...   0.024105 seconds
  0.000305 seconds (52 allocations: 28.297 KiB)
make_phi():   0.002602 seconds (8.20 k allocations: 238.016 KiB)
  0.185957 seconds (146.69 k allocations: 3.629 MiB)
tskip:       0.000897 sec (0 allocations: 0 byte, 0.0% gc time)
tread:       0.025033 sec (19 allocations: 10.688 KB, 0.0% gc time)
tmultphi:    0.012853 sec (0 allocations: 0 byte, 0.0% gc time)
tbrfft:      0.048145 sec (9.592 k allocations: 449.625 KB, 0.0% gc time)
tmultprefac: 0.037018 sec (0 allocations: 0 byte, 0.0% gc time)
toutfunc:    0.059927 sec (129.905 k allocations: 2.421 MB, 0.0% gc time)
Testing R=1.0 ... passed
Calculating fmax: 
  dlrec    = 4
  dlrecRg1 = -4
  q=1.1, R=0.9:	  0.465304 seconds (116.47 k allocations: 15.614 MiB, 4.13% gc time)

  0.466395 seconds (116.51 k allocations: 15.648 MiB, 4.12% gc time)
ℓ = 1202
Δℓ = 4
ΔℓRg1 = -4
N = 1600
q = 1.1
kmin = 1.0e-5
kmax = 100000.00000000004
χ0 = 0.023029999999999995
RR = RR.tsv
ℓmax = ℓmax.bin
f21 = f21.bin
kmin = 1.0e-5
kmax = 100000.0
dlrec    = 4
dlrecRg1 = -4
Output size: 5741568 bytes = 0.005347251892089844 GiB
Output size: 51264 bytes = 4.774332046508789e-5 GiB
Reading 'out/F21EllCache'...   0.001203 seconds (267 allocations: 84.656 KiB)
ellmax: 1202
lmaxcache: 1202
fell[:,1,1] = Complex{Float64}[1.3482014726274674e-57 - 3.302141236118086e-73im, 1.357860004724329e-57 - 3.3257978169518355e-73im]
ell 1202, elapsed: 9.799003601074219e-5
ell 1201, elapsed: 0.0005860328674316406
ell 1200, elapsed: 0.0006659030914306641
ell 1199, elapsed: 0.0006721019744873047
ell 1198, elapsed: 0.0006301403045654297
ell 1002, elapsed: 0.010868072509765625
ell 1001, elapsed: 0.0006608963012695312
ell 1000, elapsed: 0.0006542205810546875
ell 999, elapsed: 0.0006618499755859375
ell 998, elapsed: 0.0006780624389648438
ell 902, elapsed: 0.005254983901977539
ell 901, elapsed: 0.0006849765777587891
ell 900, elapsed: 0.0007228851318359375
ell 899, elapsed: 0.0007081031799316406
ell 898, elapsed: 0.0006990432739257812
ell 802, elapsed: 0.005540132522583008
ell 801, elapsed: 0.0006730556488037109
ell 800, elapsed: 0.0006678104400634766
ell 799, elapsed: 0.0006260871887207031
ell 798, elapsed: 0.0006098747253417969
ell 702, elapsed: 0.005262136459350586
ell 701, elapsed: 0.0005698204040527344
ell 700, elapsed: 0.0006158351898193359
ell 699, elapsed: 0.0006239414215087891
ell 698, elapsed: 0.0005779266357421875
ell 602, elapsed: 0.0052340030670166016
ell 601, elapsed: 0.0005829334259033203
ell 600, elapsed: 0.0006189346313476562
ell 599, elapsed: 0.0005998611450195312
ell 598, elapsed: 0.0006010532379150391
ell 502, elapsed: 0.005630970001220703
ell 501, elapsed: 0.0007240772247314453
ell 500, elapsed: 0.0006539821624755859
ell 499, elapsed: 0.0006749629974365234
ell 498, elapsed: 0.0006201267242431641
ell 402, elapsed: 0.007737874984741211
ell 401, elapsed: 0.0006427764892578125
ell 400, elapsed: 0.0006568431854248047
ell 399, elapsed: 0.0006430149078369141
ell 398, elapsed: 0.0005469322204589844
ell 302, elapsed: 0.005733966827392578
ell 301, elapsed: 0.00041794776916503906
ell 300, elapsed: 0.0003838539123535156
ell 299, elapsed: 0.0005850791931152344
ell 298, elapsed: 0.0006120204925537109
ell 202, elapsed: 0.006197929382324219
ell 201, elapsed: 0.0006289482116699219
ell 200, elapsed: 0.0006601810455322266
ell 199, elapsed: 0.0006041526794433594
ell 198, elapsed: 0.0006780624389648438
ell 152, elapsed: 0.0034110546112060547
ell 151, elapsed: 0.0004229545593261719
ell 150, elapsed: 0.0006279945373535156
ell 149, elapsed: 0.0006968975067138672
ell 148, elapsed: 0.0006461143493652344
ell 127, elapsed: 0.0026350021362304688
ell 126, elapsed: 0.0006411075592041016
ell 125, elapsed: 0.0006029605865478516
ell 124, elapsed: 0.0006470680236816406
ell 123, elapsed: 0.0006101131439208984
ell 114, elapsed: 0.0014050006866455078
ell 113, elapsed: 0.0005900859832763672
ell 112, elapsed: 0.0005910396575927734
ell 111, elapsed: 0.0006010532379150391
ell 110, elapsed: 0.0005750656127929688
ell 102, elapsed: 0.0011131763458251953
ell 101, elapsed: 0.0004119873046875
ell 100, elapsed: 0.0005898475646972656
ell 99, elapsed: 0.0005910396575927734
ell 98, elapsed: 0.000576019287109375
ell 97, elapsed: 0.0006539821624755859
ell 96, elapsed: 0.0008170604705810547
ell 95, elapsed: 0.0006389617919921875
ell 94, elapsed: 0.000782012939453125
ell 93, elapsed: 0.0006589889526367188
ell 92, elapsed: 0.0007760524749755859
ell 91, elapsed: 0.0006930828094482422
ell 90, elapsed: 0.0007600784301757812
ell 89, elapsed: 0.0006430149078369141
ell 88, elapsed: 0.0007748603820800781
ell 87, elapsed: 0.0006549358367919922
ell 86, elapsed: 0.0007560253143310547
ell 85, elapsed: 0.0006670951843261719
ell 84, elapsed: 0.0007600784301757812
ell 83, elapsed: 0.0006411075592041016
ell 82, elapsed: 0.0007739067077636719
ell 81, elapsed: 0.0006480216979980469
ell 80, elapsed: 0.0007698535919189453
ell 79, elapsed: 0.0006439685821533203
ell 78, elapsed: 0.000762939453125
ell 77, elapsed: 0.0006580352783203125
ell 76, elapsed: 0.0007729530334472656
ell 75, elapsed: 0.000659942626953125
ell 74, elapsed: 0.0007691383361816406
ell 73, elapsed: 0.0006461143493652344
ell 72, elapsed: 0.0007600784301757812
ell 71, elapsed: 0.000637054443359375
ell 70, elapsed: 0.0007867813110351562
ell 69, elapsed: 0.0006380081176757812
ell 68, elapsed: 0.0007469654083251953
ell 67, elapsed: 0.0006299018859863281
ell 66, elapsed: 0.0007410049438476562
ell 65, elapsed: 0.0006330013275146484
ell 64, elapsed: 0.0007650852203369141
ell 63, elapsed: 0.0006418228149414062
ell 62, elapsed: 0.0007569789886474609
ell 61, elapsed: 0.0006418228149414062
ell 60, elapsed: 0.0007741451263427734
ell 59, elapsed: 0.0006489753723144531
ell 58, elapsed: 0.0007548332214355469
ell 57, elapsed: 0.0006389617919921875
ell 56, elapsed: 0.0007641315460205078
ell 55, elapsed: 0.0005629062652587891
ell 54, elapsed: 0.0005249977111816406
ell 53, elapsed: 0.0005631446838378906
ell 52, elapsed: 0.0006451606750488281
ell 51, elapsed: 0.00042700767517089844
ell 50, elapsed: 0.0006451606750488281
ell 49, elapsed: 0.0006339550018310547
ell 48, elapsed: 0.0007328987121582031
ell 47, elapsed: 0.0006890296936035156
ell 46, elapsed: 0.0006949901580810547
ell 45, elapsed: 0.0004279613494873047
ell 44, elapsed: 0.0005321502685546875
ell 43, elapsed: 0.0006341934204101562
ell 42, elapsed: 0.0007240772247314453
ell 41, elapsed: 0.0005269050598144531
ell 40, elapsed: 0.00047588348388671875
ell 39, elapsed: 0.00045800209045410156
ell 38, elapsed: 0.0006549358367919922
ell 37, elapsed: 0.0004069805145263672
ell 36, elapsed: 0.00047206878662109375
ell 35, elapsed: 0.00049591064453125
ell 34, elapsed: 0.0006730556488037109
ell 33, elapsed: 0.0005459785461425781
ell 32, elapsed: 0.0007541179656982422
ell 31, elapsed: 0.0006299018859863281
ell 30, elapsed: 0.0007450580596923828
ell 29, elapsed: 0.0006330013275146484
ell 28, elapsed: 0.0007798671722412109
ell 27, elapsed: 0.0006251335144042969
ell 26, elapsed: 0.0007410049438476562
ell 25, elapsed: 0.0006260871887207031
ell 24, elapsed: 0.0005748271942138672
ell 23, elapsed: 0.0003879070281982422
ell 22, elapsed: 0.0004811286926269531
ell 21, elapsed: 0.0005052089691162109
ell 20, elapsed: 0.0006091594696044922
ell 19, elapsed: 0.0003910064697265625
ell 18, elapsed: 0.00046896934509277344
ell 17, elapsed: 0.0003921985626220703
ell 16, elapsed: 0.000621795654296875
ell 15, elapsed: 0.0006110668182373047
ell 14, elapsed: 0.0006129741668701172
ell 13, elapsed: 0.00038814544677734375
ell 12, elapsed: 0.0005779266357421875
ell 11, elapsed: 0.0006110668182373047
ell 10, elapsed: 0.0007259845733642578
ell 9, elapsed: 0.0006310939788818359
ell 8, elapsed: 0.0007841587066650391
ell 7, elapsed: 0.0006380081176757812
ell 6, elapsed: 0.0007350444793701172
ell 5, elapsed: 0.0006229877471923828
ell 4, elapsed: 0.0007379055023193359
ell 3, elapsed: 0.0006430149078369141
ell 2, elapsed: 0.0007250308990478516
ell 1, elapsed: 0.0006361007690429688
ell 0, elapsed: 0.0007479190826416016
  0.180951 seconds (10.83 k allocations: 697.938 KiB)
elapsed: 0.0007901191711425781
step:          0.06652 sec (0 allocations: 0 byte, 0.0% gc time)
swapping:      0.000716 sec (0 allocations: 0 byte, 0.0% gc time)
calc_Mellell!: 0.002256 sec (0 allocations: 0 byte, 0.0% gc time)
  t0 :  0.00053 sec (0 allocations: 0 byte, 0.0% gc time)
  tm2 : 0.019797 sec (0 allocations: 0 byte, 0.0% gc time)
  tm2s: 0.000394 sec (0 allocations: 0 byte, 0.0% gc time)
  tm4 : 0.050903 sec (0 allocations: 0 byte, 0.0% gc time)
  tp2 : 0.0 sec (0 allocations: 0 byte, 0.0% gc time)
  tp2s: 0.0 sec (0 allocations: 0 byte, 0.0% gc time)
  tp4 : 0.0 sec (0 allocations: 0 byte, 0.0% gc time)
calc_wtdll!:   0.07246 sec (1.344 k allocations: 147.0 KB, 0.0% gc time)
calc_wljj!:    0.005147 sec (6 allocations: 96 byte, 0.0% gc time)
mult_prefac!:  0.0 sec (0 allocations: 0 byte, 0.0% gc time)
convert:       0.0 sec (0 allocations: 0 byte, 0.0% gc time)
write:         0.006693 sec (0 allocations: 0 byte, 0.0% gc time)
test_rand_2f1: 0.0 sec (0 allocations: 0 byte, 0.0% gc time)
Closing outfile out/Ml21-cache.bin...   0.003317 seconds
  0.000302 seconds (52 allocations: 28.297 KiB)
make_phi():   0.002513 seconds (8.20 k allocations: 238.016 KiB)
  0.018074 seconds (12.10 k allocations: 322.000 KiB)
tskip:       2.3e-5 sec (0 allocations: 0 byte, 0.0% gc time)
tread:       0.002438 sec (19 allocations: 2.172 KB, 0.0% gc time)
tmultphi:    0.001293 sec (0 allocations: 0 byte, 0.0% gc time)
tbrfft:      0.004691 sec (896 allocations: 42.0 KB, 0.0% gc time)
tmultprefac: 0.003702 sec (0 allocations: 0 byte, 0.0% gc time)
toutfunc:    0.005854 sec (10.528 k allocations: 206.5 KB, 0.0% gc time)
Testing R=0.9 ... passed
Calculating fmax: 
  dlrec    = 4
  dlrecRg1 = -4
  q=1.1, R=0.8:	  0.358477 seconds (113.61 k allocations: 15.166 MiB)

  0.358859 seconds (113.65 k allocations: 15.200 MiB)
ℓ = 1202
Δℓ = 4
ΔℓRg1 = -4
N = 1600
q = 1.1
kmin = 1.0e-5
kmax = 100000.00000000004
χ0 = 0.023029999999999995
RR = RR.tsv
ℓmax = ℓmax.bin
f21 = f21.bin
kmin = 1.0e-5
kmax = 100000.0
dlrec    = 4
dlrecRg1 = -4
Output size: 5741568 bytes = 0.005347251892089844 GiB
Output size: 51264 bytes = 4.774332046508789e-5 GiB
Reading 'out/F21EllCache'...   0.001160 seconds (267 allocations: 84.656 KiB)
ellmax: 1202
lmaxcache: 1202
fell[:,1,1] = Complex{Float64}[7.519068145690986e-120 - 1.8416405474382574e-135im, 7.541664537386155e-120 - 1.847175067190611e-135im]
ell 1202, elapsed: 2.193450927734375e-5
ell 1201, elapsed: 0.0005779266357421875
ell 1200, elapsed: 0.0006330013275146484
ell 1199, elapsed: 0.0006239414215087891
ell 1198, elapsed: 0.0006251335144042969
ell 1002, elapsed: 0.010646820068359375
ell 1001, elapsed: 0.00037097930908203125
ell 1000, elapsed: 0.0005049705505371094
ell 999, elapsed: 0.0005879402160644531
ell 998, elapsed: 0.0005609989166259766
ell 902, elapsed: 0.005138874053955078
ell 901, elapsed: 0.0005161762237548828
ell 900, elapsed: 0.0005321502685546875
ell 899, elapsed: 0.0006411075592041016
ell 898, elapsed: 0.0004968643188476562
ell 802, elapsed: 0.005103111267089844
ell 801, elapsed: 0.0005872249603271484
ell 800, elapsed: 0.0005040168762207031
ell 799, elapsed: 0.0005791187286376953
ell 798, elapsed: 0.0006439685821533203
ell 702, elapsed: 0.005820035934448242
ell 701, elapsed: 0.0006411075592041016
ell 700, elapsed: 0.0005259513854980469
ell 699, elapsed: 0.0005478858947753906
ell 698, elapsed: 0.0005590915679931641
ell 602, elapsed: 0.005219936370849609
ell 601, elapsed: 0.0003788471221923828
ell 600, elapsed: 0.0004000663757324219
ell 599, elapsed: 0.0005731582641601562
ell 598, elapsed: 0.0005550384521484375
ell 502, elapsed: 0.005037069320678711
ell 501, elapsed: 0.0005230903625488281
ell 500, elapsed: 0.0005450248718261719
ell 499, elapsed: 0.0005469322204589844
ell 498, elapsed: 0.0005829334259033203
ell 402, elapsed: 0.0057888031005859375
ell 401, elapsed: 0.0004980564117431641
ell 400, elapsed: 0.0005631446838378906
ell 399, elapsed: 0.0005738735198974609
ell 398, elapsed: 0.0005681514739990234
ell 302, elapsed: 0.0057179927825927734
ell 301, elapsed: 0.0005521774291992188
ell 300, elapsed: 0.0005719661712646484
ell 299, elapsed: 0.0005500316619873047
ell 298, elapsed: 0.0004551410675048828
ell 202, elapsed: 0.005487918853759766
ell 201, elapsed: 0.0005438327789306641
ell 200, elapsed: 0.0005679130554199219
ell 199, elapsed: 0.0005829334259033203
ell 198, elapsed: 0.0005588531494140625
ell 152, elapsed: 0.002843141555786133
ell 151, elapsed: 0.0005381107330322266
ell 150, elapsed: 0.0005600452423095703
ell 149, elapsed: 0.0005559921264648438
ell 148, elapsed: 0.0005581378936767578
ell 127, elapsed: 0.001878976821899414
ell 126, elapsed: 0.0003769397735595703
ell 125, elapsed: 0.0004410743713378906
ell 124, elapsed: 0.0005559921264648438
ell 123, elapsed: 0.0005550384521484375
ell 114, elapsed: 0.0009691715240478516
ell 113, elapsed: 0.0005090236663818359
ell 112, elapsed: 0.0004858970642089844
ell 111, elapsed: 0.0003528594970703125
ell 110, elapsed: 0.00047898292541503906
ell 102, elapsed: 0.0010101795196533203
ell 101, elapsed: 0.0003559589385986328
ell 100, elapsed: 0.0003581047058105469
ell 99, elapsed: 0.0003540515899658203
ell 98, elapsed: 0.00035500526428222656
ell 97, elapsed: 0.0004189014434814453
ell 96, elapsed: 0.000492095947265625
ell 95, elapsed: 0.0003871917724609375
ell 94, elapsed: 0.0004792213439941406
ell 93, elapsed: 0.0004088878631591797
ell 92, elapsed: 0.0004849433898925781
ell 91, elapsed: 0.000392913818359375
ell 90, elapsed: 0.0004730224609375
ell 89, elapsed: 0.00040912628173828125
ell 88, elapsed: 0.0004830360412597656
ell 87, elapsed: 0.0003960132598876953
ell 86, elapsed: 0.0004811286926269531
ell 85, elapsed: 0.000392913818359375
ell 84, elapsed: 0.0004820823669433594
ell 83, elapsed: 0.0005779266357421875
ell 82, elapsed: 0.0005528926849365234
ell 81, elapsed: 0.00041484832763671875
ell 80, elapsed: 0.0004780292510986328
ell 79, elapsed: 0.0003879070281982422
ell 78, elapsed: 0.0004780292510986328
ell 77, elapsed: 0.00038313865661621094
ell 76, elapsed: 0.0004711151123046875
ell 75, elapsed: 0.00039505958557128906
ell 74, elapsed: 0.0004820823669433594
ell 73, elapsed: 0.0003910064697265625
ell 72, elapsed: 0.0004909038543701172
ell 71, elapsed: 0.00039505958557128906
ell 70, elapsed: 0.00047588348388671875
ell 69, elapsed: 0.0004448890686035156
ell 68, elapsed: 0.0004849433898925781
ell 67, elapsed: 0.0004971027374267578
ell 66, elapsed: 0.0004971027374267578
ell 65, elapsed: 0.0003991127014160156
ell 64, elapsed: 0.0004830360412597656
ell 63, elapsed: 0.0003991127014160156
ell 62, elapsed: 0.0004940032958984375
ell 61, elapsed: 0.0004010200500488281
ell 60, elapsed: 0.0004930496215820312
ell 59, elapsed: 0.0004029273986816406
ell 58, elapsed: 0.0004830360412597656
ell 57, elapsed: 0.00039696693420410156
ell 56, elapsed: 0.0005030632019042969
ell 55, elapsed: 0.0003972053527832031
ell 54, elapsed: 0.00048613548278808594
ell 53, elapsed: 0.00039696693420410156
ell 52, elapsed: 0.0004818439483642578
ell 51, elapsed: 0.00039696693420410156
ell 50, elapsed: 0.0004839897155761719
ell 49, elapsed: 0.000392913818359375
ell 48, elapsed: 0.0005650520324707031
ell 47, elapsed: 0.0003910064697265625
ell 46, elapsed: 0.00047707557678222656
ell 45, elapsed: 0.0003941059112548828
ell 44, elapsed: 0.0004761219024658203
ell 43, elapsed: 0.00039005279541015625
ell 42, elapsed: 0.0004839897155761719
ell 41, elapsed: 0.0003979206085205078
ell 40, elapsed: 0.0006809234619140625
ell 39, elapsed: 0.00045418739318847656
ell 38, elapsed: 0.0006918907165527344
ell 37, elapsed: 0.0004439353942871094
ell 36, elapsed: 0.00047016143798828125
ell 35, elapsed: 0.0003910064697265625
ell 34, elapsed: 0.0004730224609375
ell 33, elapsed: 0.0003941059112548828
[...]
ell 788, elapsed: 0.0007538795471191406
ell 782, elapsed: 0.001870870590209961
ell 781, elapsed: 0.0007371902465820312
ell 780, elapsed: 0.00084686279296875
ell 779, elapsed: 0.0007851123809814453
ell 778, elapsed: 0.0007560253143310547
ell 772, elapsed: 0.0017769336700439453
ell 771, elapsed: 0.0008761882781982422
ell 770, elapsed: 0.0008690357208251953
ell 769, elapsed: 0.0008449554443359375
ell 768, elapsed: 0.0009160041809082031
ell 762, elapsed: 0.0018930435180664062
ell 761, elapsed: 0.0008678436279296875
ell 760, elapsed: 0.0008549690246582031
ell 759, elapsed: 0.0008499622344970703
ell 758, elapsed: 0.0008490085601806641
ell 752, elapsed: 0.0015659332275390625
ell 751, elapsed: 0.0008230209350585938
ell 750, elapsed: 0.0008451938629150391
ell 749, elapsed: 0.0008540153503417969
ell 748, elapsed: 0.0008580684661865234
ell 742, elapsed: 0.0019080638885498047
ell 741, elapsed: 0.0007958412170410156
ell 740, elapsed: 0.0008590221405029297
ell 739, elapsed: 0.0008490085601806641
ell 738, elapsed: 0.0008418560028076172
ell 732, elapsed: 0.001895904541015625
ell 731, elapsed: 0.0008051395416259766
ell 730, elapsed: 0.0008499622344970703
ell 729, elapsed: 0.0008628368377685547
ell 728, elapsed: 0.0008668899536132812
ell 722, elapsed: 0.001928091049194336
ell 721, elapsed: 0.0008218288421630859
ell 720, elapsed: 0.0008580684661865234
ell 719, elapsed: 0.0008690357208251953
ell 718, elapsed: 0.0008559226989746094
ell 712, elapsed: 0.0019359588623046875
ell 711, elapsed: 0.0008499622344970703
ell 710, elapsed: 0.0008640289306640625
ell 709, elapsed: 0.022459030151367188
ell 708, elapsed: 0.0010869503021240234
ell 702, elapsed: 0.0016410350799560547
ell 701, elapsed: 0.0008611679077148438
ell 700, elapsed: 0.0008590221405029297
ell 699, elapsed: 0.0008311271667480469
ell 698, elapsed: 0.0008249282836914062
ell 692, elapsed: 0.0017719268798828125
ell 691, elapsed: 0.0008499622344970703
ell 690, elapsed: 0.0008280277252197266
ell 689, elapsed: 0.0008149147033691406
ell 688, elapsed: 0.0008568763732910156
ell 682, elapsed: 0.0015981197357177734
ell 681, elapsed: 0.0008091926574707031
ell 680, elapsed: 0.0008511543273925781
ell 679, elapsed: 0.0008211135864257812
ell 678, elapsed: 0.0009069442749023438
ell 672, elapsed: 0.0015799999237060547
ell 671, elapsed: 0.0008327960968017578
ell 670, elapsed: 0.0008111000061035156
ell 669, elapsed: 0.0009670257568359375
ell 668, elapsed: 0.0008480548858642578
ell 662, elapsed: 0.00156402587890625
ell 661, elapsed: 0.00096893310546875
ell 660, elapsed: 0.0008780956268310547
ell 659, elapsed: 0.0008330345153808594
ell 658, elapsed: 0.0008299350738525391
ell 652, elapsed: 0.0017669200897216797
ell 651, elapsed: 0.000823974609375
ell 650, elapsed: 0.0008151531219482422
ell 649, elapsed: 0.0008211135864257812
ell 648, elapsed: 0.0008928775787353516
ell 642, elapsed: 0.0015940666198730469
ell 641, elapsed: 0.0008609294891357422
ell 640, elapsed: 0.0008540153503417969
ell 639, elapsed: 0.0009691715240478516
ell 638, elapsed: 0.0008609294891357422
ell 632, elapsed: 0.0019199848175048828
ell 631, elapsed: 0.0008871555328369141
ell 630, elapsed: 0.0008599758148193359
ell 629, elapsed: 0.0008041858673095703
ell 628, elapsed: 0.0008311271667480469
ell 622, elapsed: 0.0017750263214111328
ell 621, elapsed: 0.0008251667022705078
ell 620, elapsed: 0.0008301734924316406
ell 619, elapsed: 0.0008308887481689453
ell 618, elapsed: 0.0010199546813964844
ell 612, elapsed: 0.001584768295288086
ell 611, elapsed: 0.0008330345153808594
ell 610, elapsed: 0.0008230209350585938
ell 609, elapsed: 0.0009601116180419922
ell 608, elapsed: 0.0008199214935302734
ell 602, elapsed: 0.00156402587890625
ell 601, elapsed: 0.0009131431579589844
ell 600, elapsed: 0.0008819103240966797
ell 599, elapsed: 0.0008490085601806641
ell 598, elapsed: 0.0011188983917236328
ell 592, elapsed: 0.001705169677734375
ell 591, elapsed: 0.0011150836944580078
ell 590, elapsed: 0.0008420944213867188
ell 589, elapsed: 0.0008389949798583984
ell 588, elapsed: 0.0010480880737304688
ell 582, elapsed: 0.001622915267944336
ell 581, elapsed: 0.0008361339569091797
ell 580, elapsed: 0.0010080337524414062
ell 579, elapsed: 0.0008549690246582031
ell 578, elapsed: 0.0008308887481689453
ell 572, elapsed: 0.0016138553619384766
ell 571, elapsed: 0.000949859619140625
ell 570, elapsed: 0.0008320808410644531
ell 569, elapsed: 0.0008308887481689453
ell 568, elapsed: 0.000843048095703125
ell 562, elapsed: 0.0018241405487060547
ell 561, elapsed: 0.0008358955383300781
ell 560, elapsed: 0.0008530616760253906
ell 559, elapsed: 0.0008840560913085938
ell 558, elapsed: 0.0009131431579589844
ell 552, elapsed: 0.0015909671783447266
ell 551, elapsed: 0.0008399486541748047
ell 550, elapsed: 0.0009520053863525391
ell 549, elapsed: 0.0008101463317871094
ell 548, elapsed: 0.0008418560028076172
ell 542, elapsed: 0.0016949176788330078
ell 541, elapsed: 0.0009119510650634766
ell 540, elapsed: 0.0008339881896972656
ell 539, elapsed: 0.0008349418640136719
ell 538, elapsed: 0.0008099079132080078
ell 532, elapsed: 0.0017299652099609375
ell 531, elapsed: 0.0008420944213867188
ell 530, elapsed: 0.0008108615875244141
ell 529, elapsed: 0.0007960796356201172
ell 528, elapsed: 0.0009489059448242188
ell 522, elapsed: 0.001531839370727539
ell 521, elapsed: 0.0008418560028076172
ell 520, elapsed: 0.000990152359008789
ell 519, elapsed: 0.0008690357208251953
ell 518, elapsed: 0.000823974609375
ell 512, elapsed: 0.0016169548034667969
ell 511, elapsed: 0.0010380744934082031
ell 510, elapsed: 0.0008120536804199219
ell 509, elapsed: 0.0008261203765869141
ell 508, elapsed: 0.000823974609375
ell 502, elapsed: 0.0017428398132324219
ell 501, elapsed: 0.0008349418640136719
ell 500, elapsed: 0.0008292198181152344
ell 499, elapsed: 0.0008389949798583984
ell 498, elapsed: 0.0010771751403808594
ell 492, elapsed: 0.0016040802001953125
ell 491, elapsed: 0.0008380413055419922
ell 490, elapsed: 0.0009920597076416016
ell 489, elapsed: 0.0008640289306640625
ell 488, elapsed: 0.0008158683776855469
ell 482, elapsed: 0.0016210079193115234
ell 481, elapsed: 0.0008499622344970703
ell 480, elapsed: 0.0008449554443359375
ell 479, elapsed: 0.0008368492126464844
ell 478, elapsed: 0.0008330345153808594
ell 472, elapsed: 0.001641988754272461
ell 471, elapsed: 0.0008399486541748047
ell 470, elapsed: 0.0008308887481689453
ell 469, elapsed: 0.0008368492126464844
ell 468, elapsed: 0.0010712146759033203
ell 462, elapsed: 0.0016789436340332031
ell 461, elapsed: 0.0008490085601806641
ell 460, elapsed: 0.0008509159088134766
ell 459, elapsed: 0.0008740425109863281
ell 458, elapsed: 0.0007817745208740234
ell 452, elapsed: 0.0018298625946044922
ell 451, elapsed: 0.0010020732879638672
ell 450, elapsed: 0.0008370876312255859
ell 449, elapsed: 0.0008339881896972656
ell 448, elapsed: 0.0008311271667480469
ell 442, elapsed: 0.00177001953125
ell 441, elapsed: 0.0008330345153808594
ell 440, elapsed: 0.0008478164672851562
ell 439, elapsed: 0.0008258819580078125
ell 438, elapsed: 0.0014889240264892578
ell 432, elapsed: 0.001611948013305664
ell 431, elapsed: 0.0008351802825927734
ell 430, elapsed: 0.0008199214935302734
ell 429, elapsed: 0.0008351802825927734
ell 428, elapsed: 0.0008349418640136719
ell 422, elapsed: 0.001638174057006836
ell 421, elapsed: 0.0008409023284912109
ell 420, elapsed: 0.0008299350738525391
ell 419, elapsed: 0.0008258819580078125
ell 418, elapsed: 0.0008311271667480469
ell 412, elapsed: 0.0020761489868164062
ell 411, elapsed: 0.0008320808410644531
ell 410, elapsed: 0.0008280277252197266
ell 409, elapsed: 0.0008289813995361328
ell 408, elapsed: 0.0008358955383300781
ell 402, elapsed: 0.001619100570678711
ell 401, elapsed: 0.0008358955383300781
ell 400, elapsed: 0.0008540153503417969
ell 399, elapsed: 0.0008301734924316406
ell 398, elapsed: 0.0008199214935302734
ell 392, elapsed: 0.0016369819641113281
ell 391, elapsed: 0.0008399486541748047
ell 390, elapsed: 0.0008308887481689453
ell 389, elapsed: 0.000820159912109375
ell 388, elapsed: 0.0008230209350585938
ell 382, elapsed: 0.0016641616821289062
ell 381, elapsed: 0.0008370876312255859
ell 380, elapsed: 0.0008399486541748047
ell 379, elapsed: 0.0008218288421630859
ell 378, elapsed: 0.0008819103240966797
ell 372, elapsed: 0.0016160011291503906
ell 371, elapsed: 0.0008339881896972656
ell 370, elapsed: 0.0008800029754638672
ell 369, elapsed: 0.0008409023284912109
ell 368, elapsed: 0.0008149147033691406
ell 362, elapsed: 0.0016210079193115234
ell 361, elapsed: 0.0009100437164306641
ell 360, elapsed: 0.0008161067962646484
ell 359, elapsed: 0.0008299350738525391
ell 358, elapsed: 0.0008308887481689453
ell 352, elapsed: 0.0017080307006835938
ell 351, elapsed: 0.0008349418640136719
ell 350, elapsed: 0.0008301734924316406
ell 349, elapsed: 0.0008268356323242188
ell 348, elapsed: 0.0009410381317138672
ell 342, elapsed: 0.0016372203826904297
ell 341, elapsed: 0.0008568763732910156
ell 340, elapsed: 0.0008540153503417969
ell 339, elapsed: 0.0008859634399414062
ell 338, elapsed: 0.001116037368774414
ell 332, elapsed: 0.0016510486602783203
ell 331, elapsed: 0.0008950233459472656
ell 330, elapsed: 0.0008821487426757812
ell 329, elapsed: 0.000865936279296875
ell 328, elapsed: 0.0008349418640136719
ell 322, elapsed: 0.0016300678253173828
ell 321, elapsed: 0.0008428096771240234
ell 320, elapsed: 0.0008199214935302734
ell 319, elapsed: 0.000843048095703125
ell 318, elapsed: 0.0008587837219238281
ell 312, elapsed: 0.0016169548034667969
ell 311, elapsed: 0.0008490085601806641
ell 310, elapsed: 0.0008420944213867188
ell 309, elapsed: 0.0008559226989746094
ell 308, elapsed: 0.0008418560028076172
ell 302, elapsed: 0.0016889572143554688
ell 301, elapsed: 0.0011298656463623047
ell 300, elapsed: 0.0008931159973144531
ell 299, elapsed: 0.000881195068359375
ell 298, elapsed: 0.0008790493011474609
ell 292, elapsed: 0.001641988754272461
ell 291, elapsed: 0.000843048095703125
ell 290, elapsed: 0.0008399486541748047
ell 289, elapsed: 0.0008361339569091797
ell 288, elapsed: 0.0008540153503417969
ell 282, elapsed: 0.0015871524810791016
ell 281, elapsed: 0.0008499622344970703
ell 280, elapsed: 0.0008449554443359375
ell 279, elapsed: 0.0008568763732910156
ell 278, elapsed: 0.0009059906005859375
ell 272, elapsed: 0.0016179084777832031
ell 271, elapsed: 0.0008559226989746094
ell 270, elapsed: 0.0008420944213867188
ell 269, elapsed: 0.0008449554443359375
ell 268, elapsed: 0.0008440017700195312
ell 262, elapsed: 0.0015950202941894531
ell 261, elapsed: 0.0008950233459472656
ell 260, elapsed: 0.0008878707885742188
ell 259, elapsed: 0.0008859634399414062
ell 258, elapsed: 0.0008649826049804688
ell 252, elapsed: 0.0016438961029052734
ell 251, elapsed: 0.000843048095703125
ell 250, elapsed: 0.0008401870727539062
ell 249, elapsed: 0.00115203857421875
ell 248, elapsed: 0.0008540153503417969
ell 242, elapsed: 0.0016129016876220703
ell 241, elapsed: 0.0008428096771240234
ell 240, elapsed: 0.0009319782257080078
ell 239, elapsed: 0.00084686279296875
ell 238, elapsed: 0.000843048095703125
ell 232, elapsed: 0.0017108917236328125
ell 231, elapsed: 0.0008380413055419922
ell 230, elapsed: 0.0009560585021972656
ell 229, elapsed: 0.0008859634399414062
ell 228, elapsed: 0.0011448860168457031
ell 222, elapsed: 0.0016520023345947266
ell 221, elapsed: 0.0008509159088134766
ell 220, elapsed: 0.0008370876312255859
ell 219, elapsed: 0.0008900165557861328
ell 218, elapsed: 0.0008401870727539062
ell 212, elapsed: 0.0016231536865234375
ell 211, elapsed: 0.0008730888366699219
ell 210, elapsed: 0.0008418560028076172
ell 209, elapsed: 0.0008449554443359375
ell 208, elapsed: 0.0010209083557128906
ell 202, elapsed: 0.0016469955444335938
ell 201, elapsed: 0.0008490085601806641
ell 200, elapsed: 0.0008449554443359375
ell 199, elapsed: 0.0008480548858642578
ell 198, elapsed: 0.0008549690246582031
ell 192, elapsed: 0.0017709732055664062
ell 191, elapsed: 0.0008380413055419922
ell 190, elapsed: 0.0008859634399414062
ell 189, elapsed: 0.0009019374847412109
ell 188, elapsed: 0.0008740425109863281
ell 182, elapsed: 0.0017139911651611328
ell 181, elapsed: 0.0008318424224853516
ell 180, elapsed: 0.0009739398956298828
ell 179, elapsed: 0.0008640289306640625
ell 178, elapsed: 0.0008769035339355469
ell 172, elapsed: 0.0017428398132324219
ell 171, elapsed: 0.0008869171142578125
ell 170, elapsed: 0.0008699893951416016
ell 169, elapsed: 0.0008549690246582031
ell 168, elapsed: 0.0009369850158691406
ell 162, elapsed: 0.0016131401062011719
ell 161, elapsed: 0.0008351802825927734
ell 160, elapsed: 0.0011010169982910156
ell 159, elapsed: 0.0008389949798583984
ell 158, elapsed: 0.0008151531219482422
ell 152, elapsed: 0.0016200542449951172
ell 151, elapsed: 0.0009188652038574219
ell 150, elapsed: 0.0008389949798583984
ell 149, elapsed: 0.0008380413055419922
ell 148, elapsed: 0.0008389949798583984
ell 142, elapsed: 0.0017299652099609375
ell 141, elapsed: 0.0008420944213867188
ell 140, elapsed: 0.0008180141448974609
ell 139, elapsed: 0.0008351802825927734
ell 138, elapsed: 0.0009160041809082031
ell 132, elapsed: 0.0016560554504394531
ell 131, elapsed: 0.0008831024169921875
ell 130, elapsed: 0.0008740425109863281
ell 129, elapsed: 0.0009860992431640625
ell 128, elapsed: 0.0012099742889404297
ell 122, elapsed: 0.002257108688354492
ell 121, elapsed: 0.0008590221405029297
ell 120, elapsed: 0.001116037368774414
ell 119, elapsed: 0.0010828971862792969
ell 118, elapsed: 0.0009529590606689453
ell 112, elapsed: 0.0013048648834228516
ell 111, elapsed: 0.0006470680236816406
ell 110, elapsed: 0.0006420612335205078
ell 109, elapsed: 0.0006430149078369141
ell 108, elapsed: 0.00078582763671875
ell 102, elapsed: 0.0012040138244628906
ell 101, elapsed: 0.002579927444458008
ell 100, elapsed: 0.0037431716918945312
ell 99, elapsed: 0.0036461353302001953
ell 98, elapsed: 0.0028829574584960938
ell 92, elapsed: 0.006431102752685547
ell 91, elapsed: 0.004097938537597656
ell 90, elapsed: 0.003604888916015625
ell 89, elapsed: 0.0024170875549316406
ell 88, elapsed: 0.0024709701538085938
ell 82, elapsed: 0.005249977111816406
ell 81, elapsed: 0.004302024841308594
ell 80, elapsed: 0.0025680065155029297
ell 79, elapsed: 0.002716064453125
ell 78, elapsed: 0.003139019012451172
ell 72, elapsed: 0.005517005920410156
ell 71, elapsed: 0.0025010108947753906
ell 70, elapsed: 0.0024590492248535156
ell 69, elapsed: 0.0024840831756591797
ell 68, elapsed: 0.002471923828125
ell 62, elapsed: 0.004775047302246094
ell 61, elapsed: 0.0024318695068359375
ell 60, elapsed: 0.002482175827026367
ell 59, elapsed: 0.002505064010620117
ell 58, elapsed: 0.0024590492248535156
ell 52, elapsed: 0.004662036895751953
ell 51, elapsed: 0.002492189407348633
ell 50, elapsed: 0.0028891563415527344
ell 49, elapsed: 0.003859996795654297
ell 48, elapsed: 0.004273176193237305
ell 42, elapsed: 0.008435964584350586
ell 41, elapsed: 0.004842996597290039
ell 40, elapsed: 0.004563093185424805
ell 39, elapsed: 0.004044055938720703
ell 38, elapsed: 0.003960132598876953
ell 32, elapsed: 0.00699305534362793
ell 31, elapsed: 0.0045740604400634766
ell 30, elapsed: 0.004058837890625
ell 29, elapsed: 0.004108905792236328
ell 28, elapsed: 0.0046651363372802734
ell 22, elapsed: 0.006987094879150391
ell 21, elapsed: 0.003983020782470703
ell 20, elapsed: 0.0044519901275634766
ell 19, elapsed: 0.0034821033477783203
ell 18, elapsed: 0.00392913818359375
ell 12, elapsed: 0.006952047348022461
ell 11, elapsed: 0.00453495979309082
ell 10, elapsed: 0.004539012908935547
ell 9, elapsed: 0.004601001739501953
ell 8, elapsed: 0.004456043243408203
  0.808724 seconds (66.75 k allocations: 12.139 MiB, 2.65% gc time)
elapsed: 0.005221128463745117
step:          0.072032 sec (0 allocations: 0 byte, 0.0% gc time)
swapping:      0.000819 sec (0 allocations: 0 byte, 0.0% gc time)
calc_Mellell!: 0.034939 sec (0 allocations: 0 byte, 0.0% gc time)
  t0 :  0.011445 sec (0 allocations: 0 byte, 0.0% gc time)
  tm2 : 0.076761 sec (0 allocations: 0 byte, 0.0% gc time)
  tm2s: 0.008725 sec (0 allocations: 0 byte, 0.0% gc time)
  tm4 : 0.19623 sec (0 allocations: 0 byte, 0.0% gc time)
  tp2 : 0.0 sec (0 allocations: 0 byte, 0.0% gc time)
  tp2s: 0.0 sec (0 allocations: 0 byte, 0.0% gc time)
  tp4 : 0.0 sec (0 allocations: 0 byte, 0.0% gc time)
calc_wtdll!:   0.557287 sec (49.2 k allocations: 11.133 MB, 0.0% gc time)
calc_wljj!:    0.040594 sec (69 allocations: 1.078 KB, 0.0% gc time)
mult_prefac!:  0.0 sec (0 allocations: 0 byte, 0.0% gc time)
convert:       0.0 sec (0 allocations: 0 byte, 0.0% gc time)
write:         0.037357 sec (0 allocations: 0 byte, 0.0% gc time)
test_rand_2f1: 0.0 sec (0 allocations: 0 byte, 0.0% gc time)
Closing outfile out/MlCache/MlCache.bin...   0.000013 seconds
xi, l=0, nu=0:   0.449070 seconds (556.63 k allocations: 27.093 MiB, 6.38% gc time)
xi, l=0, nu=-2:  0.007166 seconds (144 allocations: 149.562 KiB)
Created 'out/xi.tsv'.
  q=1.1, R=0.6:	  0.745589 seconds (291.08 k allocations: 38.895 MiB, 3.28% gc time)
  q=1.1, R=0.7:	  0.840684 seconds (304.75 k allocations: 40.996 MiB)
  q=1.1, R=0.8:	  0.876648 seconds (299.14 k allocations: 40.132 MiB, 1.84% gc time)
  q=1.1, R=0.9:	  0.988234 seconds (293.57 k allocations: 39.286 MiB, 1.43% gc time)
  q=1.1, R=0.998:	 19.896715 seconds (10.67 M allocations: 823.453 MiB, 0.45% gc time)
  q=1.1, R=1.0:	  0.004851 seconds (10.24 k allocations: 768.375 KiB)

ℓ = 1000
Δℓ = 4
ΔℓRg1 = -4
N = 4096
q = 1.1
kmin = 1.0e-5
kmax = 1000.0
χ0 = 0.001
RR = RR.tsv
ℓmax = ℓmax.bin
f21 = f21.bin
kmin = 1.0e-5
kmax = 1000.0
dlrec    = 4
dlrecRg1 = -4
Output size: 1573632 bytes = 0.0014655590057373047 GiB
Output size: 786816 bytes = 0.0007327795028686523 GiB
Reading 'out/F21EllCache'...   0.001444 seconds (268 allocations: 533.531 KiB)
ellmax: 1002
lmaxcache: 1000
fell[:,1,1] = Complex{Float64}[1.7262928128202118e-224 - 4.2281979352226944e-240im, 1.7282693092099662e-224 - 4.233038955177176e-240im]
ell 1002, elapsed: 2.193450927734375e-5
ell 1001, elapsed: 0.0013399124145507812
ell 1000, elapsed: 0.0011129379272460938
ell 999, elapsed: 0.0075190067291259766
ell 998, elapsed: 0.006518125534057617
ell 44, elapsed: 0.6551759243011475
ell 43, elapsed: 0.005400896072387695
ell 42, elapsed: 0.005713939666748047
ell 41, elapsed: 0.005959987640380859
ell 40, elapsed: 0.0069980621337890625
  0.705404 seconds (4.55 k allocations: 320.359 KiB)
elapsed: 0.00883793830871582
step:          0.649713 sec (0 allocations: 0 byte, 0.0% gc time)
swapping:      0.000713 sec (0 allocations: 0 byte, 0.0% gc time)
calc_Mellell!: 0.001338 sec (0 allocations: 0 byte, 0.0% gc time)
  t0 :  0.000962 sec (0 allocations: 0 byte, 0.0% gc time)
  tm2 : 0.011257 sec (0 allocations: 0 byte, 0.0% gc time)
  tm2s: 0.000815 sec (0 allocations: 0 byte, 0.0% gc time)
  tm4 : 0.030896 sec (0 allocations: 0 byte, 0.0% gc time)
  tp2 : 0.0 sec (0 allocations: 0 byte, 0.0% gc time)
  tp2s: 0.0 sec (0 allocations: 0 byte, 0.0% gc time)
  tp4 : 0.0 sec (0 allocations: 0 byte, 0.0% gc time)
calc_wtdll!:   0.044174 sec (480 allocations: 52.5 KB, 0.0% gc time)
calc_wljj!:    0.001657 sec (1 allocations: 16 byte, 0.0% gc time)
mult_prefac!:  0.0 sec (0 allocations: 0 byte, 0.0% gc time)
convert:       0.0 sec (0 allocations: 0 byte, 0.0% gc time)
write:         0.000978 sec (0 allocations: 0 byte, 0.0% gc time)
test_rand_2f1: 0.0 sec (0 allocations: 0 byte, 0.0% gc time)
Closing outfile out/MlCache/MlCache.bin...   0.001464 seconds
  0.473654 seconds (54 allocations: 67.203 KiB)
make_phi():   0.007909 seconds (80 allocations: 276.297 KiB)
  0.003693 seconds (108 allocations: 5.812 KiB)
tskip:       1.0e-6 sec (0 allocations: 0 byte, 0.0% gc time)
tread:       0.000696 sec (19 allocations: 1.312 KB, 0.0% gc time)
tmultphi:    0.000358 sec (0 allocations: 0 byte, 0.0% gc time)
tbrfft:      0.001372 sec (96 allocations: 4.5 KB, 0.0% gc time)
tmultprefac: 0.001142 sec (0 allocations: 0 byte, 0.0% gc time)
toutfunc:    0.000279 sec (0 allocations: 0 byte, 0.0% gc time)
Created 'out/wl42_jj00.tsv'.
Created 'out/wl42_jj02.tsv'.
   Testing TwoFAST tests passed 
