Julia Version 1.4.2-pre.14
Commit 3c50b7f663 (2020-05-15 08:12 UTC)
Platform Info:
  OS: Linux (x86_64-linux-gnu)
  CPU: Intel(R) Xeon(R) Silver 4114 CPU @ 2.20GHz
  WORD_SIZE: 64
  LIBM: libopenlibm
  LLVM: libLLVM-8.0.1 (ORCJIT, skylake)
Environment:
  JULIA_DEPOT_PATH = ::/usr/local/share/julia
  JULIA_NUM_THREADS = 2

  Resolving package versions...
  Installed Reexport ───────────────────── v0.2.0
  Installed MKL_jll ────────────────────── v2019.0.117+2
  Installed FFTW_jll ───────────────────── v3.3.9+5
  Installed IntelOpenMP_jll ────────────── v2018.0.3+0
  Installed SpecialFunctions ───────────── v0.10.2
  Installed BinaryProvider ─────────────── v0.5.9
  Installed AbstractAlgebra ────────────── v0.9.1
  Installed AbstractFFTs ───────────────── v0.5.0
  Installed OpenSpecFun_jll ────────────── v0.5.3+3
  Installed LoadFlint ──────────────────── v0.1.3
  Installed CompilerSupportLibraries_jll ─ v0.3.3+0
  Installed Nemo ───────────────────────── v0.17.5
  Installed FFTW ───────────────────────── v1.2.1
  Installed TwoFAST ────────────────────── v0.1.1
   Updating `~/.julia/environments/v1.4/Project.toml`
  [0dd23c3e] + TwoFAST v0.1.1
   Updating `~/.julia/environments/v1.4/Manifest.toml`
  [c3fe647b] + AbstractAlgebra v0.9.1
  [621f4979] + AbstractFFTs v0.5.0
  [b99e7846] + BinaryProvider v0.5.9
  [e66e0078] + CompilerSupportLibraries_jll v0.3.3+0
  [7a1cc6ca] + FFTW v1.2.1
  [f5851436] + FFTW_jll v3.3.9+5
  [1d5cc7b8] + IntelOpenMP_jll v2018.0.3+0
  [472f376f] + LoadFlint v0.1.3
  [856f044c] + MKL_jll v2019.0.117+2
  [2edaba10] + Nemo v0.17.5
  [efe28fd5] + OpenSpecFun_jll v0.5.3+3
  [189a3867] + Reexport v0.2.0
  [276daf66] + SpecialFunctions v0.10.2
  [0dd23c3e] + TwoFAST v0.1.1
  [2a0f44e3] + Base64 
  [ade2ca70] + Dates 
  [8bb1440f] + DelimitedFiles 
  [8ba89e20] + Distributed 
  [b77e0a4c] + InteractiveUtils 
  [76f85450] + LibGit2 
  [8f399da3] + Libdl 
  [37e2e46d] + LinearAlgebra 
  [56ddb016] + Logging 
  [d6f4376e] + Markdown 
  [a63ad114] + Mmap 
  [44cfe95a] + Pkg 
  [de0858da] + Printf 
  [3fa0cd96] + REPL 
  [9a3f8284] + Random 
  [ea8e919c] + SHA 
  [9e88b42a] + Serialization 
  [6462fe0b] + Sockets 
  [2f01184e] + SparseArrays 
  [8dfed614] + Test 
  [cf7118a7] + UUIDs 
  [4ec0a83e] + Unicode 
   Building LoadFlint → `~/.julia/packages/LoadFlint/42zpR/deps/build.log`
   Building Nemo ─────→ `~/.julia/packages/Nemo/Pc5ui/deps/build.log`
   Building FFTW ─────→ `~/.julia/packages/FFTW/5DZuu/deps/build.log`
    Testing TwoFAST
Status `/tmp/jl_rFijEI/Manifest.toml`
  [c3fe647b] AbstractAlgebra v0.9.1
  [621f4979] AbstractFFTs v0.5.0
  [b99e7846] BinaryProvider v0.5.9
  [e66e0078] CompilerSupportLibraries_jll v0.3.3+0
  [39dd38d3] Dierckx v0.4.1
  [7a1cc6ca] FFTW v1.2.1
  [f5851436] FFTW_jll v3.3.9+5
  [1d5cc7b8] IntelOpenMP_jll v2018.0.3+0
  [472f376f] LoadFlint v0.1.3
  [856f044c] MKL_jll v2019.0.117+2
  [2edaba10] Nemo v0.17.5
  [efe28fd5] OpenSpecFun_jll v0.5.3+3
  [189a3867] Reexport v0.2.0
  [276daf66] SpecialFunctions v0.10.2
  [0dd23c3e] TwoFAST v0.1.1
  [2a0f44e3] Base64 
  [ade2ca70] Dates 
  [8bb1440f] DelimitedFiles 
  [8ba89e20] Distributed 
  [b77e0a4c] InteractiveUtils 
  [76f85450] LibGit2 
  [8f399da3] Libdl 
  [37e2e46d] LinearAlgebra 
  [56ddb016] Logging 
  [d6f4376e] Markdown 
  [a63ad114] Mmap 
  [44cfe95a] Pkg 
  [de0858da] Printf 
  [3fa0cd96] REPL 
  [9a3f8284] Random 
  [ea8e919c] SHA 
  [9e88b42a] Serialization 
  [6462fe0b] Sockets 
  [2f01184e] SparseArrays 
  [8dfed614] Test 
  [cf7118a7] UUIDs 
  [4ec0a83e] Unicode 
Testing ξ(r), ℓ=0, ν=-1 ... passed
Testing ξ(r), ℓ=0, ν=0 ... passed
Testing ξ(r), ℓ=0, ν=1 ... passed
Testing ξ(r), ℓ=0, ν=2 ... passed
Testing ξ(r), ℓ=0, ν=3 ... passed
Testing ξ(r), ℓ=1, ν=0 ... passed
Testing ξ(r), ℓ=1, ν=1 ... passed
Testing ξ(r), ℓ=1, ν=2 ... passed
Testing ξ(r), ℓ=1, ν=3 ... passed
Testing ξ(r), ℓ=2, ν=-1 ... passed
Testing ξ(r), ℓ=2, ν=0 ... passed
Testing ξ(r), ℓ=2, ν=1 ... passed
Testing ξ(r), ℓ=2, ν=2 ... passed
Testing ξ(r), ℓ=2, ν=3 ... passed
Testing ξ(r), ℓ=3, ν=-1 ... passed
Testing ξ(r), ℓ=3, ν=0 ... passed
Testing ξ(r), ℓ=3, ν=1 ... passed
Testing ξ(r), ℓ=3, ν=2 ... passed
Testing ξ(r), ℓ=3, ν=3 ... passed
Testing ξ(r), ℓ=4, ν=-1 ... passed
Testing ξ(r), ℓ=4, ν=0 ... passed
Testing ξ(r), ℓ=4, ν=1 ... passed
Testing ξ(r), ℓ=4, ν=2 ... passed
Testing ξ(r), ℓ=4, ν=3 ... passed
Testing ξ(r) ... passed
Testing ξ′(r) ... passed
Testing ξ″(r) ... passed
Calculating fmax: 
  dlrec    = 4
  dlrecRg1 = -4
  q=1.1, R=1.1:	  5.013449 seconds (1.39 M allocations: 76.346 MiB, 0.69% gc time)

  5.054453 seconds (1.41 M allocations: 77.456 MiB, 0.68% gc time)
ℓ = 1202
Δℓ = 4
ΔℓRg1 = -4
N = 1600
q = 1.1
kmin = 1.0e-5
kmax = 100000.00000000004
χ0 = 0.023029999999999995
RR = RR.tsv
ℓmax = ℓmax.bin
f21 = f21.bin
kmin = 1.0e-5
kmax = 100000.0
dlrec    = 4
dlrecRg1 = -4
Output size: 5741568 bytes = 0.005347251892089844 GiB
Output size: 51264 bytes = 4.774332046508789e-5 GiB
Reading 'out/F21EllCache'...   0.568982 seconds (320.89 k allocations: 16.472 MiB)
ellmax: 1202
lmaxcache: 1202
fell[:,1,1] = Complex{Float64}[3.9583795592771634e-52 - 9.695233714158177e-68im, 3.990121772925759e-52 - 9.772979714843386e-68im]
ell 1202, elapsed: 0.00010204315185546875
ell 1201, elapsed: 2.435163974761963
ell 1200, elapsed: 0.0005691051483154297
ell 1199, elapsed: 0.0005199909210205078
ell 1198, elapsed: 0.0005040168762207031
ell 1002, elapsed: 0.010473966598510742
ell 1001, elapsed: 0.0005049705505371094
ell 1000, elapsed: 0.0005280971527099609
ell 999, elapsed: 0.0004849433898925781
ell 998, elapsed: 0.0004830360412597656
ell 902, elapsed: 0.005113124847412109
ell 901, elapsed: 0.0005049705505371094
ell 900, elapsed: 0.00048613548278808594
ell 899, elapsed: 0.0005018711090087891
ell 898, elapsed: 0.0004820823669433594
ell 802, elapsed: 0.005263090133666992
ell 801, elapsed: 0.0005180835723876953
ell 800, elapsed: 0.0005369186401367188
ell 799, elapsed: 0.0005140304565429688
ell 798, elapsed: 0.0004980564117431641
ell 702, elapsed: 0.005259990692138672
ell 701, elapsed: 0.0005209445953369141
ell 700, elapsed: 0.0005540847778320312
ell 699, elapsed: 0.0004780292510986328
ell 698, elapsed: 0.0004987716674804688
ell 602, elapsed: 0.005131959915161133
ell 601, elapsed: 0.0005130767822265625
ell 600, elapsed: 0.0004830360412597656
ell 599, elapsed: 0.0004909038543701172
ell 598, elapsed: 0.0004730224609375
ell 502, elapsed: 0.008210897445678711
ell 501, elapsed: 0.0005190372467041016
ell 500, elapsed: 0.0004680156707763672
ell 499, elapsed: 0.0004680156707763672
ell 498, elapsed: 0.00046896934509277344
ell 402, elapsed: 0.00790715217590332
ell 401, elapsed: 0.0004870891571044922
ell 400, elapsed: 0.0004639625549316406
ell 399, elapsed: 0.0004649162292480469
ell 398, elapsed: 0.0004649162292480469
ell 302, elapsed: 0.008036136627197266
ell 301, elapsed: 0.0004999637603759766
ell 300, elapsed: 0.00047016143798828125
ell 299, elapsed: 0.0004608631134033203
ell 298, elapsed: 0.00045800209045410156
ell 202, elapsed: 0.004851102828979492
ell 201, elapsed: 0.0005159378051757812
ell 200, elapsed: 0.0004711151123046875
ell 199, elapsed: 0.0035398006439208984
ell 198, elapsed: 0.0004868507385253906
ell 152, elapsed: 0.002674102783203125
ell 151, elapsed: 0.0005278587341308594
ell 150, elapsed: 0.00046706199645996094
ell 149, elapsed: 0.0004749298095703125
ell 148, elapsed: 0.00047278404235839844
ell 127, elapsed: 0.001600027084350586
ell 126, elapsed: 0.0004909038543701172
ell 125, elapsed: 0.00048804283142089844
ell 124, elapsed: 0.0004999637603759766
ell 123, elapsed: 0.00047588348388671875
ell 114, elapsed: 0.0008580684661865234
ell 113, elapsed: 0.0004658699035644531
ell 112, elapsed: 0.0004799365997314453
ell 111, elapsed: 0.0004711151123046875
ell 110, elapsed: 0.00048613548278808594
ell 102, elapsed: 0.0009658336639404297
ell 101, elapsed: 0.0004849433898925781
ell 100, elapsed: 0.00047898292541503906
ell 99, elapsed: 0.00047588348388671875
ell 98, elapsed: 0.0004749298095703125
ell 97, elapsed: 0.0005278587341308594
ell 96, elapsed: 0.0006000995635986328
ell 95, elapsed: 0.0005578994750976562
ell 94, elapsed: 0.0006568431854248047
ell 93, elapsed: 0.0005180835723876953
ell 92, elapsed: 0.0005769729614257812
ell 91, elapsed: 0.0005178451538085938
ell 90, elapsed: 0.0005819797515869141
ell 89, elapsed: 0.0004918575286865234
ell 88, elapsed: 0.0005879402160644531
ell 87, elapsed: 0.0004971027374267578
ell 86, elapsed: 0.0005710124969482422
ell 85, elapsed: 0.0005180835723876953
ell 84, elapsed: 0.0006361007690429688
ell 83, elapsed: 0.0005571842193603516
ell 82, elapsed: 0.0005481243133544922
ell 81, elapsed: 0.0004968643188476562
ell 80, elapsed: 0.0006899833679199219
ell 79, elapsed: 0.0005729198455810547
ell 78, elapsed: 0.0006279945373535156
ell 77, elapsed: 0.0005540847778320312
ell 76, elapsed: 0.0006301403045654297
ell 75, elapsed: 0.0005581378936767578
ell 74, elapsed: 0.0006239414215087891
ell 73, elapsed: 0.0005359649658203125
ell 72, elapsed: 0.0006170272827148438
ell 71, elapsed: 0.00055694580078125
ell 70, elapsed: 0.0006170272827148438
ell 69, elapsed: 0.0005462169647216797
ell 68, elapsed: 0.0006070137023925781
ell 67, elapsed: 0.0005409717559814453
ell 66, elapsed: 0.0006151199340820312
ell 65, elapsed: 0.0005919933319091797
ell 64, elapsed: 0.0006771087646484375
ell 63, elapsed: 0.0006210803985595703
ell 62, elapsed: 0.0006411075592041016
ell 61, elapsed: 0.0005919933319091797
ell 60, elapsed: 0.0006759166717529297
ell 59, elapsed: 0.000537872314453125
ell 58, elapsed: 0.0006010532379150391
ell 57, elapsed: 0.0005578994750976562
ell 56, elapsed: 0.000579833984375
ell 55, elapsed: 0.0005190372467041016
ell 54, elapsed: 0.0006189346313476562
ell 53, elapsed: 0.0005910396575927734
ell 52, elapsed: 0.0006101131439208984
ell 51, elapsed: 0.0005290508270263672
ell 50, elapsed: 0.0005829334259033203
ell 49, elapsed: 0.0005328655242919922
ell 48, elapsed: 0.0006079673767089844
ell 47, elapsed: 0.0005521774291992188
ell 46, elapsed: 0.0005869865417480469
ell 45, elapsed: 0.0005371570587158203
ell 44, elapsed: 0.0006039142608642578
ell 43, elapsed: 0.0005440711975097656
ell 42, elapsed: 0.0006091594696044922
ell 41, elapsed: 0.0005619525909423828
ell 40, elapsed: 0.0005807876586914062
ell 39, elapsed: 0.0005199909210205078
ell 38, elapsed: 0.0005888938903808594
ell 37, elapsed: 0.0005249977111816406
ell 36, elapsed: 0.0006060600280761719
ell 35, elapsed: 0.0005857944488525391
ell 34, elapsed: 0.0006601810455322266
ell 33, elapsed: 0.000537872314453125
ell 32, elapsed: 0.0005919933319091797
ell 31, elapsed: 0.0005328655242919922
ell 30, elapsed: 0.0005991458892822266
ell 29, elapsed: 0.0005481243133544922
ell 28, elapsed: 0.000621795654296875
ell 27, elapsed: 0.000537872314453125
ell 26, elapsed: 0.0005950927734375
ell 25, elapsed: 0.0005369186401367188
ell 24, elapsed: 0.0006039142608642578
ell 23, elapsed: 0.0005431175231933594
ell 22, elapsed: 0.0006198883056640625
ell 21, elapsed: 0.0005879402160644531
ell 20, elapsed: 0.0006561279296875
ell 19, elapsed: 0.0005419254302978516
ell 18, elapsed: 0.0006060600280761719
ell 17, elapsed: 0.0005419254302978516
ell 16, elapsed: 0.000614166259765625
ell 15, elapsed: 0.0005350112915039062
ell 14, elapsed: 0.0006098747253417969
ell 13, elapsed: 0.0006690025329589844
ell 12, elapsed: 0.0006499290466308594
ell 11, elapsed: 0.000598907470703125
ell 10, elapsed: 0.0006818771362304688
ell 9, elapsed: 0.0005950927734375
ell 8, elapsed: 0.0006649494171142578
ell 7, elapsed: 0.0006020069122314453
ell 6, elapsed: 0.0007319450378417969
ell 5, elapsed: 0.0005950927734375
ell 4, elapsed: 0.0007281303405761719
ell 3, elapsed: 0.0005781650543212891
ell 2, elapsed: 0.0006709098815917969
ell 1, elapsed: 0.0006070137023925781
ell 0, elapsed: 0.0006630420684814453
  3.316369 seconds (2.03 M allocations: 98.016 MiB, 4.80% gc time)
elapsed: 0.0013859272003173828
step:          0.967535 sec (593.76 k allocations: 28.701 MB, 13.52% gc time)
swapping:      0.000568 sec (0 allocations: 0 byte, 0.0% gc time)
calc_Mellell!: 0.576727 sec (389.77 k allocations: 19.054 MB, 4.9% gc time)
  t0 :  0.0 sec (0 allocations: 0 byte, 0.0% gc time)
  tm2 : 0.0 sec (0 allocations: 0 byte, 0.0% gc time)
  tm2s: 0.0 sec (0 allocations: 0 byte, 0.0% gc time)
  tm4 : 0.0 sec (0 allocations: 0 byte, 0.0% gc time)
  tp2 : 0.0 sec (0 allocations: 0 byte, 0.0% gc time)
  tp2s: 0.0 sec (0 allocations: 0 byte, 0.0% gc time)
  tp4 : 0.0 sec (0 allocations: 0 byte, 0.0% gc time)
calc_wtdll!:   1.028483 sec (526.101 k allocations: 26.389 MB, 0.0% gc time)
calc_wljj!:    0.003459 sec (6 allocations: 96 byte, 0.0% gc time)
mult_prefac!:  0.0 sec (0 allocations: 0 byte, 0.0% gc time)
convert:       0.0 sec (0 allocations: 0 byte, 0.0% gc time)
write:         0.004279 sec (0 allocations: 0 byte, 0.0% gc time)
test_rand_2f1: 0.0 sec (0 allocations: 0 byte, 0.0% gc time)
Closing outfile out/Ml21-cache.bin...   0.000102 seconds
  3.287468 seconds (866.09 k allocations: 82.176 MiB, 2.49% gc time)
make_phi():   0.033081 seconds (8.33 k allocations: 250.500 KiB)
  0.256150 seconds (177.70 k allocations: 11.487 MiB)
tskip:       4.7e-5 sec (0 allocations: 0 byte, 0.0% gc time)
tread:       0.003008 sec (19 allocations: 2.172 KB, 0.0% gc time)
tmultphi:    0.033706 sec (26.022 k allocations: 1.338 MB, 0.0% gc time)
tbrfft:      0.058805 sec (56.879 k allocations: 5.626 MB, 0.0% gc time)
tmultprefac: 0.004165 sec (0 allocations: 0 byte, 0.0% gc time)
toutfunc:    0.156282 sec (94.127 k allocations: 4.452 MB, 0.0% gc time)
Testing R=1.1 ... passed
Calculating fmax: 
  dlrec    = 4
  dlrecRg1 = -4
  q=1.1, R=1.0:	  0.001571 seconds (4.00 k allocations: 300.375 KiB)

  0.001718 seconds (4.04 k allocations: 334.734 KiB)
ℓ = 1202
Δℓ = 4
ΔℓRg1 = -4
N = 1600
q = 1.1
kmin = 1.0e-5
kmax = 100000.00000000004
χ0 = 0.023029999999999995
RR = RR.tsv
ℓmax = ℓmax.bin
f21 = f21.bin
kmin = 1.0e-5
kmax = 100000.0
dlrec    = 4
dlrecRg1 = -4
Output size: 61465536 bytes = 0.05724424123764038 GiB
Output size: 51264 bytes = 4.774332046508789e-5 GiB
Reading 'out/F21EllCache'...   0.001057 seconds (267 allocations: 84.656 KiB)
ellmax: 1202
lmaxcache: 1202
fell[:,1,1] = Complex{Float64}[809.6031528389767 - 1.9829558194077161e-13im, 0.0 + 0.0im]
ell 1202, elapsed: 2.5033950805664062e-5
ell 1201, elapsed: 0.0165860652923584
ell 1200, elapsed: 0.0005619525909423828
ell 1199, elapsed: 0.00055694580078125
ell 1198, elapsed: 0.0005581378936767578
ell 1197, elapsed: 0.0009829998016357422
ell 1196, elapsed: 0.0006270408630371094
ell 1195, elapsed: 0.0006589889526367188
ell 1194, elapsed: 0.0005528926849365234
ell 1193, elapsed: 0.0006990432739257812
ell 1192, elapsed: 0.0010120868682861328
ell 1191, elapsed: 0.0006630420684814453
ell 1190, elapsed: 0.00061798095703125
ell 1189, elapsed: 0.0006990432739257812
ell 1188, elapsed: 0.0006270408630371094
ell 1187, elapsed: 0.0010890960693359375
ell 1186, elapsed: 0.0005059242248535156
ell 1185, elapsed: 0.0007021427154541016
ell 1184, elapsed: 0.0005009174346923828
ell 1183, elapsed: 0.0006148815155029297
ell 1182, elapsed: 0.0006182193756103516
ell 1181, elapsed: 0.0011658668518066406
ell 1180, elapsed: 0.0006248950958251953
ell 1179, elapsed: 0.0007078647613525391
ell 1178, elapsed: 0.0006232261657714844
ell 1177, elapsed: 0.0007040500640869141
ell 1176, elapsed: 0.0009958744049072266
ell 1175, elapsed: 0.0005519390106201172
ell 1174, elapsed: 0.0005619525909423828
ell 1173, elapsed: 0.000701904296875
ell 1172, elapsed: 0.0006239414215087891
ell 1171, elapsed: 0.0008211135864257812
ell 1170, elapsed: 0.0006058216094970703
ell 1169, elapsed: 0.0007090568542480469
ell 1168, elapsed: 0.0006270408630371094
ell 1167, elapsed: 0.0007040500640869141
ell 1166, elapsed: 0.0006110668182373047
ell 1165, elapsed: 0.0008349418640136719
ell 1164, elapsed: 0.0006439685821533203
ell 1163, elapsed: 0.0007770061492919922
ell 1162, elapsed: 0.0008158683776855469
ell 1161, elapsed: 0.0007340908050537109
ell 1160, elapsed: 0.0005199909210205078
ell 1159, elapsed: 0.0006389617919921875
ell 1158, elapsed: 0.0006291866302490234
ell 1157, elapsed: 0.0007100105285644531
ell 1156, elapsed: 0.0006220340728759766
ell 1155, elapsed: 0.001068115234375
ell 1154, elapsed: 0.0006349086761474609
ell 1153, elapsed: 0.0007138252258300781
ell 1152, elapsed: 0.0006270408630371094
ell 1151, elapsed: 0.0006439685821533203
ell 1150, elapsed: 0.0005879402160644531
ell 1149, elapsed: 0.0006129741668701172
ell 1148, elapsed: 0.0005011558532714844
ell 1147, elapsed: 0.0007050037384033203
ell 1146, elapsed: 0.0005590915679931641
ell 1145, elapsed: 0.0005960464477539062
ell 1144, elapsed: 0.0006420612335205078
ell 1143, elapsed: 0.0005309581756591797
ell 1142, elapsed: 0.0004050731658935547
ell 1141, elapsed: 0.0004601478576660156
ell 1140, elapsed: 0.00038886070251464844
ell 1139, elapsed: 0.00045299530029296875
ell 1138, elapsed: 0.00039696693420410156
ell 1137, elapsed: 0.00045418739318847656
ell 1136, elapsed: 0.0003960132598876953
ell 1135, elapsed: 0.0006999969482421875
ell 1134, elapsed: 0.0004830360412597656
ell 1133, elapsed: 0.0004551410675048828
ell 1132, elapsed: 0.0003960132598876953
ell 1131, elapsed: 0.0004558563232421875
ell 1130, elapsed: 0.0003948211669921875
ell 1129, elapsed: 0.0004551410675048828
ell 1128, elapsed: 0.00039505958557128906
ell 1127, elapsed: 0.0006899833679199219
ell 1126, elapsed: 0.0005049705505371094
ell 1125, elapsed: 0.0004589557647705078
ell 1124, elapsed: 0.0003960132598876953
ell 1123, elapsed: 0.0004489421844482422
ell 1122, elapsed: 0.00039505958557128906
ell 1121, elapsed: 0.00045800209045410156
ell 1120, elapsed: 0.0003948211669921875
ell 1119, elapsed: 0.0005431175231933594
ell 1118, elapsed: 0.0003960132598876953
ell 1117, elapsed: 0.0004570484161376953
ell 1116, elapsed: 0.00039505958557128906
ell 1115, elapsed: 0.0004589557647705078
ell 1114, elapsed: 0.0003941059112548828
ell 1113, elapsed: 0.000453948974609375
ell 1112, elapsed: 0.0003960132598876953
ell 1111, elapsed: 0.0005450248718261719
ell 1110, elapsed: 0.0005919933319091797
ell 1109, elapsed: 0.0005590915679931641
ell 1108, elapsed: 0.0003979206085205078
ell 1107, elapsed: 0.0004611015319824219
ell 1106, elapsed: 0.0003960132598876953
ell 1105, elapsed: 0.00045800209045410156
ell 1104, elapsed: 0.0003972053527832031
ell 1103, elapsed: 0.0005509853363037109
ell 1102, elapsed: 0.00039887428283691406
ell 1101, elapsed: 0.000453948974609375
ell 1100, elapsed: 0.0003941059112548828
ell 1099, elapsed: 0.00045800209045410156
ell 1098, elapsed: 0.00039505958557128906
ell 1097, elapsed: 0.00045800209045410156
ell 1096, elapsed: 0.0003960132598876953
ell 1095, elapsed: 0.0004589557647705078
ell 1094, elapsed: 0.00046706199645996094
ell 1093, elapsed: 0.0004820823669433594
ell 1092, elapsed: 0.0003998279571533203
ell 1091, elapsed: 0.0004570484161376953
ell 1090, elapsed: 0.00039577484130859375
ell 1089, elapsed: 0.0004589557647705078
ell 1088, elapsed: 0.00039696693420410156
ell 1087, elapsed: 0.00045800209045410156
ell 1086, elapsed: 0.0004048347473144531
ell 1085, elapsed: 0.0006508827209472656
ell 1084, elapsed: 0.00046896934509277344
ell 1083, elapsed: 0.00046515464782714844
ell 1082, elapsed: 0.00039696693420410156
ell 1081, elapsed: 0.0004570484161376953
ell 1080, elapsed: 0.00039505958557128906
ell 1079, elapsed: 0.0004611015319824219
ell 1078, elapsed: 0.0003960132598876953
ell 1077, elapsed: 0.00048804283142089844
ell 1076, elapsed: 0.0003981590270996094
ell 1075, elapsed: 0.0004570484161376953
ell 1074, elapsed: 0.00039696693420410156
ell 1073, elapsed: 0.0004620552062988281
ell 1072, elapsed: 0.0003960132598876953
ell 1071, elapsed: 0.00045299530029296875
ell 1070, elapsed: 0.0003960132598876953
ell 1069, elapsed: 0.0004849433898925781
ell 1068, elapsed: 0.0003991127014160156
ell 1067, elapsed: 0.00045490264892578125
ell 1066, elapsed: 0.00039696693420410156
ell 1065, elapsed: 0.0004589557647705078
ell 1064, elapsed: 0.00039696693420410156
ell 1063, elapsed: 0.0004649162292480469
ell 1062, elapsed: 0.0004000663757324219
ell 1061, elapsed: 0.00045490264892578125
ell 1060, elapsed: 0.0004100799560546875
ell 1059, elapsed: 0.0006401538848876953
ell 1058, elapsed: 0.0004680156707763672
ell 1057, elapsed: 0.0004620552062988281
ell 1056, elapsed: 0.0004010200500488281
ell 1055, elapsed: 0.0004649162292480469
ell 1054, elapsed: 0.0003981590270996094
ell 1053, elapsed: 0.0004940032958984375
ell 1052, elapsed: 0.00041484832763671875
ell 1051, elapsed: 0.0004711151123046875
ell 1050, elapsed: 0.00040602684020996094
ell 1049, elapsed: 0.0004627704620361328
ell 1048, elapsed: 0.0004010200500488281
ell 1047, elapsed: 0.0004730224609375
ell 1046, elapsed: 0.00040793418884277344
ell 1045, elapsed: 0.00047087669372558594
ell 1044, elapsed: 0.00040411949157714844
ell 1043, elapsed: 0.0004799365997314453
ell 1042, elapsed: 0.00040602684020996094
ell 1041, elapsed: 0.0004658699035644531
ell 1040, elapsed: 0.00040721893310546875
ell 1039, elapsed: 0.0004699230194091797
ell 1038, elapsed: 0.00041794776916503906
ell 1037, elapsed: 0.0004711151123046875
ell 1036, elapsed: 0.00040793418884277344
ell 1035, elapsed: 0.00048613548278808594
ell 1034, elapsed: 0.0004038810729980469
ell 1033, elapsed: 0.0004658699035644531
ell 1032, elapsed: 0.0004038810729980469
ell 1031, elapsed: 0.00046515464782714844
ell 1030, elapsed: 0.0004019737243652344
ell 1029, elapsed: 0.0004589557647705078
ell 1028, elapsed: 0.00040602684020996094
ell 1027, elapsed: 0.00047206878662109375
ell 1026, elapsed: 0.00041794776916503906
ell 1025, elapsed: 0.0004680156707763672
ell 1024, elapsed: 0.0004019737243652344
ell 1023, elapsed: 0.0004639625549316406
ell 1022, elapsed: 0.00040602684020996094
ell 1021, elapsed: 0.00046706199645996094
ell 1020, elapsed: 0.00041103363037109375
ell 1019, elapsed: 0.0004661083221435547
ell 1018, elapsed: 0.0004611015319824219
ell 1017, elapsed: 0.0004711151123046875
ell 1016, elapsed: 0.0004019737243652344
ell 1015, elapsed: 0.00046896934509277344
ell 1014, elapsed: 0.000408172607421875
ell 1013, elapsed: 0.00047397613525390625
ell 1012, elapsed: 0.000408172607421875
ell 1011, elapsed: 0.00046896934509277344
ell 1010, elapsed: 0.00040793418884277344
ell 1009, elapsed: 0.0004820823669433594
ell 1008, elapsed: 0.0004038810729980469
ell 1007, elapsed: 0.0004630088806152344
ell 1006, elapsed: 0.0003998279571533203
ell 1005, elapsed: 0.0004620552062988281
ell 1004, elapsed: 0.0004050731658935547
ell 1003, elapsed: 0.00046896934509277344
ell 1002, elapsed: 0.00040793418884277344
ell 1001, elapsed: 0.00048804283142089844
ell 1000, elapsed: 0.00040912628173828125
ell 999, elapsed: 0.0004711151123046875
ell 998, elapsed: 0.0004029273986816406
ell 997, elapsed: 0.0004639625549316406
ell 996, elapsed: 0.0004010200500488281
ell 995, elapsed: 0.0004611015319824219
ell 994, elapsed: 0.0004010200500488281
ell 993, elapsed: 0.0004661083221435547
ell 992, elapsed: 0.0004150867462158203
ell 991, elapsed: 0.0004668235778808594
ell 990, elapsed: 0.00040411949157714844
ell 989, elapsed: 0.0004639625549316406
ell 988, elapsed: 0.0004048347473144531
ell 987, elapsed: 0.0004591941833496094
ell 986, elapsed: 0.0004069805145263672
ell 985, elapsed: 0.0004699230194091797
ell 984, elapsed: 0.0004029273986816406
ell 983, elapsed: 0.0004811286926269531
ell 982, elapsed: 0.0004050731658935547
ell 981, elapsed: 0.0004711151123046875
ell 980, elapsed: 0.00040411949157714844
ell 979, elapsed: 0.00046706199645996094
ell 978, elapsed: 0.0004010200500488281
ell 977, elapsed: 0.00045800209045410156
ell 976, elapsed: 0.0004069805145263672
ell 975, elapsed: 0.0004851818084716797
ell 974, elapsed: 0.00040602684020996094
ell 973, elapsed: 0.0004699230194091797
ell 972, elapsed: 0.0004019737243652344
ell 971, elapsed: 0.0004699230194091797
ell 970, elapsed: 0.0004050731658935547
ell 969, elapsed: 0.00046896934509277344
ell 968, elapsed: 0.0004050731658935547
ell 967, elapsed: 0.00046706199645996094
ell 966, elapsed: 0.00041604042053222656
ell 965, elapsed: 0.00047016143798828125
ell 964, elapsed: 0.0003991127014160156
ell 963, elapsed: 0.0004649162292480469
ell 962, elapsed: 0.0004031658172607422
ell 961, elapsed: 0.0004649162292480469
ell 960, elapsed: 0.0004000663757324219
ell 959, elapsed: 0.0004630088806152344
ell 958, elapsed: 0.0004019737243652344
ell 957, elapsed: 0.00046896934509277344
ell 956, elapsed: 0.0004000663757324219
ell 955, elapsed: 0.0004649162292480469
ell 954, elapsed: 0.0004000663757324219
ell 953, elapsed: 0.0004630088806152344
ell 952, elapsed: 0.0004069805145263672
ell 951, elapsed: 0.0004661083221435547
ell 950, elapsed: 0.0004038810729980469
ell 949, elapsed: 0.0004780292510986328
ell 948, elapsed: 0.0004029273986816406
ell 947, elapsed: 0.00046896934509277344
ell 946, elapsed: 0.0004069805145263672
ell 945, elapsed: 0.0004649162292480469
ell 944, elapsed: 0.0004069805145263672
ell 943, elapsed: 0.00046706199645996094
ell 942, elapsed: 0.0004088878631591797
ell 941, elapsed: 0.000476837158203125
ell 940, elapsed: 0.0005810260772705078
ell 939, elapsed: 0.0005431175231933594
ell 938, elapsed: 0.0004050731658935547
ell 937, elapsed: 0.0004711151123046875
ell 936, elapsed: 0.0004038810729980469
ell 935, elapsed: 0.0004699230194091797
ell 934, elapsed: 0.0004048347473144531
ell 933, elapsed: 0.0004889965057373047
ell 932, elapsed: 0.00042819976806640625
ell 931, elapsed: 0.0004780292510986328
ell 930, elapsed: 0.00040793418884277344
ell 929, elapsed: 0.0004780292510986328
ell 928, elapsed: 0.0004019737243652344
ell 927, elapsed: 0.0004630088806152344
ell 926, elapsed: 0.0004019737243652344
ell 925, elapsed: 0.0004780292510986328
ell 924, elapsed: 0.00041794776916503906
ell 923, elapsed: 0.0004839897155761719
ell 922, elapsed: 0.0004019737243652344
ell 921, elapsed: 0.00047087669372558594
ell 920, elapsed: 0.00039505958557128906
ell 919, elapsed: 0.0004639625549316406
ell 918, elapsed: 0.0004069805145263672
ell 917, elapsed: 0.0004780292510986328
ell 916, elapsed: 0.0004069805145263672
ell 915, elapsed: 0.0004928112030029297
ell 914, elapsed: 0.0005939006805419922
ell 913, elapsed: 0.0005409717559814453
ell 912, elapsed: 0.0004019737243652344
ell 911, elapsed: 0.00045800209045410156
ell 910, elapsed: 0.0003979206085205078
ell 909, elapsed: 0.0004620552062988281
ell 908, elapsed: 0.00039505958557128906
ell 907, elapsed: 0.0004730224609375
ell 906, elapsed: 0.00039696693420410156
ell 905, elapsed: 0.0004508495330810547
ell 904, elapsed: 0.00039696693420410156
ell 903, elapsed: 0.0004570484161376953
ell 902, elapsed: 0.00039696693420410156
ell 901, elapsed: 0.00045299530029296875
ell 900, elapsed: 0.00039696693420410156
ell 899, elapsed: 0.00046181678771972656
ell 898, elapsed: 0.00040793418884277344
ell 897, elapsed: 0.0004620552062988281
ell 896, elapsed: 0.00039386749267578125
ell 895, elapsed: 0.0004601478576660156
ell 894, elapsed: 0.0003960132598876953
ell 893, elapsed: 0.00045490264892578125
ell 892, elapsed: 0.0003960132598876953
ell 891, elapsed: 0.0004558563232421875
ell 890, elapsed: 0.0004100799560546875
ell 889, elapsed: 0.00046515464782714844
ell 888, elapsed: 0.0003979206085205078
ell 887, elapsed: 0.0004642009735107422
ell 886, elapsed: 0.00039887428283691406
ell 885, elapsed: 0.0004611015319824219
ell 884, elapsed: 0.00039887428283691406
ell 883, elapsed: 0.0004601478576660156
ell 882, elapsed: 0.0004010200500488281
ell 881, elapsed: 0.00047588348388671875
ell 880, elapsed: 0.0003998279571533203
ell 879, elapsed: 0.0004601478576660156
ell 878, elapsed: 0.0004000663757324219
ell 877, elapsed: 0.0004589557647705078
ell 876, elapsed: 0.0004000663757324219
ell 875, elapsed: 0.0004620552062988281
ell 874, elapsed: 0.0003991127014160156
ell 873, elapsed: 0.0004520416259765625
ell 872, elapsed: 0.0004119873046875
ell 871, elapsed: 0.0006649494171142578
ell 870, elapsed: 0.0006198883056640625
ell 869, elapsed: 0.0007081031799316406
ell 868, elapsed: 0.0006191730499267578
ell 867, elapsed: 0.0007050037384033203
ell 866, elapsed: 0.0006399154663085938
ell 865, elapsed: 0.0005819797515869141
ell 864, elapsed: 0.0003840923309326172
ell 863, elapsed: 0.00044417381286621094
ell 862, elapsed: 0.0003838539123535156
ell 861, elapsed: 0.00045013427734375
ell 860, elapsed: 0.00039505958557128906
ell 859, elapsed: 0.0008120536804199219
ell 858, elapsed: 0.0006189346313476562
ell 857, elapsed: 0.0007040500640869141
ell 856, elapsed: 0.0004200935363769531
ell 855, elapsed: 0.00045013427734375
ell 854, elapsed: 0.0003859996795654297
ell 853, elapsed: 0.00044918060302734375
ell 852, elapsed: 0.0004830360412597656
ell 851, elapsed: 0.0005118846893310547
ell 850, elapsed: 0.0005419254302978516
ell 849, elapsed: 0.0005371570587158203
ell 848, elapsed: 0.0003879070281982422
ell 847, elapsed: 0.00044989585876464844
ell 846, elapsed: 0.0003848075866699219
ell 845, elapsed: 0.00045299530029296875
ell 844, elapsed: 0.0006620883941650391
ell 843, elapsed: 0.0005280971527099609
ell 842, elapsed: 0.0003840923309326172
ell 841, elapsed: 0.0005509853363037109
ell 840, elapsed: 0.0005199909210205078
ell 839, elapsed: 0.0004620552062988281
ell 838, elapsed: 0.0003838539123535156
ell 837, elapsed: 0.00045299530029296875
ell 836, elapsed: 0.0003941059112548828
ell 835, elapsed: 0.00045609474182128906
ell 834, elapsed: 0.0003838539123535156
ell 833, elapsed: 0.000453948974609375
ell 832, elapsed: 0.0003871917724609375
ell 831, elapsed: 0.0004439353942871094
ell 830, elapsed: 0.0003809928894042969
ell 829, elapsed: 0.0006501674652099609
ell 828, elapsed: 0.0007901191711425781
ell 827, elapsed: 0.0007009506225585938
ell 826, elapsed: 0.0005629062652587891
ell 825, elapsed: 0.0004639625549316406
ell 824, elapsed: 0.0003948211669921875
ell 823, elapsed: 0.0005948543548583984
ell 822, elapsed: 0.0008099079132080078
ell 821, elapsed: 0.0006921291351318359
ell 820, elapsed: 0.00042891502380371094
ell 819, elapsed: 0.0004570484161376953
ell 818, elapsed: 0.0003840923309326172
ell 817, elapsed: 0.0004470348358154297
ell 816, elapsed: 0.0005319118499755859
ell 815, elapsed: 0.0006771087646484375
ell 814, elapsed: 0.0003809928894042969
ell 813, elapsed: 0.0004489421844482422
ell 812, elapsed: 0.0003819465637207031
ell 811, elapsed: 0.00044798851013183594
ell 810, elapsed: 0.0004870891571044922
ell 809, elapsed: 0.0005869865417480469
ell 808, elapsed: 0.0005400180816650391
ell 807, elapsed: 0.0006458759307861328
ell 806, elapsed: 0.00037598609924316406
ell 805, elapsed: 0.0006229877471923828
ell 804, elapsed: 0.0004558563232421875
ell 803, elapsed: 0.0004489421844482422
ell 802, elapsed: 0.0003960132598876953
ell 801, elapsed: 0.0004642009735107422
ell 800, elapsed: 0.0005898475646972656
ell 799, elapsed: 0.0005950927734375
ell 798, elapsed: 0.0003859996795654297
ell 797, elapsed: 0.0004489421844482422
ell 796, elapsed: 0.0003871917724609375
ell 795, elapsed: 0.0004649162292480469
ell 794, elapsed: 0.0003898143768310547
ell 793, elapsed: 0.0004699230194091797
ell 792, elapsed: 0.0005059242248535156
ell 791, elapsed: 0.0004620552062988281
ell 790, elapsed: 0.0003848075866699219
ell 789, elapsed: 0.0006399154663085938
ell 788, elapsed: 0.0004470348358154297
ell 787, elapsed: 0.0004551410675048828
ell 786, elapsed: 0.0005779266357421875
ell 785, elapsed: 0.0007960796356201172
ell 784, elapsed: 0.0003979206085205078
ell 783, elapsed: 0.00045490264892578125
ell 782, elapsed: 0.00039315223693847656
ell 781, elapsed: 0.0004620552062988281
ell 780, elapsed: 0.00039696693420410156
ell 779, elapsed: 0.0004551410675048828
ell 778, elapsed: 0.00039196014404296875
ell 777, elapsed: 0.00045609474182128906
ell 776, elapsed: 0.0004961490631103516
ell 775, elapsed: 0.0004639625549316406
ell 774, elapsed: 0.0003979206085205078
ell 773, elapsed: 0.0004589557647705078
ell 772, elapsed: 0.0003960132598876953
ell 771, elapsed: 0.0004620552062988281
ell 770, elapsed: 0.0004680156707763672
ell 769, elapsed: 0.0007188320159912109
ell 768, elapsed: 0.00043201446533203125
ell 767, elapsed: 0.0004668235778808594
ell 766, elapsed: 0.00039887428283691406
ell 765, elapsed: 0.0004620552062988281
ell 764, elapsed: 0.00039505958557128906
ell 763, elapsed: 0.00045609474182128906
ell 762, elapsed: 0.00039696693420410156
ell 761, elapsed: 0.00045990943908691406
ell 760, elapsed: 0.0005290508270263672
ell 759, elapsed: 0.0004680156707763672
ell 758, elapsed: 0.0003979206085205078
ell 757, elapsed: 0.00045990943908691406
ell 756, elapsed: 0.0003991127014160156
ell 755, elapsed: 0.0004589557647705078
ell 754, elapsed: 0.00039887428283691406
ell 753, elapsed: 0.00045800209045410156
ell 752, elapsed: 0.0004119873046875
ell 751, elapsed: 0.0004661083221435547
ell 750, elapsed: 0.0003991127014160156
ell 749, elapsed: 0.00045990943908691406
ell 748, elapsed: 0.0003898143768310547
ell 747, elapsed: 0.00046181678771972656
ell 746, elapsed: 0.00039696693420410156
ell 745, elapsed: 0.000453948974609375
ell 744, elapsed: 0.0004010200500488281
ell 743, elapsed: 0.0006918907165527344
ell 742, elapsed: 0.0004069805145263672
ell 741, elapsed: 0.00046896934509277344
ell 740, elapsed: 0.0004048347473144531
ell 739, elapsed: 0.0004649162292480469
ell 738, elapsed: 0.0004050731658935547
ell 737, elapsed: 0.0004699230194091797
ell 736, elapsed: 0.0004010200500488281
ell 735, elapsed: 0.0007741451263427734
ell 734, elapsed: 0.00040793418884277344
ell 733, elapsed: 0.0004658699035644531
ell 732, elapsed: 0.00048804283142089844
ell 731, elapsed: 0.0007078647613525391
ell 730, elapsed: 0.000518798828125
ell 729, elapsed: 0.0004570484161376953
ell 728, elapsed: 0.0004780292510986328
ell 727, elapsed: 0.0005888938903808594
ell 726, elapsed: 0.00047588348388671875
ell 725, elapsed: 0.00045490264892578125
ell 724, elapsed: 0.0003910064697265625
ell 723, elapsed: 0.00044608116149902344
ell 722, elapsed: 0.0005049705505371094
ell 721, elapsed: 0.0005769729614257812
ell 720, elapsed: 0.0004088878631591797
ell 719, elapsed: 0.0004699230194091797
ell 718, elapsed: 0.0005669593811035156
ell 717, elapsed: 0.0007159709930419922
ell 716, elapsed: 0.0005450248718261719
ell 715, elapsed: 0.0004630088806152344
ell 714, elapsed: 0.0003960132598876953
ell 713, elapsed: 0.0005559921264648438
ell 712, elapsed: 0.0004010200500488281
ell 711, elapsed: 0.0006010532379150391
ell 710, elapsed: 0.0006210803985595703
ell 709, elapsed: 0.0007021427154541016
ell 708, elapsed: 0.0006108283996582031
ell 707, elapsed: 0.0008308887481689453
ell 706, elapsed: 0.0006120204925537109
ell 705, elapsed: 0.0007040500640869141
ell 704, elapsed: 0.00061798095703125
ell 703, elapsed: 0.0006909370422363281
ell 702, elapsed: 0.00061798095703125
ell 701, elapsed: 0.0007100105285644531
ell 700, elapsed: 0.0006079673767089844
ell 699, elapsed: 0.0006949901580810547
ell 698, elapsed: 0.0006082057952880859
ell 697, elapsed: 0.0006949901580810547
ell 696, elapsed: 0.0009958744049072266
ell 695, elapsed: 0.0007021427154541016
ell 694, elapsed: 0.0005400180816650391
ell 693, elapsed: 0.00046896934509277344
ell 692, elapsed: 0.0004940032958984375
ell 691, elapsed: 0.0007178783416748047
ell 690, elapsed: 0.0005419254302978516
ell 689, elapsed: 0.00047707557678222656
ell 688, elapsed: 0.0004069805145263672
ell 687, elapsed: 0.0006160736083984375
ell 686, elapsed: 0.0004999637603759766
ell 685, elapsed: 0.0004661083221435547
ell 684, elapsed: 0.00039505958557128906
ell 683, elapsed: 0.0004620552062988281
ell 682, elapsed: 0.0006611347198486328
ell 681, elapsed: 0.0005359649658203125
ell 680, elapsed: 0.0003991127014160156
ell 679, elapsed: 0.0005841255187988281
ell 678, elapsed: 0.0005121231079101562
ell 677, elapsed: 0.0004589557647705078
ell 676, elapsed: 0.00046896934509277344
ell 675, elapsed: 0.000762939453125
ell 674, elapsed: 0.0006170272827148438
ell 673, elapsed: 0.0007069110870361328
ell 672, elapsed: 0.0006170272827148438
ell 671, elapsed: 0.0007150173187255859
ell 670, elapsed: 0.0007300376892089844
ell 669, elapsed: 0.0007219314575195312
ell 668, elapsed: 0.0006189346313476562
ell 667, elapsed: 0.0007069110870361328
ell 666, elapsed: 0.0006229877471923828
ell 665, elapsed: 0.0007159709930419922
ell 664, elapsed: 0.0007491111755371094
ell 663, elapsed: 0.0007069110870361328
ell 662, elapsed: 0.0006189346313476562
ell 661, elapsed: 0.0007200241088867188
ell 660, elapsed: 0.0006189346313476562
ell 659, elapsed: 0.0008358955383300781
ell 658, elapsed: 0.00061798095703125
ell 657, elapsed: 0.0007200241088867188
ell 656, elapsed: 0.00061798095703125
ell 655, elapsed: 0.0006990432739257812
ell 654, elapsed: 0.0006151199340820312
ell 653, elapsed: 0.0006930828094482422
ell 652, elapsed: 0.0006248950958251953
ell 651, elapsed: 0.0007090568542480469
ell 650, elapsed: 0.0006279945373535156
ell 649, elapsed: 0.0007278919219970703
ell 648, elapsed: 0.0007491111755371094
ell 647, elapsed: 0.0007128715515136719
ell 646, elapsed: 0.0006320476531982422
ell 645, elapsed: 0.0007140636444091797
ell 644, elapsed: 0.0006229877471923828
ell 643, elapsed: 0.0008559226989746094
ell 642, elapsed: 0.0006308555603027344
ell 641, elapsed: 0.0007150173187255859
ell 640, elapsed: 0.0006208419799804688
ell 639, elapsed: 0.0007150173187255859
ell 638, elapsed: 0.0006239414215087891
ell 637, elapsed: 0.0008120536804199219
ell 636, elapsed: 0.0006279945373535156
ell 635, elapsed: 0.0007090568542480469
ell 634, elapsed: 0.0006229877471923828
ell 633, elapsed: 0.0007178783416748047
ell 632, elapsed: 0.0006399154663085938
ell 631, elapsed: 0.0006918907165527344
ell 630, elapsed: 0.0005252361297607422
ell 629, elapsed: 0.00046706199645996094
ell 628, elapsed: 0.00038814544677734375
ell 627, elapsed: 0.0004620552062988281
ell 626, elapsed: 0.0003838539123535156
ell 625, elapsed: 0.0006608963012695312
ell 624, elapsed: 0.0004260540008544922
ell 623, elapsed: 0.0004410743713378906
ell 622, elapsed: 0.00037217140197753906
ell 621, elapsed: 0.00043487548828125
ell 620, elapsed: 0.0003769397735595703
ell 619, elapsed: 0.00042700767517089844
ell 618, elapsed: 0.0003590583801269531
ell 617, elapsed: 0.00042700767517089844
ell 616, elapsed: 0.00048089027404785156
ell 615, elapsed: 0.0006070137023925781
ell 614, elapsed: 0.0003859996795654297
ell 613, elapsed: 0.00044918060302734375
ell 612, elapsed: 0.0003790855407714844
ell 611, elapsed: 0.000453948974609375
ell 610, elapsed: 0.000370025634765625
ell 609, elapsed: 0.0004260540008544922
ell 608, elapsed: 0.00044608116149902344
ell 607, elapsed: 0.0006210803985595703
ell 606, elapsed: 0.00037789344787597656
ell 605, elapsed: 0.0004451274871826172
ell 604, elapsed: 0.0003838539123535156
ell 603, elapsed: 0.00045800209045410156
ell 602, elapsed: 0.0003609657287597656
ell 601, elapsed: 0.00043010711669921875
ell 600, elapsed: 0.0003840923309326172
ell 599, elapsed: 0.0004730224609375
ell 598, elapsed: 0.0005431175231933594
ell 597, elapsed: 0.0005180835723876953
ell 596, elapsed: 0.00039196014404296875
ell 595, elapsed: 0.00044989585876464844
ell 594, elapsed: 0.00039386749267578125
ell 593, elapsed: 0.0004591941833496094
ell 592, elapsed: 0.00039005279541015625
ell 591, elapsed: 0.0004858970642089844
ell 590, elapsed: 0.00039005279541015625
ell 589, elapsed: 0.0004639625549316406
ell 588, elapsed: 0.00039315223693847656
ell 587, elapsed: 0.00045299530029296875
ell 586, elapsed: 0.00047206878662109375
ell 585, elapsed: 0.0007009506225585938
ell 584, elapsed: 0.0006399154663085938
ell 583, elapsed: 0.0007479190826416016
ell 582, elapsed: 0.0006289482116699219
ell 581, elapsed: 0.0007309913635253906
ell 580, elapsed: 0.0006248950958251953
ell 579, elapsed: 0.0007259845733642578
ell 578, elapsed: 0.0006639957427978516
ell 577, elapsed: 0.0007321834564208984
ell 576, elapsed: 0.0006349086761474609
ell 575, elapsed: 0.0007121562957763672
ell 574, elapsed: 0.0006289482116699219
ell 573, elapsed: 0.0007610321044921875
ell 572, elapsed: 0.0006191730499267578
ell 571, elapsed: 0.0006999969482421875
ell 570, elapsed: 0.0006239414215087891
ell 569, elapsed: 0.0007278919219970703
ell 568, elapsed: 0.0006158351898193359
ell 567, elapsed: 0.0006968975067138672
ell 566, elapsed: 0.00037384033203125
ell 565, elapsed: 0.0004298686981201172
ell 564, elapsed: 0.0003681182861328125
ell 563, elapsed: 0.00043082237243652344
ell 562, elapsed: 0.0003631114959716797
ell 561, elapsed: 0.0004508495330810547
ell 560, elapsed: 0.0003859996795654297
ell 559, elapsed: 0.00044417381286621094
ell 558, elapsed: 0.0004019737243652344
ell 557, elapsed: 0.000453948974609375
ell 556, elapsed: 0.00038695335388183594
ell 555, elapsed: 0.00045609474182128906
ell 554, elapsed: 0.00038886070251464844
ell 553, elapsed: 0.00044989585876464844
ell 552, elapsed: 0.00038695335388183594
ell 551, elapsed: 0.00044989585876464844
ell 550, elapsed: 0.000392913818359375
ell 549, elapsed: 0.0004699230194091797
ell 548, elapsed: 0.00048804283142089844
ell 547, elapsed: 0.0007178783416748047
ell 546, elapsed: 0.0006198883056640625
ell 545, elapsed: 0.0006070137023925781
ell 544, elapsed: 0.0003800392150878906
ell 543, elapsed: 0.00046706199645996094
ell 542, elapsed: 0.00040221214294433594
ell 541, elapsed: 0.0006129741668701172
ell 540, elapsed: 0.0004589557647705078
ell 539, elapsed: 0.000492095947265625
ell 538, elapsed: 0.0005650520324707031
ell 537, elapsed: 0.0007300376892089844
ell 536, elapsed: 0.0006570816040039062
ell 535, elapsed: 0.0007309913635253906
ell 534, elapsed: 0.0004971027374267578
ell 533, elapsed: 0.0006759166717529297
ell 532, elapsed: 0.0006480216979980469
ell 531, elapsed: 0.0007259845733642578
ell 530, elapsed: 0.0006780624389648438
ell 529, elapsed: 0.0007190704345703125
ell 528, elapsed: 0.0006270408630371094
ell 527, elapsed: 0.0007410049438476562
ell 526, elapsed: 0.0006301403045654297
ell 525, elapsed: 0.0007708072662353516
ell 524, elapsed: 0.0006279945373535156
ell 523, elapsed: 0.0007121562957763672
ell 522, elapsed: 0.0006289482116699219
ell 521, elapsed: 0.0007171630859375
ell 520, elapsed: 0.0005397796630859375
ell 519, elapsed: 0.0006558895111083984
ell 518, elapsed: 0.0004830360412597656
ell 517, elapsed: 0.00043320655822753906
ell 516, elapsed: 0.00036597251892089844
ell 515, elapsed: 0.00061798095703125
ell 514, elapsed: 0.000637054443359375
ell 513, elapsed: 0.0007340908050537109
ell 512, elapsed: 0.0005521774291992188
ell 511, elapsed: 0.00047206878662109375
ell 510, elapsed: 0.0004038810729980469
ell 509, elapsed: 0.0004639625549316406
ell 508, elapsed: 0.0004749298095703125
ell 507, elapsed: 0.0007281303405761719
ell 506, elapsed: 0.0006389617919921875
ell 505, elapsed: 0.0007359981536865234
ell 504, elapsed: 0.0006291866302490234
ell 503, elapsed: 0.0007460117340087891
ell 502, elapsed: 0.0006399154663085938
ell 501, elapsed: 0.0007259845733642578
ell 500, elapsed: 0.0006539821624755859
ell 499, elapsed: 0.0007269382476806641
ell 498, elapsed: 0.0006341934204101562
ell 497, elapsed: 0.0007219314575195312
ell 496, elapsed: 0.0006351470947265625
ell 495, elapsed: 0.0007369518280029297
ell 494, elapsed: 0.0006208419799804688
ell 493, elapsed: 0.0007259845733642578
ell 492, elapsed: 0.0006330013275146484
ell 491, elapsed: 0.0007140636444091797
ell 490, elapsed: 0.0005450248718261719
ell 489, elapsed: 0.0004658699035644531
ell 488, elapsed: 0.0005729198455810547
ell 487, elapsed: 0.0007138252258300781
ell 486, elapsed: 0.0006160736083984375
ell 485, elapsed: 0.0005288124084472656
ell 484, elapsed: 0.00039696693420410156
ell 483, elapsed: 0.000453948974609375
ell 482, elapsed: 0.0004189014434814453
ell 481, elapsed: 0.0004639625549316406
ell 480, elapsed: 0.0003840923309326172
ell 479, elapsed: 0.000453948974609375
ell 478, elapsed: 0.00039887428283691406
ell 477, elapsed: 0.00045490264892578125
ell 476, elapsed: 0.0005140304565429688
ell 475, elapsed: 0.0005891323089599609
ell 474, elapsed: 0.000408172607421875
ell 473, elapsed: 0.00046896934509277344
ell 472, elapsed: 0.0004029273986816406
ell 471, elapsed: 0.0004611015319824219
ell 470, elapsed: 0.00039386749267578125
ell 469, elapsed: 0.0004661083221435547
ell 468, elapsed: 0.00039887428283691406
ell 467, elapsed: 0.00055694580078125
ell 466, elapsed: 0.0005249977111816406
ell 465, elapsed: 0.0004611015319824219
ell 464, elapsed: 0.0003960132598876953
ell 463, elapsed: 0.0004470348358154297
ell 462, elapsed: 0.00038695335388183594
ell 461, elapsed: 0.0004611015319824219
ell 460, elapsed: 0.00039386749267578125
ell 459, elapsed: 0.0005800724029541016
ell 458, elapsed: 0.0005168914794921875
ell 457, elapsed: 0.00046896934509277344
ell 456, elapsed: 0.0003960132598876953
ell 455, elapsed: 0.0004630088806152344
ell 454, elapsed: 0.00038504600524902344
ell 453, elapsed: 0.0006430149078369141
ell 452, elapsed: 0.00045800209045410156
ell 451, elapsed: 0.0004718303680419922
ell 450, elapsed: 0.00039696693420410156
ell 449, elapsed: 0.0004858970642089844
ell 448, elapsed: 0.0003979206085205078
ell 447, elapsed: 0.0005807876586914062
ell 446, elapsed: 0.0005168914794921875
ell 445, elapsed: 0.00046706199645996094
ell 444, elapsed: 0.0004811286926269531
ell 443, elapsed: 0.0006289482116699219
ell 442, elapsed: 0.0004210472106933594
ell 441, elapsed: 0.0004630088806152344
ell 440, elapsed: 0.00038814544677734375
ell 439, elapsed: 0.00047016143798828125
ell 438, elapsed: 0.0005490779876708984
ell 437, elapsed: 0.0006530284881591797
ell 436, elapsed: 0.00040411949157714844
ell 435, elapsed: 0.0004658699035644531
ell 434, elapsed: 0.0004429817199707031
ell 433, elapsed: 0.0004658699035644531
ell 432, elapsed: 0.0004048347473144531
ell 431, elapsed: 0.0006539821624755859
ell 430, elapsed: 0.0006430149078369141
ell 429, elapsed: 0.0005679130554199219
ell 428, elapsed: 0.0004010200500488281
ell 427, elapsed: 0.0004801750183105469
ell 426, elapsed: 0.0004029273986816406
ell 425, elapsed: 0.0004611015319824219
ell 424, elapsed: 0.0005071163177490234
ell 423, elapsed: 0.0007259845733642578
ell 422, elapsed: 0.0004858970642089844
ell 421, elapsed: 0.00046706199645996094
ell 420, elapsed: 0.0004050731658935547
ell 419, elapsed: 0.0004839897155761719
ell 418, elapsed: 0.0004088878631591797
ell 417, elapsed: 0.0005929470062255859
ell 416, elapsed: 0.0005588531494140625
ell 415, elapsed: 0.0004608631134033203
ell 414, elapsed: 0.0005609989166259766
ell 413, elapsed: 0.0006000995635986328
ell 412, elapsed: 0.0005710124969482422
ell 411, elapsed: 0.0005371570587158203
ell 410, elapsed: 0.0005779266357421875
ell 409, elapsed: 0.0007259845733642578
ell 408, elapsed: 0.0006289482116699219
ell 407, elapsed: 0.0007240772247314453
ell 406, elapsed: 0.0006959438323974609
ell 405, elapsed: 0.0007290840148925781
ell 404, elapsed: 0.0006308555603027344
ell 403, elapsed: 0.0007121562957763672
ell 402, elapsed: 0.0005190372467041016
ell 401, elapsed: 0.0006489753723144531
ell 400, elapsed: 0.0006229877471923828
ell 399, elapsed: 0.0007300376892089844
ell 398, elapsed: 0.0006289482116699219
ell 397, elapsed: 0.0006120204925537109
ell 396, elapsed: 0.0003819465637207031
ell 395, elapsed: 0.00045609474182128906
ell 394, elapsed: 0.0004169940948486328
ell 393, elapsed: 0.00047206878662109375
ell 392, elapsed: 0.0005450248718261719
ell 391, elapsed: 0.0005440711975097656
ell 390, elapsed: 0.0003960132598876953
ell 389, elapsed: 0.00045609474182128906
ell 388, elapsed: 0.0004000663757324219
ell 387, elapsed: 0.0004639625549316406
ell 386, elapsed: 0.00041604042053222656
ell 385, elapsed: 0.0005819797515869141
ell 384, elapsed: 0.0006189346313476562
ell 383, elapsed: 0.0007228851318359375
ell 382, elapsed: 0.0006330013275146484
ell 381, elapsed: 0.0007278919219970703
ell 380, elapsed: 0.0006580352783203125
ell 379, elapsed: 0.0007331371307373047
ell 378, elapsed: 0.0006330013275146484
ell 377, elapsed: 0.0007131099700927734
ell 376, elapsed: 0.0006198883056640625
ell 375, elapsed: 0.0007369518280029297
ell 374, elapsed: 0.0006198883056640625
ell 373, elapsed: 0.0007150173187255859
ell 372, elapsed: 0.0006120204925537109
ell 371, elapsed: 0.0005791187286376953
ell 370, elapsed: 0.0003829002380371094
ell 369, elapsed: 0.00045299530029296875
ell 368, elapsed: 0.0005640983581542969
ell 367, elapsed: 0.0005421638488769531
ell 366, elapsed: 0.0005700588226318359
ell 365, elapsed: 0.0007121562957763672
ell 364, elapsed: 0.0006170272827148438
ell 363, elapsed: 0.0007100105285644531
ell 362, elapsed: 0.0006570816040039062
ell 361, elapsed: 0.0007150173187255859
ell 360, elapsed: 0.0005331039428710938
ell 359, elapsed: 0.0005719661712646484
ell 358, elapsed: 0.0006248950958251953
ell 357, elapsed: 0.0007228851318359375
ell 356, elapsed: 0.0006489753723144531
ell 355, elapsed: 0.000698089599609375
ell 354, elapsed: 0.0005180835723876953
ell 353, elapsed: 0.0005350112915039062
ell 352, elapsed: 0.0005888938903808594
ell 351, elapsed: 0.0006871223449707031
ell 350, elapsed: 0.0005538463592529297
ell 349, elapsed: 0.0007059574127197266
ell 348, elapsed: 0.0006320476531982422
ell 347, elapsed: 0.0007200241088867188
ell 346, elapsed: 0.0006248950958251953
ell 345, elapsed: 0.0007359981536865234
ell 344, elapsed: 0.0004918575286865234
ell 343, elapsed: 0.0006339550018310547
ell 342, elapsed: 0.0006399154663085938
ell 341, elapsed: 0.0006170272827148438
ell 340, elapsed: 0.0003681182861328125
ell 339, elapsed: 0.00041103363037109375
ell 338, elapsed: 0.0005350112915039062
ell 337, elapsed: 0.0005929470062255859
ell 336, elapsed: 0.0005600452423095703
ell 335, elapsed: 0.0006940364837646484
ell 334, elapsed: 0.0006248950958251953
ell 333, elapsed: 0.0007119178771972656
ell 332, elapsed: 0.0006570816040039062
ell 331, elapsed: 0.0007221698760986328
ell 330, elapsed: 0.000614166259765625
ell 329, elapsed: 0.0006101131439208984
ell 328, elapsed: 0.0005400180816650391
ell 327, elapsed: 0.0007150173187255859
ell 326, elapsed: 0.0006368160247802734
ell 325, elapsed: 0.0007240772247314453
ell 324, elapsed: 0.0006098747253417969
ell 323, elapsed: 0.0007259845733642578
ell 322, elapsed: 0.0006361007690429688
ell 321, elapsed: 0.0007350444793701172
ell 320, elapsed: 0.0006258487701416016
ell 319, elapsed: 0.000701904296875
ell 318, elapsed: 0.0006220340728759766
ell 317, elapsed: 0.0007200241088867188
ell 316, elapsed: 0.0006260871887207031
ell 315, elapsed: 0.0007410049438476562
ell 314, elapsed: 0.0006270408630371094
ell 313, elapsed: 0.000720977783203125
ell 312, elapsed: 0.0006279945373535156
ell 311, elapsed: 0.0007140636444091797
ell 310, elapsed: 0.00047707557678222656
ell 309, elapsed: 0.0006530284881591797
ell 308, elapsed: 0.0006320476531982422
ell 307, elapsed: 0.0007181167602539062
ell 306, elapsed: 0.0006189346313476562
ell 305, elapsed: 0.0007169246673583984
ell 304, elapsed: 0.0005459785461425781
ell 303, elapsed: 0.0007090568542480469
ell 302, elapsed: 0.0004439353942871094
ell 301, elapsed: 0.00045490264892578125
ell 300, elapsed: 0.0003809928894042969
ell 299, elapsed: 0.00044918060302734375
ell 298, elapsed: 0.0003809928894042969
ell 297, elapsed: 0.0004601478576660156
ell 296, elapsed: 0.0003910064697265625
ell 295, elapsed: 0.0004589557647705078
ell 294, elapsed: 0.00038695335388183594
ell 293, elapsed: 0.00045490264892578125
ell 292, elapsed: 0.0005028247833251953
ell 291, elapsed: 0.0006029605865478516
ell 290, elapsed: 0.0003979206085205078
ell 289, elapsed: 0.00045800209045410156
ell 288, elapsed: 0.0005371570587158203
ell 287, elapsed: 0.0005669593811035156
ell 286, elapsed: 0.00039505958557128906
ell 285, elapsed: 0.00045800209045410156
ell 284, elapsed: 0.0003979206085205078
ell 283, elapsed: 0.0004630088806152344
ell 282, elapsed: 0.00039696693420410156
ell 281, elapsed: 0.0004639625549316406
ell 280, elapsed: 0.0003960132598876953
ell 279, elapsed: 0.00047206878662109375
ell 278, elapsed: 0.00039005279541015625
ell 277, elapsed: 0.0006132125854492188
ell 276, elapsed: 0.0004470348358154297
ell 275, elapsed: 0.0004589557647705078
ell 274, elapsed: 0.00038909912109375
ell 273, elapsed: 0.0004649162292480469
ell 272, elapsed: 0.0003972053527832031
ell 271, elapsed: 0.0004642009735107422
ell 270, elapsed: 0.0003848075866699219
ell 269, elapsed: 0.0005400180816650391
ell 268, elapsed: 0.0005249977111816406
ell 267, elapsed: 0.000453948974609375
ell 266, elapsed: 0.0005388259887695312
ell 265, elapsed: 0.0007259845733642578
ell 264, elapsed: 0.0006601810455322266
ell 263, elapsed: 0.0007219314575195312
ell 262, elapsed: 0.0006320476531982422
ell 261, elapsed: 0.000720977783203125
ell 260, elapsed: 0.0006320476531982422
ell 259, elapsed: 0.0007348060607910156
ell 258, elapsed: 0.0006299018859863281
ell 257, elapsed: 0.0007090568542480469
ell 256, elapsed: 0.0006170272827148438
ell 255, elapsed: 0.0007100105285644531
ell 254, elapsed: 0.0006208419799804688
ell 253, elapsed: 0.0007281303405761719
ell 252, elapsed: 0.0006251335144042969
ell 251, elapsed: 0.0006301403045654297
ell 250, elapsed: 0.0005471706390380859
ell 249, elapsed: 0.0007109642028808594
ell 248, elapsed: 0.0006170272827148438
ell 247, elapsed: 0.0007250308990478516
ell 246, elapsed: 0.0004909038543701172
ell 245, elapsed: 0.0006630420684814453
ell 244, elapsed: 0.0006229877471923828
ell 243, elapsed: 0.0006999969482421875
ell 242, elapsed: 0.0006208419799804688
ell 241, elapsed: 0.0007219314575195312
ell 240, elapsed: 0.0006229877471923828
ell 239, elapsed: 0.0007197856903076172
ell 238, elapsed: 0.0006299018859863281
ell 237, elapsed: 0.0007269382476806641
ell 236, elapsed: 0.0006630420684814453
ell 235, elapsed: 0.0007181167602539062
ell 234, elapsed: 0.0006279945373535156
ell 233, elapsed: 0.0007169246673583984
ell 232, elapsed: 0.0006158351898193359
ell 231, elapsed: 0.0007290840148925781
ell 230, elapsed: 0.0006270408630371094
ell 229, elapsed: 0.0007219314575195312
ell 228, elapsed: 0.0006260871887207031
ell 227, elapsed: 0.0007131099700927734
ell 226, elapsed: 0.0006258487701416016
ell 225, elapsed: 0.0007338523864746094
ell 224, elapsed: 0.0006330013275146484
ell 223, elapsed: 0.0007109642028808594
ell 222, elapsed: 0.00061798095703125
ell 221, elapsed: 0.0006937980651855469
ell 220, elapsed: 0.0006260871887207031
ell 219, elapsed: 0.0007171630859375
ell 218, elapsed: 0.0006539821624755859
ell 217, elapsed: 0.0007369518280029297
ell 216, elapsed: 0.0006248950958251953
ell 215, elapsed: 0.0007319450378417969
ell 214, elapsed: 0.0006380081176757812
ell 213, elapsed: 0.0007081031799316406
ell 212, elapsed: 0.0006310939788818359
ell 211, elapsed: 0.0007219314575195312
ell 210, elapsed: 0.0006380081176757812
ell 209, elapsed: 0.0007808208465576172
ell 208, elapsed: 0.0006251335144042969
ell 207, elapsed: 0.0007169246673583984
ell 206, elapsed: 0.0006220340728759766
ell 205, elapsed: 0.0007081031799316406
ell 204, elapsed: 0.0005190372467041016
ell 203, elapsed: 0.00047087669372558594
ell 202, elapsed: 0.0005021095275878906
ell 201, elapsed: 0.0006427764892578125
ell 200, elapsed: 0.0004138946533203125
ell 199, elapsed: 0.00045490264892578125
ell 198, elapsed: 0.0005338191986083984
ell 197, elapsed: 0.0006499290466308594
ell 196, elapsed: 0.0003859996795654297
ell 195, elapsed: 0.0004718303680419922
ell 194, elapsed: 0.0003879070281982422
ell 193, elapsed: 0.0004711151123046875
ell 192, elapsed: 0.0003910064697265625
ell 191, elapsed: 0.000453948974609375
ell 190, elapsed: 0.00039696693420410156
ell 189, elapsed: 0.00045418739318847656
ell 188, elapsed: 0.00039005279541015625
ell 187, elapsed: 0.00047707557678222656
ell 186, elapsed: 0.0003871917724609375
ell 185, elapsed: 0.0005910396575927734
ell 184, elapsed: 0.0005269050598144531
ell 183, elapsed: 0.0004589557647705078
ell 182, elapsed: 0.00038814544677734375
ell 181, elapsed: 0.00045299530029296875
ell 180, elapsed: 0.0003960132598876953
ell 179, elapsed: 0.0006451606750488281
ell 178, elapsed: 0.0003840923309326172
ell 177, elapsed: 0.0004551410675048828
ell 176, elapsed: 0.00074005126953125
ell 175, elapsed: 0.0007009506225585938
ell 174, elapsed: 0.0004680156707763672
ell 173, elapsed: 0.00047516822814941406
ell 172, elapsed: 0.00041103363037109375
ell 171, elapsed: 0.00045800209045410156
ell 170, elapsed: 0.0003838539123535156
ell 169, elapsed: 0.0004611015319824219
ell 168, elapsed: 0.0003910064697265625
ell 167, elapsed: 0.0004639625549316406
ell 166, elapsed: 0.00039196014404296875
ell 165, elapsed: 0.0005371570587158203
ell 164, elapsed: 0.0006039142608642578
ell 163, elapsed: 0.0004639625549316406
ell 162, elapsed: 0.0005550384521484375
ell 161, elapsed: 0.0005559921264648438
ell 160, elapsed: 0.00039577484130859375
ell 159, elapsed: 0.0004639625549316406
ell 158, elapsed: 0.0003941059112548828
ell 157, elapsed: 0.00046181678771972656
ell 156, elapsed: 0.0005660057067871094
ell 155, elapsed: 0.0004608631134033203
ell 154, elapsed: 0.0004000663757324219
ell 153, elapsed: 0.00045800209045410156
ell 152, elapsed: 0.00038886070251464844
ell 151, elapsed: 0.00045490264892578125
ell 150, elapsed: 0.00038695335388183594
ell 149, elapsed: 0.00045609474182128906
ell 148, elapsed: 0.00048279762268066406
ell 147, elapsed: 0.0006220340728759766
ell 146, elapsed: 0.0003859996795654297
ell 145, elapsed: 0.0004467964172363281
ell 144, elapsed: 0.0003871917724609375
ell 143, elapsed: 0.0004520416259765625
ell 142, elapsed: 0.0003879070281982422
ell 141, elapsed: 0.0004639625549316406
ell 140, elapsed: 0.00039505958557128906
ell 139, elapsed: 0.0004730224609375
ell 138, elapsed: 0.0004858970642089844
ell 137, elapsed: 0.0006248950958251953
ell 136, elapsed: 0.00039887428283691406
ell 135, elapsed: 0.0004661083221435547
ell 134, elapsed: 0.0003941059112548828
ell 133, elapsed: 0.000453948974609375
ell 132, elapsed: 0.00039076805114746094
ell 131, elapsed: 0.00045800209045410156
ell 130, elapsed: 0.00038504600524902344
ell 129, elapsed: 0.00045490264892578125
ell 128, elapsed: 0.00038909912109375
ell 127, elapsed: 0.0006020069122314453
ell 126, elapsed: 0.0004849433898925781
ell 125, elapsed: 0.0004611015319824219
ell 124, elapsed: 0.00038504600524902344
ell 123, elapsed: 0.0004620552062988281
ell 122, elapsed: 0.00039005279541015625
ell 121, elapsed: 0.0005860328674316406
ell 120, elapsed: 0.0005030632019042969
ell 119, elapsed: 0.0004611015319824219
ell 118, elapsed: 0.0005369186401367188
ell 117, elapsed: 0.0007169246673583984
ell 116, elapsed: 0.000476837158203125
ell 115, elapsed: 0.0005350112915039062
ell 114, elapsed: 0.0005228519439697266
ell 113, elapsed: 0.0006220340728759766
ell 112, elapsed: 0.0006167888641357422
ell 111, elapsed: 0.0006859302520751953
ell 110, elapsed: 0.0006041526794433594
ell 109, elapsed: 0.0006940364837646484
ell 108, elapsed: 0.0005919933319091797
ell 107, elapsed: 0.0007030963897705078
ell 106, elapsed: 0.0006170272827148438
ell 105, elapsed: 0.0007119178771972656
ell 104, elapsed: 0.0006201267242431641
ell 103, elapsed: 0.0007069110870361328
ell 102, elapsed: 0.0006358623504638672
ell 101, elapsed: 0.0007050037384033203
ell 100, elapsed: 0.0006060600280761719
ell 99, elapsed: 0.0007069110870361328
ell 98, elapsed: 0.0006160736083984375
ell 97, elapsed: 0.0007011890411376953
ell 96, elapsed: 0.0006010532379150391
ell 95, elapsed: 0.0006999969482421875
ell 94, elapsed: 0.0005080699920654297
ell 93, elapsed: 0.0006389617919921875
ell 92, elapsed: 0.0005979537963867188
ell 91, elapsed: 0.0006999969482421875
ell 90, elapsed: 0.0006139278411865234
ell 89, elapsed: 0.0007350444793701172
ell 88, elapsed: 0.0006561279296875
ell 87, elapsed: 0.0007419586181640625
ell 86, elapsed: 0.0006248950958251953
ell 85, elapsed: 0.0007140636444091797
ell 84, elapsed: 0.0006339550018310547
ell 83, elapsed: 0.0007510185241699219
ell 82, elapsed: 0.0006659030914306641
ell 81, elapsed: 0.0007178783416748047
ell 80, elapsed: 0.0006330013275146484
ell 79, elapsed: 0.0007050037384033203
ell 78, elapsed: 0.0006499290466308594
ell 77, elapsed: 0.0007281303405761719
ell 76, elapsed: 0.0005519390106201172
ell 75, elapsed: 0.0006129741668701172
ell 74, elapsed: 0.0006070137023925781
ell 73, elapsed: 0.0006270408630371094
ell 72, elapsed: 0.0005648136138916016
ell 71, elapsed: 0.0007200241088867188
ell 70, elapsed: 0.0006330013275146484
ell 69, elapsed: 0.0007071495056152344
ell 68, elapsed: 0.0006151199340820312
ell 67, elapsed: 0.0007150173187255859
ell 66, elapsed: 0.0006291866302490234
ell 65, elapsed: 0.0007050037384033203
ell 64, elapsed: 0.0006170272827148438
ell 63, elapsed: 0.0006978511810302734
ell 62, elapsed: 0.0006229877471923828
ell 61, elapsed: 0.0006990432739257812
ell 60, elapsed: 0.0004839897155761719
ell 59, elapsed: 0.0006220340728759766
ell 58, elapsed: 0.0006239414215087891
ell 57, elapsed: 0.0007009506225585938
ell 56, elapsed: 0.0004858970642089844
ell 55, elapsed: 0.0006358623504638672
ell 54, elapsed: 0.0006098747253417969
ell 53, elapsed: 0.0007081031799316406
ell 52, elapsed: 0.0006248950958251953
ell 51, elapsed: 0.0007138252258300781
ell 50, elapsed: 0.0006148815155029297
ell 49, elapsed: 0.0007128715515136719
ell 48, elapsed: 0.0004858970642089844
ell 47, elapsed: 0.0006079673767089844
ell 46, elapsed: 0.0006167888641357422
ell 45, elapsed: 0.0007159709930419922
ell 44, elapsed: 0.0006210803985595703
ell 43, elapsed: 0.0007021427154541016
ell 42, elapsed: 0.0006129741668701172
ell 41, elapsed: 0.0007259845733642578
ell 40, elapsed: 0.0006198883056640625
ell 39, elapsed: 0.000698089599609375
ell 38, elapsed: 0.0006299018859863281
ell 37, elapsed: 0.0007081031799316406
ell 36, elapsed: 0.00061798095703125
ell 35, elapsed: 0.0007328987121582031
ell 34, elapsed: 0.0006268024444580078
ell 33, elapsed: 0.0007171630859375
ell 32, elapsed: 0.0006489753723144531
ell 31, elapsed: 0.0007140636444091797
ell 30, elapsed: 0.0006449222564697266
ell 29, elapsed: 0.0007150173187255859
ell 28, elapsed: 0.0006351470947265625
ell 27, elapsed: 0.0007100105285644531
ell 26, elapsed: 0.0006229877471923828
ell 25, elapsed: 0.0007028579711914062
ell 24, elapsed: 0.0006330013275146484
ell 23, elapsed: 0.0007069110870361328
ell 22, elapsed: 0.0006270408630371094
ell 21, elapsed: 0.0007250308990478516
ell 20, elapsed: 0.0006270408630371094
ell 19, elapsed: 0.0007150173187255859
ell 18, elapsed: 0.0006310939788818359
ell 17, elapsed: 0.0007190704345703125
ell 16, elapsed: 0.0005300045013427734
ell 15, elapsed: 0.0006501674652099609
ell 14, elapsed: 0.0006320476531982422
ell 13, elapsed: 0.0007240772247314453
ell 12, elapsed: 0.0006260871887207031
ell 11, elapsed: 0.0007121562957763672
ell 10, elapsed: 0.0004980564117431641
ell 9, elapsed: 0.0006530284881591797
ell 8, elapsed: 0.0006361007690429688
ell 7, elapsed: 0.0007560253143310547
ell 6, elapsed: 0.0006430149078369141
ell 5, elapsed: 0.0007419586181640625
ell 4, elapsed: 0.0006420612335205078
ell 3, elapsed: 0.0006890296936035156
ell 2, elapsed: 0.00067901611328125
ell 1, elapsed: 0.0007271766662597656
ell 0, elapsed: 0.0006399154663085938
  0.712971 seconds (41.19 k allocations: 2.940 MiB)
elapsed: 0.0008780956268310547
step:          0.075393 sec (0 allocations: 0 byte, 0.0% gc time)
swapping:      0.000895 sec (0 allocations: 0 byte, 0.0% gc time)
calc_Mellell!: 0.012946 sec (0 allocations: 0 byte, 0.0% gc time)
  t0 :  0.002722 sec (0 allocations: 0 byte, 0.0% gc time)
  tm2 : 0.113267 sec (0 allocations: 0 byte, 0.0% gc time)
  tm2s: 0.002235 sec (0 allocations: 0 byte, 0.0% gc time)
  tm4 : 0.30147 sec (0 allocations: 0 byte, 0.0% gc time)
  tp2 : 0.0 sec (0 allocations: 0 byte, 0.0% gc time)
  tp2s: 0.0 sec (0 allocations: 0 byte, 0.0% gc time)
  tp4 : 0.0 sec (0 allocations: 0 byte, 0.0% gc time)
calc_wtdll!:   0.440293 sec (9.874 k allocations: 1.043 MB, 0.0% gc time)
calc_wljj!:    0.050117 sec (689 allocations: 10.766 KB, 0.0% gc time)
mult_prefac!:  0.0 sec (0 allocations: 0 byte, 0.0% gc time)
convert:       0.0 sec (0 allocations: 0 byte, 0.0% gc time)
write:         0.051501 sec (0 allocations: 0 byte, 0.0% gc time)
test_rand_2f1: 0.0 sec (0 allocations: 0 byte, 0.0% gc time)
Closing outfile out/Ml21-cache.bin...   0.000041 seconds
  0.000663 seconds (52 allocations: 28.297 KiB)
make_phi():   0.002752 seconds (8.33 k allocations: 250.516 KiB)
  0.878769 seconds (742.56 k allocations: 63.362 MiB, 0.99% gc time)
tskip:       0.00146 sec (0 allocations: 0 byte, 0.0% gc time)
tread:       0.037004 sec (19 allocations: 10.688 KB, 0.0% gc time)
tmultphi:    0.022706 sec (0 allocations: 0 byte, 0.0% gc time)
tbrfft:      0.665269 sec (605.461 k allocations: 60.173 MB, 1.3% gc time)
tmultprefac: 0.050194 sec (0 allocations: 0 byte, 0.0% gc time)
toutfunc:    0.099458 sec (129.905 k allocations: 2.421 MB, 0.0% gc time)
Testing R=1.0 ... passed
Calculating fmax: 
  dlrec    = 4
  dlrecRg1 = -4
  q=1.1, R=0.9:	  0.470461 seconds (116.47 k allocations: 15.614 MiB)

  0.470955 seconds (116.50 k allocations: 15.647 MiB)
ℓ = 1202
Δℓ = 4
ΔℓRg1 = -4
N = 1600
q = 1.1
kmin = 1.0e-5
kmax = 100000.00000000004
χ0 = 0.023029999999999995
RR = RR.tsv
ℓmax = ℓmax.bin
f21 = f21.bin
kmin = 1.0e-5
kmax = 100000.0
dlrec    = 4
dlrecRg1 = -4
Output size: 5741568 bytes = 0.005347251892089844 GiB
Output size: 51264 bytes = 4.774332046508789e-5 GiB
Reading 'out/F21EllCache'...   0.001176 seconds (267 allocations: 84.656 KiB)
ellmax: 1202
lmaxcache: 1202
fell[:,1,1] = Complex{Float64}[1.3482014726274674e-57 - 3.302141236118086e-73im, 1.357860004724329e-57 - 3.3257978169518355e-73im]
ell 1202, elapsed: 2.09808349609375e-5
ell 1201, elapsed: 0.0004830360412597656
ell 1200, elapsed: 0.001172780990600586
ell 1199, elapsed: 0.0006389617919921875
ell 1198, elapsed: 0.0006389617919921875
ell 1002, elapsed: 0.012699127197265625
ell 1001, elapsed: 0.0005400180816650391
ell 1000, elapsed: 0.0010199546813964844
ell 999, elapsed: 0.00041604042053222656
ell 998, elapsed: 0.0004150867462158203
ell 902, elapsed: 0.0060651302337646484
ell 901, elapsed: 0.0009431838989257812
ell 900, elapsed: 0.0003581047058105469
ell 899, elapsed: 0.00035500526428222656
ell 898, elapsed: 0.0003559589385986328
ell 802, elapsed: 0.0069959163665771484
ell 801, elapsed: 0.0005321502685546875
ell 800, elapsed: 0.0005497932434082031
ell 799, elapsed: 0.0005078315734863281
ell 798, elapsed: 0.0003540515899658203
ell 702, elapsed: 0.006518125534057617
ell 701, elapsed: 0.0004341602325439453
ell 700, elapsed: 0.00041484832763671875
ell 699, elapsed: 0.00041294097900390625
ell 698, elapsed: 0.0004169940948486328
ell 602, elapsed: 0.00584101676940918
ell 601, elapsed: 0.0005269050598144531
ell 600, elapsed: 0.0005371570587158203
ell 599, elapsed: 0.00035190582275390625
ell 598, elapsed: 0.0004699230194091797
ell 502, elapsed: 0.006927013397216797
ell 501, elapsed: 0.0005199909210205078
ell 500, elapsed: 0.0005660057067871094
ell 499, elapsed: 0.0010411739349365234
ell 498, elapsed: 0.0005009174346923828
ell 402, elapsed: 0.006399869918823242
ell 401, elapsed: 0.0010290145874023438
ell 400, elapsed: 0.0003528594970703125
ell 399, elapsed: 0.0004630088806152344
ell 398, elapsed: 0.0005581378936767578
ell 302, elapsed: 0.008048057556152344
ell 301, elapsed: 0.0003771781921386719
ell 300, elapsed: 0.00044608116149902344
ell 299, elapsed: 0.0005500316619873047
ell 298, elapsed: 0.0017049312591552734
ell 202, elapsed: 0.0053539276123046875
ell 201, elapsed: 0.0004830360412597656
ell 200, elapsed: 0.0022220611572265625
ell 199, elapsed: 0.00041413307189941406
ell 198, elapsed: 0.0005431175231933594
ell 152, elapsed: 0.002798795700073242
ell 151, elapsed: 0.0005009174346923828
ell 150, elapsed: 0.0005450248718261719
ell 149, elapsed: 0.0004699230194091797
ell 148, elapsed: 0.002192974090576172
ell 127, elapsed: 0.0018150806427001953
ell 126, elapsed: 0.00037288665771484375
ell 125, elapsed: 0.0003559589385986328
ell 124, elapsed: 0.0003478527069091797
ell 123, elapsed: 0.0004000663757324219
ell 114, elapsed: 0.0009860992431640625
ell 113, elapsed: 0.0003578662872314453
ell 112, elapsed: 0.0003459453582763672
ell 111, elapsed: 0.00034999847412109375
ell 110, elapsed: 0.0004401206970214844
ell 102, elapsed: 0.0010371208190917969
ell 101, elapsed: 0.0004761219024658203
ell 100, elapsed: 0.00055694580078125
ell 99, elapsed: 0.0005509853363037109
ell 98, elapsed: 0.0005469322204589844
ell 97, elapsed: 0.0004878044128417969
ell 96, elapsed: 0.0006310939788818359
ell 95, elapsed: 0.0004630088806152344
ell 94, elapsed: 0.00045013427734375
ell 93, elapsed: 0.0003879070281982422
ell 92, elapsed: 0.0006060600280761719
ell 91, elapsed: 0.0004611015319824219
ell 90, elapsed: 0.00045800209045410156
ell 89, elapsed: 0.0003948211669921875
ell 88, elapsed: 0.0006241798400878906
ell 87, elapsed: 0.0004999637603759766
ell 86, elapsed: 0.0005948543548583984
ell 85, elapsed: 0.00049591064453125
ell 84, elapsed: 0.0006470680236816406
ell 83, elapsed: 0.00061798095703125
ell 82, elapsed: 0.00061798095703125
ell 81, elapsed: 0.00037217140197753906
ell 80, elapsed: 0.0004570484161376953
ell 79, elapsed: 0.0005459785461425781
ell 78, elapsed: 0.000701904296875
ell 77, elapsed: 0.0005199909210205078
ell 76, elapsed: 0.0006458759307861328
ell 75, elapsed: 0.0006368160247802734
ell 74, elapsed: 0.0007071495056152344
ell 73, elapsed: 0.0005328655242919922
ell 72, elapsed: 0.0006442070007324219
ell 71, elapsed: 0.0006079673767089844
ell 70, elapsed: 0.0006978511810302734
ell 69, elapsed: 0.0005240440368652344
ell 68, elapsed: 0.00045609474182128906
ell 67, elapsed: 0.00037598609924316406
ell 66, elapsed: 0.0004470348358154297
ell 65, elapsed: 0.00038313865661621094
ell 64, elapsed: 0.0004439353942871094
ell 63, elapsed: 0.0004620552062988281
ell 62, elapsed: 0.0006110668182373047
ell 61, elapsed: 0.00040912628173828125
ell 60, elapsed: 0.00045299530029296875
ell 59, elapsed: 0.0003859996795654297
ell 58, elapsed: 0.0004551410675048828
ell 57, elapsed: 0.0005619525909423828
ell 56, elapsed: 0.000518798828125
ell 55, elapsed: 0.000492095947265625
ell 54, elapsed: 0.0005869865417480469
ell 53, elapsed: 0.00040602684020996094
ell 52, elapsed: 0.0004589557647705078
ell 51, elapsed: 0.0003809928894042969
ell 50, elapsed: 0.0004620552062988281
ell 49, elapsed: 0.0003769397735595703
ell 48, elapsed: 0.00045418739318847656
ell 47, elapsed: 0.0005421638488769531
ell 46, elapsed: 0.0005540847778320312
ell 45, elapsed: 0.0004429817199707031
ell 44, elapsed: 0.00045990943908691406
ell 43, elapsed: 0.0004608631134033203
ell 42, elapsed: 0.0007021427154541016
ell 41, elapsed: 0.0006029605865478516
ell 40, elapsed: 0.0005979537963867188
ell 39, elapsed: 0.00036907196044921875
ell 38, elapsed: 0.0006301403045654297
ell 37, elapsed: 0.0006101131439208984
ell 36, elapsed: 0.0007040500640869141
ell 35, elapsed: 0.00046896934509277344
ell 34, elapsed: 0.0004379749298095703
ell 33, elapsed: 0.0005137920379638672
ell 32, elapsed: 0.0006678104400634766
ell 31, elapsed: 0.0005059242248535156
ell 30, elapsed: 0.0004589557647705078
ell 29, elapsed: 0.0005190372467041016
ell 28, elapsed: 0.0005719661712646484
ell 27, elapsed: 0.00037288665771484375
ell 26, elapsed: 0.0005741119384765625
ell 25, elapsed: 0.0006070137023925781
ell 24, elapsed: 0.0007059574127197266
ell 23, elapsed: 0.0004899501800537109
ell 22, elapsed: 0.0005490779876708984
ell 21, elapsed: 0.0005860328674316406
ell 20, elapsed: 0.0005540847778320312
ell 19, elapsed: 0.0005209445953369141
ell 18, elapsed: 0.0007159709930419922
ell 17, elapsed: 0.0005519390106201172
ell 16, elapsed: 0.0006978511810302734
ell 15, elapsed: 0.0004611015319824219
ell 14, elapsed: 0.00045299530029296875
ell 13, elapsed: 0.00038695335388183594
ell 12, elapsed: 0.00045490264892578125
ell 11, elapsed: 0.0003898143768310547
ell 10, elapsed: 0.0006780624389648438
ell 9, elapsed: 0.00061798095703125
ell 8, elapsed: 0.0006229877471923828
ell 7, elapsed: 0.0003800392150878906
ell 6, elapsed: 0.0005490779876708984
ell 5, elapsed: 0.0006129741668701172
ell 4, elapsed: 0.0006458759307861328
ell 3, elapsed: 0.0005409717559814453
ell 2, elapsed: 0.00055694580078125
ell 1, elapsed: 0.00039005279541015625
ell 0, elapsed: 0.0004558563232421875
  0.163360 seconds (10.83 k allocations: 697.938 KiB)
elapsed: 0.0004699230194091797
step:          0.07076 sec (0 allocations: 0 byte, 0.0% gc time)
swapping:      0.000608 sec (0 allocations: 0 byte, 0.0% gc time)
calc_Mellell!: 0.001778 sec (0 allocations: 0 byte, 0.0% gc time)
  t0 :  0.000463 sec (0 allocations: 0 byte, 0.0% gc time)
  tm2 : 0.018321 sec (0 allocations: 0 byte, 0.0% gc time)
  tm2s: 0.000399 sec (0 allocations: 0 byte, 0.0% gc time)
  tm4 : 0.045099 sec (0 allocations: 0 byte, 0.0% gc time)
  tp2 : 0.0 sec (0 allocations: 0 byte, 0.0% gc time)
  tp2s: 0.0 sec (0 allocations: 0 byte, 0.0% gc time)
  tp4 : 0.0 sec (0 allocations: 0 byte, 0.0% gc time)
calc_wtdll!:   0.064941 sec (1.344 k allocations: 147.0 KB, 0.0% gc time)
calc_wljj!:    0.004671 sec (6 allocations: 96 byte, 0.0% gc time)
mult_prefac!:  0.0 sec (0 allocations: 0 byte, 0.0% gc time)
convert:       0.0 sec (0 allocations: 0 byte, 0.0% gc time)
write:         0.005963 sec (0 allocations: 0 byte, 0.0% gc time)
test_rand_2f1: 0.0 sec (0 allocations: 0 byte, 0.0% gc time)
Closing outfile out/Ml21-cache.bin...   0.000070 seconds
  0.000637 seconds (52 allocations: 28.297 KiB)
make_phi():   0.003381 seconds (8.33 k allocations: 250.516 KiB)
  0.088783 seconds (69.43 k allocations: 5.920 MiB)
tskip:       2.7e-5 sec (0 allocations: 0 byte, 0.0% gc time)
tread:       0.00712 sec (19 allocations: 2.172 KB, 0.0% gc time)
tmultphi:    0.00134 sec (0 allocations: 0 byte, 0.0% gc time)
tbrfft:      0.066149 sec (58.234 k allocations: 5.646 MB, 0.0% gc time)
tmultprefac: 0.003741 sec (0 allocations: 0 byte, 0.0% gc time)
toutfunc:    0.010329 sec (10.528 k allocations: 206.5 KB, 0.0% gc time)
Testing R=0.9 ... passed
Calculating fmax: 
  dlrec    = 4
  dlrecRg1 = -4
  q=1.1, R=0.8:	  0.370053 seconds (113.61 k allocations: 15.166 MiB)

  0.370327 seconds (113.65 k allocations: 15.200 MiB)
ℓ = 1202
Δℓ = 4
ΔℓRg1 = -4
N = 1600
q = 1.1
kmin = 1.0e-5
kmax = 100000.00000000004
χ0 = 0.023029999999999995
RR = RR.tsv
ℓmax = ℓmax.bin
f21 = f21.bin
kmin = 1.0e-5
kmax = 100000.0
dlrec    = 4
dlrecRg1 = -4
Output size: 5741568 bytes = 0.005347251892089844 GiB
Output size: 51264 bytes = 4.774332046508789e-5 GiB
Reading 'out/F21EllCache'...   0.001043 seconds (267 allocations: 84.656 KiB)
ellmax: 1202
lmaxcache: 1202
fell[:,1,1] = Complex{Float64}[7.519068145690986e-120 - 1.8416405474382574e-135im, 7.541664537386155e-120 - 1.847175067190611e-135im]
ell 1202, elapsed: 8.487701416015625e-5
ell 1201, elapsed: 0.0004410743713378906
ell 1200, elapsed: 0.0005068778991699219
ell 1199, elapsed: 0.0005121231079101562
ell 1198, elapsed: 0.0003941059112548828
ell 1002, elapsed: 0.010610818862915039
ell 1001, elapsed: 0.00036787986755371094
ell 1000, elapsed: 0.00035309791564941406
ell 999, elapsed: 0.00035190582275390625
ell 998, elapsed: 0.00034880638122558594
ell 902, elapsed: 0.0052530765533447266
ell 901, elapsed: 0.0003800392150878906
ell 900, elapsed: 0.00035691261291503906
ell 899, elapsed: 0.00036215782165527344
ell 898, elapsed: 0.0003528594970703125
ell 802, elapsed: 0.005389213562011719
ell 801, elapsed: 0.000370025634765625
ell 800, elapsed: 0.0003609657287597656
ell 799, elapsed: 0.00035881996154785156
ell 798, elapsed: 0.0006761550903320312
ell 702, elapsed: 0.00510716438293457
ell 701, elapsed: 0.00039696693420410156
ell 700, elapsed: 0.0003819465637207031
ell 699, elapsed: 0.0003478527069091797
ell 698, elapsed: 0.00034689903259277344
ell 602, elapsed: 0.005630970001220703
ell 601, elapsed: 0.0003790855407714844
ell 600, elapsed: 0.0003590583801269531
ell 599, elapsed: 0.0003521442413330078
ell 598, elapsed: 0.00035190582275390625
ell 502, elapsed: 0.005546092987060547
ell 501, elapsed: 0.0003681182861328125
ell 500, elapsed: 0.00037407875061035156
ell 499, elapsed: 0.00034999847412109375
ell 498, elapsed: 0.00034999847412109375
ell 402, elapsed: 0.0056688785552978516
ell 401, elapsed: 0.0003790855407714844
ell 400, elapsed: 0.0006990432739257812
ell 399, elapsed: 0.0003540515899658203
ell 398, elapsed: 0.00035500526428222656
ell 302, elapsed: 0.005486011505126953
ell 301, elapsed: 0.0005190372467041016
ell 300, elapsed: 0.0010170936584472656
ell 299, elapsed: 0.0005249977111816406
ell 298, elapsed: 0.0004451274871826172
ell 202, elapsed: 0.005925893783569336
ell 201, elapsed: 0.0009810924530029297
ell 200, elapsed: 0.0003790855407714844
ell 199, elapsed: 0.00035500526428222656
ell 198, elapsed: 0.0003509521484375
ell 152, elapsed: 0.0034520626068115234
ell 151, elapsed: 0.0004601478576660156
ell 150, elapsed: 0.0005590915679931641
ell 149, elapsed: 0.0005371570587158203
ell 148, elapsed: 0.0004990100860595703
ell 127, elapsed: 0.0021080970764160156
ell 126, elapsed: 0.000514984130859375
ell 125, elapsed: 0.0005309581756591797
ell 124, elapsed: 0.00034999847412109375
ell 123, elapsed: 0.00034809112548828125
ell 114, elapsed: 0.0012509822845458984
ell 113, elapsed: 0.0003581047058105469
ell 112, elapsed: 0.0003509521484375
ell 111, elapsed: 0.0003521442413330078
ell 110, elapsed: 0.00035190582275390625
ell 102, elapsed: 0.0008399486541748047
ell 101, elapsed: 0.0003528594970703125
ell 100, elapsed: 0.0008831024169921875
ell 99, elapsed: 0.00035691261291503906
ell 98, elapsed: 0.0003540515899658203
ell 97, elapsed: 0.0004000663757324219
ell 96, elapsed: 0.00048804283142089844
ell 95, elapsed: 0.00040602684020996094
ell 94, elapsed: 0.0004749298095703125
ell 93, elapsed: 0.000392913818359375
ell 92, elapsed: 0.0008649826049804688
ell 91, elapsed: 0.0003979206085205078
ell 90, elapsed: 0.00045108795166015625
ell 89, elapsed: 0.0003829002380371094
ell 88, elapsed: 0.00045800209045410156
ell 87, elapsed: 0.00038695335388183594
ell 86, elapsed: 0.0004601478576660156
ell 85, elapsed: 0.0003879070281982422
ell 84, elapsed: 0.0008509159088134766
ell 83, elapsed: 0.0003941059112548828
ell 82, elapsed: 0.0004639625549316406
ell 81, elapsed: 0.0005230903625488281
ell 80, elapsed: 0.0005681514739990234
ell 79, elapsed: 0.0003960132598876953
ell 78, elapsed: 0.0004608631134033203
ell 77, elapsed: 0.0006949901580810547
ell 76, elapsed: 0.0005440711975097656
ell 75, elapsed: 0.0005500316619873047
ell 74, elapsed: 0.0004639625549316406
ell 73, elapsed: 0.0003960132598876953
ell 72, elapsed: 0.0004570484161376953
ell 71, elapsed: 0.00039696693420410156
ell 70, elapsed: 0.00045680999755859375
ell 69, elapsed: 0.000698089599609375
ell 68, elapsed: 0.0004630088806152344
ell 67, elapsed: 0.0003848075866699219
ell 66, elapsed: 0.00045990943908691406
ell 65, elapsed: 0.0003898143768310547
ell 64, elapsed: 0.0004699230194091797
ell 63, elapsed: 0.0003898143768310547
ell 62, elapsed: 0.00045800209045410156
ell 61, elapsed: 0.0007190704345703125
ell 60, elapsed: 0.0004799365997314453
ell 59, elapsed: 0.0003910064697265625
ell 58, elapsed: 0.0004639625549316406
ell 57, elapsed: 0.0004918575286865234
ell 56, elapsed: 0.0006110668182373047
ell 55, elapsed: 0.00039696693420410156
ell 54, elapsed: 0.0008530616760253906
ell 53, elapsed: 0.00039386749267578125
ell 52, elapsed: 0.0004639625549316406
ell 51, elapsed: 0.0003921985626220703
ell 50, elapsed: 0.0004570484161376953
ell 49, elapsed: 0.0003948211669921875
ell 48, elapsed: 0.0004680156707763672
ell 47, elapsed: 0.0005030632019042969
ell 46, elapsed: 0.001074075698852539
ell 45, elapsed: 0.0005319118499755859
ell 44, elapsed: 0.00046896934509277344
ell 43, elapsed: 0.0005490779876708984
ell 42, elapsed: 0.0006420612335205078
ell 41, elapsed: 0.0005559921264648438
ell 40, elapsed: 0.0010080337524414062
ell 39, elapsed: 0.0005249977111816406
ell 38, elapsed: 0.0007028579711914062
ell 37, elapsed: 0.0006210803985595703
ell 36, elapsed: 0.0007028579711914062
ell 35, elapsed: 0.0008020401000976562
ell 34, elapsed: 0.0005941390991210938
ell 33, elapsed: 0.0005140304565429688
ell 32, elapsed: 0.0006000995635986328
ell 31, elapsed: 0.0004849433898925781
ell 30, elapsed: 0.0006489753723144531
ell 29, elapsed: 0.0008580684661865234
ell 28, elapsed: 0.0005650520324707031
ell 27, elapsed: 0.0005419254302978516
ell 26, elapsed: 0.0004680156707763672
ell 25, elapsed: 0.0004019737243652344
ell 24, elapsed: 0.0004658699035644531
ell 23, elapsed: 0.0004839897155761719
ell 22, elapsed: 0.0010890960693359375
ell 21, elapsed: 0.0003979206085205078
ell 20, elapsed: 0.0004639625549316406
ell 19, elapsed: 0.00040411949157714844
[...]
ell 781, elapsed: 0.000865936279296875
ell 780, elapsed: 0.0009181499481201172
ell 779, elapsed: 0.0008878707885742188
ell 778, elapsed: 0.00084686279296875
ell 772, elapsed: 0.0015709400177001953
ell 771, elapsed: 0.0008440017700195312
ell 770, elapsed: 0.0008280277252197266
ell 769, elapsed: 0.0008769035339355469
ell 768, elapsed: 0.0008909702301025391
ell 762, elapsed: 0.001714944839477539
ell 761, elapsed: 0.0008959770202636719
ell 760, elapsed: 0.0008971691131591797
ell 759, elapsed: 0.0008919239044189453
ell 758, elapsed: 0.0008909702301025391
ell 752, elapsed: 0.0018420219421386719
ell 751, elapsed: 0.0008361339569091797
ell 750, elapsed: 0.0009131431579589844
ell 749, elapsed: 0.0008919239044189453
ell 748, elapsed: 0.0009140968322753906
ell 742, elapsed: 0.0017158985137939453
ell 741, elapsed: 0.0009019374847412109
ell 740, elapsed: 0.0009679794311523438
ell 739, elapsed: 0.0009028911590576172
ell 738, elapsed: 0.0009148120880126953
ell 732, elapsed: 0.0017201900482177734
ell 731, elapsed: 0.0009090900421142578
ell 730, elapsed: 0.0009250640869140625
ell 729, elapsed: 0.0009129047393798828
ell 728, elapsed: 0.0008981227874755859
ell 722, elapsed: 0.001714944839477539
ell 721, elapsed: 0.0009360313415527344
ell 720, elapsed: 0.0009100437164306641
ell 719, elapsed: 0.0009369850158691406
ell 718, elapsed: 0.0009150505065917969
ell 712, elapsed: 0.0017518997192382812
ell 711, elapsed: 0.0009400844573974609
ell 710, elapsed: 0.000946044921875
ell 709, elapsed: 0.0009489059448242188
ell 708, elapsed: 0.0009071826934814453
ell 702, elapsed: 0.0017840862274169922
ell 701, elapsed: 0.0009338855743408203
ell 700, elapsed: 0.0009348392486572266
ell 699, elapsed: 0.0009288787841796875
ell 698, elapsed: 0.0008358955383300781
ell 692, elapsed: 0.0015659332275390625
ell 691, elapsed: 0.000865936279296875
ell 690, elapsed: 0.0008530616760253906
ell 689, elapsed: 0.0008070468902587891
ell 688, elapsed: 0.000885009765625
ell 682, elapsed: 0.0017011165618896484
ell 681, elapsed: 0.0008790493011474609
ell 680, elapsed: 0.0009660720825195312
ell 679, elapsed: 0.0009729862213134766
ell 678, elapsed: 0.0009298324584960938
ell 672, elapsed: 0.0016138553619384766
ell 671, elapsed: 0.000904083251953125
ell 670, elapsed: 0.0009169578552246094
ell 669, elapsed: 0.0009188652038574219
ell 668, elapsed: 0.0009319782257080078
ell 662, elapsed: 0.0017418861389160156
ell 661, elapsed: 0.0009410381317138672
ell 660, elapsed: 0.0009140968322753906
ell 659, elapsed: 0.0008959770202636719
ell 658, elapsed: 0.0009160041809082031
ell 652, elapsed: 0.0019521713256835938
ell 651, elapsed: 0.0008859634399414062
ell 650, elapsed: 0.0008928775787353516
ell 649, elapsed: 0.0008649826049804688
ell 648, elapsed: 0.0009419918060302734
ell 642, elapsed: 0.0018868446350097656
ell 641, elapsed: 0.0008549690246582031
ell 640, elapsed: 0.0007970333099365234
ell 639, elapsed: 0.0008409023284912109
ell 638, elapsed: 0.0008339881896972656
ell 632, elapsed: 0.0015180110931396484
ell 631, elapsed: 0.000865936279296875
ell 630, elapsed: 0.0009198188781738281
ell 629, elapsed: 0.0009391307830810547
ell 628, elapsed: 0.0009179115295410156
ell 622, elapsed: 0.0016710758209228516
ell 621, elapsed: 0.0008749961853027344
ell 620, elapsed: 0.0008521080017089844
ell 619, elapsed: 0.0008530616760253906
ell 618, elapsed: 0.000843048095703125
ell 612, elapsed: 0.0016598701477050781
ell 611, elapsed: 0.0008580684661865234
ell 610, elapsed: 0.0008590221405029297
ell 609, elapsed: 0.0008568763732910156
ell 608, elapsed: 0.0008637905120849609
ell 602, elapsed: 0.001641988754272461
ell 601, elapsed: 0.0008549690246582031
ell 600, elapsed: 0.0008571147918701172
ell 599, elapsed: 0.0008118152618408203
ell 598, elapsed: 0.0007708072662353516
ell 592, elapsed: 0.001689910888671875
ell 591, elapsed: 0.0008249282836914062
ell 590, elapsed: 0.0008411407470703125
ell 589, elapsed: 0.0008499622344970703
ell 588, elapsed: 0.0008499622344970703
ell 582, elapsed: 0.0016679763793945312
ell 581, elapsed: 0.0008618831634521484
ell 580, elapsed: 0.0008471012115478516
ell 579, elapsed: 0.0008559226989746094
ell 578, elapsed: 0.0008649826049804688
ell 572, elapsed: 0.0016629695892333984
ell 571, elapsed: 0.0008020401000976562
ell 570, elapsed: 0.0007650852203369141
ell 569, elapsed: 0.0008070468902587891
ell 568, elapsed: 0.0007970333099365234
ell 562, elapsed: 0.0014231204986572266
ell 561, elapsed: 0.0007729530334472656
ell 560, elapsed: 0.0008409023284912109
ell 559, elapsed: 0.0008161067962646484
ell 558, elapsed: 0.0008080005645751953
ell 552, elapsed: 0.0015590190887451172
ell 551, elapsed: 0.0008258819580078125
ell 550, elapsed: 0.0007960796356201172
ell 549, elapsed: 0.0008001327514648438
ell 548, elapsed: 0.0008189678192138672
ell 542, elapsed: 0.0016379356384277344
ell 541, elapsed: 0.0008039474487304688
ell 540, elapsed: 0.0008180141448974609
ell 539, elapsed: 0.0008690357208251953
ell 538, elapsed: 0.0008499622344970703
ell 532, elapsed: 0.0016548633575439453
ell 531, elapsed: 0.0009019374847412109
ell 530, elapsed: 0.0008640289306640625
ell 529, elapsed: 0.00084686279296875
ell 528, elapsed: 0.0008561611175537109
ell 522, elapsed: 0.0016989707946777344
ell 521, elapsed: 0.0008559226989746094
ell 520, elapsed: 0.0008549690246582031
ell 519, elapsed: 0.0008530616760253906
ell 518, elapsed: 0.0008561611175537109
ell 512, elapsed: 0.0016391277313232422
ell 511, elapsed: 0.0008530616760253906
ell 510, elapsed: 0.0008561611175537109
ell 509, elapsed: 0.0008618831634521484
ell 508, elapsed: 0.0008549690246582031
ell 502, elapsed: 0.0015828609466552734
ell 501, elapsed: 0.0008502006530761719
ell 500, elapsed: 0.0008680820465087891
ell 499, elapsed: 0.0008521080017089844
ell 498, elapsed: 0.0008618831634521484
ell 492, elapsed: 0.0016548633575439453
ell 491, elapsed: 0.0008571147918701172
ell 490, elapsed: 0.0008571147918701172
ell 489, elapsed: 0.0008571147918701172
ell 488, elapsed: 0.0008680820465087891
ell 482, elapsed: 0.0016551017761230469
ell 481, elapsed: 0.0008630752563476562
ell 480, elapsed: 0.0008590221405029297
ell 479, elapsed: 0.0008771419525146484
ell 478, elapsed: 0.0008559226989746094
ell 472, elapsed: 0.0016858577728271484
ell 471, elapsed: 0.0008699893951416016
ell 470, elapsed: 0.0008590221405029297
ell 469, elapsed: 0.0008530616760253906
ell 468, elapsed: 0.0008611679077148438
ell 462, elapsed: 0.0016717910766601562
ell 461, elapsed: 0.0008680820465087891
ell 460, elapsed: 0.0008528232574462891
ell 459, elapsed: 0.0008540153503417969
ell 458, elapsed: 0.0008680820465087891
ell 452, elapsed: 0.001628875732421875
ell 451, elapsed: 0.0008640289306640625
ell 450, elapsed: 0.0008599758148193359
ell 449, elapsed: 0.0008480548858642578
ell 448, elapsed: 0.0008590221405029297
ell 442, elapsed: 0.0016460418701171875
ell 441, elapsed: 0.0008730888366699219
ell 440, elapsed: 0.0008559226989746094
ell 439, elapsed: 0.0008571147918701172
ell 438, elapsed: 0.0008540153503417969
ell 432, elapsed: 0.0016849040985107422
ell 431, elapsed: 0.0008630752563476562
ell 430, elapsed: 0.0008571147918701172
ell 429, elapsed: 0.0008561611175537109
ell 428, elapsed: 0.0009019374847412109
ell 422, elapsed: 0.0016148090362548828
ell 421, elapsed: 0.0008590221405029297
ell 420, elapsed: 0.0008630752563476562
ell 419, elapsed: 0.0008301734924316406
ell 418, elapsed: 0.0008249282836914062
ell 412, elapsed: 0.0016319751739501953
ell 411, elapsed: 0.0008459091186523438
ell 410, elapsed: 0.0008280277252197266
ell 409, elapsed: 0.0008258819580078125
ell 408, elapsed: 0.0008349418640136719
ell 402, elapsed: 0.0016450881958007812
ell 401, elapsed: 0.0008349418640136719
ell 400, elapsed: 0.0008258819580078125
ell 399, elapsed: 0.000823974609375
ell 398, elapsed: 0.0008420944213867188
ell 392, elapsed: 0.00162506103515625
ell 391, elapsed: 0.0008440017700195312
ell 390, elapsed: 0.0008349418640136719
ell 389, elapsed: 0.0008618831634521484
ell 388, elapsed: 0.0008509159088134766
ell 382, elapsed: 0.0016410350799560547
ell 381, elapsed: 0.0008420944213867188
ell 380, elapsed: 0.0008471012115478516
ell 379, elapsed: 0.0008289813995361328
ell 378, elapsed: 0.0008211135864257812
ell 372, elapsed: 0.0016169548034667969
ell 371, elapsed: 0.0008480548858642578
ell 370, elapsed: 0.0008349418640136719
ell 369, elapsed: 0.0008249282836914062
ell 368, elapsed: 0.0008320808410644531
ell 362, elapsed: 0.0018470287322998047
ell 361, elapsed: 0.00078582763671875
ell 360, elapsed: 0.0008318424224853516
ell 359, elapsed: 0.0008399486541748047
ell 358, elapsed: 0.0008320808410644531
ell 352, elapsed: 0.0016269683837890625
ell 351, elapsed: 0.0008289813995361328
ell 350, elapsed: 0.0008480548858642578
ell 349, elapsed: 0.0008518695831298828
ell 348, elapsed: 0.0010759830474853516
ell 342, elapsed: 0.0017039775848388672
ell 341, elapsed: 0.0008947849273681641
ell 340, elapsed: 0.0008609294891357422
ell 339, elapsed: 0.0008940696716308594
ell 338, elapsed: 0.0008649826049804688
ell 332, elapsed: 0.0016698837280273438
ell 331, elapsed: 0.0009021759033203125
ell 330, elapsed: 0.0009009838104248047
ell 329, elapsed: 0.0009038448333740234
ell 328, elapsed: 0.0008959770202636719
ell 322, elapsed: 0.0017518997192382812
ell 321, elapsed: 0.0009109973907470703
ell 320, elapsed: 0.0008978843688964844
ell 319, elapsed: 0.0008878707885742188
ell 318, elapsed: 0.0008928775787353516
ell 312, elapsed: 0.001783132553100586
ell 311, elapsed: 0.0008990764617919922
ell 310, elapsed: 0.0009050369262695312
ell 309, elapsed: 0.0008981227874755859
ell 308, elapsed: 0.0009341239929199219
ell 302, elapsed: 0.0017969608306884766
ell 301, elapsed: 0.0009310245513916016
ell 300, elapsed: 0.0009379386901855469
ell 299, elapsed: 0.0009360313415527344
ell 298, elapsed: 0.0009260177612304688
ell 292, elapsed: 0.0018191337585449219
ell 291, elapsed: 0.0009310245513916016
ell 290, elapsed: 0.0009229183197021484
ell 289, elapsed: 0.0009260177612304688
ell 288, elapsed: 0.0009779930114746094
ell 282, elapsed: 0.0015568733215332031
ell 281, elapsed: 0.0008180141448974609
ell 280, elapsed: 0.0008180141448974609
ell 279, elapsed: 0.0008320808410644531
ell 278, elapsed: 0.0008141994476318359
ell 272, elapsed: 0.0015649795532226562
ell 271, elapsed: 0.0008158683776855469
ell 270, elapsed: 0.0008218288421630859
ell 269, elapsed: 0.0008921623229980469
ell 268, elapsed: 0.0008969306945800781
ell 262, elapsed: 0.0017230510711669922
ell 261, elapsed: 0.0008921623229980469
ell 260, elapsed: 0.0008988380432128906
ell 259, elapsed: 0.0008008480072021484
ell 258, elapsed: 0.0007979869842529297
ell 252, elapsed: 0.001589059829711914
ell 251, elapsed: 0.0008060932159423828
ell 250, elapsed: 0.0009260177612304688
ell 249, elapsed: 0.0008559226989746094
ell 248, elapsed: 0.0009050369262695312
ell 242, elapsed: 0.0016100406646728516
ell 241, elapsed: 0.0010020732879638672
ell 240, elapsed: 0.0008590221405029297
ell 239, elapsed: 0.0009009838104248047
ell 238, elapsed: 0.0009088516235351562
ell 232, elapsed: 0.0018050670623779297
ell 231, elapsed: 0.0009372234344482422
ell 230, elapsed: 0.0008721351623535156
ell 229, elapsed: 0.0008862018585205078
ell 228, elapsed: 0.000904083251953125
ell 222, elapsed: 0.00164794921875
ell 221, elapsed: 0.0009679794311523438
ell 220, elapsed: 0.000926971435546875
ell 219, elapsed: 0.0009379386901855469
ell 218, elapsed: 0.0009100437164306641
ell 212, elapsed: 0.0017421245574951172
ell 211, elapsed: 0.000982046127319336
ell 210, elapsed: 0.0009250640869140625
ell 209, elapsed: 0.0009200572967529297
ell 208, elapsed: 0.0009200572967529297
ell 202, elapsed: 0.0017659664154052734
ell 201, elapsed: 0.0009229183197021484
ell 200, elapsed: 0.0009188652038574219
ell 199, elapsed: 0.0009410381317138672
ell 198, elapsed: 0.0009241104125976562
ell 192, elapsed: 0.002073049545288086
ell 191, elapsed: 0.0009298324584960938
ell 190, elapsed: 0.0011839866638183594
ell 189, elapsed: 0.0011839866638183594
ell 188, elapsed: 0.0013358592987060547
ell 182, elapsed: 0.0016369819641113281
ell 181, elapsed: 0.0009329319000244141
ell 180, elapsed: 0.0009279251098632812
ell 179, elapsed: 0.0009410381317138672
ell 178, elapsed: 0.0008409023284912109
ell 172, elapsed: 0.001764059066772461
ell 171, elapsed: 0.0009329319000244141
ell 170, elapsed: 0.0009300708770751953
ell 169, elapsed: 0.000926971435546875
ell 168, elapsed: 0.0009288787841796875
ell 162, elapsed: 0.0017709732055664062
ell 161, elapsed: 0.0009279251098632812
ell 160, elapsed: 0.000926971435546875
ell 159, elapsed: 0.0009410381317138672
ell 158, elapsed: 0.0009260177612304688
ell 152, elapsed: 0.00179290771484375
ell 151, elapsed: 0.0009322166442871094
ell 150, elapsed: 0.0009410381317138672
ell 149, elapsed: 0.0009250640869140625
ell 148, elapsed: 0.0009307861328125
ell 142, elapsed: 0.0016949176788330078
ell 141, elapsed: 0.0008881092071533203
ell 140, elapsed: 0.0008890628814697266
ell 139, elapsed: 0.0008859634399414062
ell 138, elapsed: 0.0009109973907470703
ell 132, elapsed: 0.0017421245574951172
ell 131, elapsed: 0.0008738040924072266
ell 130, elapsed: 0.0009219646453857422
ell 129, elapsed: 0.0008370876312255859
ell 128, elapsed: 0.0009260177612304688
ell 122, elapsed: 0.0015940666198730469
ell 121, elapsed: 0.0009148120880126953
ell 120, elapsed: 0.0009250640869140625
ell 119, elapsed: 0.0008962154388427734
ell 118, elapsed: 0.0009100437164306641
ell 112, elapsed: 0.0017020702362060547
ell 111, elapsed: 0.0008680820465087891
ell 110, elapsed: 0.0009140968322753906
ell 109, elapsed: 0.0008280277252197266
ell 108, elapsed: 0.0009200572967529297
ell 102, elapsed: 0.0017578601837158203
ell 101, elapsed: 0.002933025360107422
ell 100, elapsed: 0.0024449825286865234
ell 99, elapsed: 0.0034961700439453125
ell 98, elapsed: 0.0035250186920166016
ell 92, elapsed: 0.006720066070556641
ell 91, elapsed: 0.0035719871520996094
ell 90, elapsed: 0.00393986701965332
ell 89, elapsed: 0.004777193069458008
ell 88, elapsed: 0.0035321712493896484
ell 82, elapsed: 0.009495973587036133
ell 81, elapsed: 0.0034940242767333984
ell 80, elapsed: 0.003525972366333008
ell 79, elapsed: 0.006575107574462891
ell 78, elapsed: 0.003529071807861328
ell 72, elapsed: 0.010430097579956055
ell 71, elapsed: 0.0036401748657226562
ell 70, elapsed: 0.003534078598022461
ell 69, elapsed: 0.003545999526977539
ell 68, elapsed: 0.0035181045532226562
ell 62, elapsed: 0.010650873184204102
ell 61, elapsed: 0.0038149356842041016
ell 60, elapsed: 0.0038199424743652344
ell 59, elapsed: 0.0030608177185058594
ell 58, elapsed: 0.0030689239501953125
ell 52, elapsed: 0.0058100223541259766
ell 51, elapsed: 0.0027348995208740234
ell 50, elapsed: 0.003818988800048828
ell 49, elapsed: 0.0037758350372314453
ell 48, elapsed: 0.003849029541015625
ell 42, elapsed: 0.007097005844116211
ell 41, elapsed: 0.003615140914916992
ell 40, elapsed: 0.003701925277709961
ell 39, elapsed: 0.003881216049194336
ell 38, elapsed: 0.0036270618438720703
ell 32, elapsed: 0.006556034088134766
ell 31, elapsed: 0.0036199092864990234
ell 30, elapsed: 0.003670215606689453
ell 29, elapsed: 0.003652811050415039
ell 28, elapsed: 0.003671884536743164
ell 22, elapsed: 0.007485866546630859
ell 21, elapsed: 0.0032138824462890625
ell 20, elapsed: 0.0036749839782714844
ell 19, elapsed: 0.0033860206604003906
ell 18, elapsed: 0.004014015197753906
ell 12, elapsed: 0.006765127182006836
ell 11, elapsed: 0.0035839080810546875
ell 10, elapsed: 0.0036101341247558594
ell 9, elapsed: 0.003654003143310547
ell 8, elapsed: 0.003936052322387695
  0.872840 seconds (66.75 k allocations: 12.139 MiB)
elapsed: 0.00610804557800293
step:          0.084081 sec (0 allocations: 0 byte, 0.0% gc time)
swapping:      0.000762 sec (0 allocations: 0 byte, 0.0% gc time)
calc_Mellell!: 0.045908 sec (0 allocations: 0 byte, 0.0% gc time)
  t0 :  0.010022 sec (0 allocations: 0 byte, 0.0% gc time)
  tm2 : 0.080828 sec (0 allocations: 0 byte, 0.0% gc time)
  tm2s: 0.008831 sec (0 allocations: 0 byte, 0.0% gc time)
  tm4 : 0.184104 sec (0 allocations: 0 byte, 0.0% gc time)
  tp2 : 0.0 sec (0 allocations: 0 byte, 0.0% gc time)
  tp2s: 0.0 sec (0 allocations: 0 byte, 0.0% gc time)
  tp4 : 0.0 sec (0 allocations: 0 byte, 0.0% gc time)
calc_wtdll!:   0.550827 sec (49.2 k allocations: 11.133 MB, 0.0% gc time)
calc_wljj!:    0.040813 sec (69 allocations: 1.078 KB, 0.0% gc time)
mult_prefac!:  0.0 sec (0 allocations: 0 byte, 0.0% gc time)
convert:       0.0 sec (0 allocations: 0 byte, 0.0% gc time)
write:         0.035451 sec (0 allocations: 0 byte, 0.0% gc time)
test_rand_2f1: 0.0 sec (0 allocations: 0 byte, 0.0% gc time)
Closing outfile out/MlCache/MlCache.bin...   0.000011 seconds
xi, l=0, nu=0:   0.515929 seconds (650.41 k allocations: 31.239 MiB, 3.98% gc time)
xi, l=0, nu=-2:  0.007542 seconds (423 allocations: 177.078 KiB)
Created 'out/xi.tsv'.
  q=1.1, R=0.6:	  0.775768 seconds (291.08 k allocations: 38.895 MiB, 1.78% gc time)
  q=1.1, R=0.7:	  0.862680 seconds (304.75 k allocations: 40.996 MiB, 1.10% gc time)
  q=1.1, R=0.8:	  0.942311 seconds (299.14 k allocations: 40.132 MiB, 2.46% gc time)
  q=1.1, R=0.9:	  1.023585 seconds (293.57 k allocations: 39.286 MiB, 0.73% gc time)
  q=1.1, R=0.998:	 21.551997 seconds (10.67 M allocations: 823.460 MiB, 0.25% gc time)
  q=1.1, R=1.0:	  0.007771 seconds (10.24 k allocations: 768.375 KiB, 36.93% gc time)

ℓ = 1000
Δℓ = 4
ΔℓRg1 = -4
N = 4096
q = 1.1
kmin = 1.0e-5
kmax = 1000.0
χ0 = 0.001
RR = RR.tsv
ℓmax = ℓmax.bin
f21 = f21.bin
kmin = 1.0e-5
kmax = 1000.0
dlrec    = 4
dlrecRg1 = -4
Output size: 1573632 bytes = 0.0014655590057373047 GiB
Output size: 786816 bytes = 0.0007327795028686523 GiB
Reading 'out/F21EllCache'...   0.001407 seconds (268 allocations: 533.531 KiB)
ellmax: 1002
lmaxcache: 1000
fell[:,1,1] = Complex{Float64}[1.7262928128202118e-224 - 4.2281979352226944e-240im, 1.7282693092099662e-224 - 4.233038955177176e-240im]
ell 1002, elapsed: 8.20159912109375e-5
ell 1001, elapsed: 0.000843048095703125
ell 1000, elapsed: 0.0007908344268798828
ell 999, elapsed: 0.0072290897369384766
ell 998, elapsed: 0.006846189498901367
ell 44, elapsed: 0.6863110065460205
ell 43, elapsed: 0.005860090255737305
ell 42, elapsed: 0.005758047103881836
ell 41, elapsed: 0.005909919738769531
ell 40, elapsed: 0.005616188049316406
  0.733171 seconds (4.55 k allocations: 320.359 KiB)
elapsed: 0.006806135177612305
step:          0.67888 sec (0 allocations: 0 byte, 0.0% gc time)
swapping:      0.000516 sec (0 allocations: 0 byte, 0.0% gc time)
calc_Mellell!: 0.001245 sec (0 allocations: 0 byte, 0.0% gc time)
  t0 :  0.000404 sec (0 allocations: 0 byte, 0.0% gc time)
  tm2 : 0.011327 sec (0 allocations: 0 byte, 0.0% gc time)
  tm2s: 0.000302 sec (0 allocations: 0 byte, 0.0% gc time)
  tm4 : 0.029309 sec (0 allocations: 0 byte, 0.0% gc time)
  tp2 : 0.0 sec (0 allocations: 0 byte, 0.0% gc time)
  tp2s: 0.0 sec (0 allocations: 0 byte, 0.0% gc time)
  tp4 : 0.0 sec (0 allocations: 0 byte, 0.0% gc time)
calc_wtdll!:   0.041524 sec (480 allocations: 52.5 KB, 0.0% gc time)
calc_wljj!:    0.001053 sec (1 allocations: 16 byte, 0.0% gc time)
mult_prefac!:  0.0 sec (0 allocations: 0 byte, 0.0% gc time)
convert:       0.0 sec (0 allocations: 0 byte, 0.0% gc time)
write:         0.000953 sec (0 allocations: 0 byte, 0.0% gc time)
test_rand_2f1: 0.0 sec (0 allocations: 0 byte, 0.0% gc time)
Closing outfile out/MlCache/MlCache.bin...   0.000007 seconds
  1.204422 seconds (584.83 k allocations: 57.370 MiB, 0.91% gc time)
make_phi():   0.017103 seconds (225 allocations: 290.906 KiB)
  0.005645 seconds (6.00 k allocations: 616.891 KiB)
tskip:       1.0e-6 sec (0 allocations: 0 byte, 0.0% gc time)
tread:       0.000786 sec (19 allocations: 1.312 KB, 0.0% gc time)
tmultphi:    0.000319 sec (0 allocations: 0 byte, 0.0% gc time)
tbrfft:      0.00357 sec (5.989 k allocations: 615.578 KB, 0.0% gc time)
tmultprefac: 0.001002 sec (0 allocations: 0 byte, 0.0% gc time)
toutfunc:    0.00012 sec (0 allocations: 0 byte, 0.0% gc time)
Created 'out/wl42_jj00.tsv'.
Created 'out/wl42_jj02.tsv'.
    Testing TwoFAST tests passed 
