Julia Version 1.5.0-DEV.565
Commit e7886ad9e1 (2020-04-02 17:34 UTC)
Platform Info:
  OS: Linux (x86_64-linux-gnu)
  CPU: Intel(R) Xeon(R) Silver 4114 CPU @ 2.20GHz
  WORD_SIZE: 64
  LIBM: libopenlibm
  LLVM: libLLVM-9.0.1 (ORCJIT, skylake)
Environment:
  JULIA_DEPOT_PATH = ::/usr/local/share/julia
  JULIA_NUM_THREADS = 2

  Resolving package versions...
  Installed IntelOpenMP_jll ── v2018.0.3+0
  Installed Reexport ───────── v0.2.0
  Installed FFTW_jll ───────── v3.3.9+5
  Installed BinDeps ────────── v1.0.0
  Installed FFTW ───────────── v1.2.0
  Installed SpecialFunctions ─ v0.8.0
  Installed BinaryProvider ─── v0.5.8
  Installed URIParser ──────── v0.4.0
  Installed MKL_jll ────────── v2019.0.117+2
  Installed AbstractFFTs ───── v0.5.0
  Installed IncGammaBeta ───── v0.1.0
  Installed TwoFAST ────────── v0.1.0
  Installed AbstractAlgebra ── v0.7.1
  Installed Nemo ───────────── v0.15.1
   Updating `~/.julia/environments/v1.5/Project.toml`
   0dd23c3e + TwoFAST v0.1.0
   Updating `~/.julia/environments/v1.5/Manifest.toml`
   c3fe647b + AbstractAlgebra v0.7.1
   621f4979 + AbstractFFTs v0.5.0
   9e28174c + BinDeps v1.0.0
   b99e7846 + BinaryProvider v0.5.8
   7a1cc6ca + FFTW v1.2.0
   f5851436 + FFTW_jll v3.3.9+5
   5087d2c0 + IncGammaBeta v0.1.0
   1d5cc7b8 + IntelOpenMP_jll v2018.0.3+0
   856f044c + MKL_jll v2019.0.117+2
   2edaba10 + Nemo v0.15.1
   189a3867 + Reexport v0.2.0
   276daf66 + SpecialFunctions v0.8.0
   0dd23c3e + TwoFAST v0.1.0
   30578b45 + URIParser v0.4.0
   2a0f44e3 + Base64
   ade2ca70 + Dates
   8bb1440f + DelimitedFiles
   8ba89e20 + Distributed
   b77e0a4c + InteractiveUtils
   76f85450 + LibGit2
   8f399da3 + Libdl
   37e2e46d + LinearAlgebra
   56ddb016 + Logging
   d6f4376e + Markdown
   a63ad114 + Mmap
   44cfe95a + Pkg
   de0858da + Printf
   3fa0cd96 + REPL
   9a3f8284 + Random
   ea8e919c + SHA
   9e88b42a + Serialization
   6462fe0b + Sockets
   2f01184e + SparseArrays
   8dfed614 + Test
   cf7118a7 + UUIDs
   4ec0a83e + Unicode
   Building SpecialFunctions → `~/.julia/packages/SpecialFunctions/ne2iw/deps/build.log`
┌ Error: Error building `SpecialFunctions`: 
│ [ Info: Downloading https://github.com/JuliaPackaging/Yggdrasil/releases/download/OpenSpecFun-v0.5.3+0/OpenSpecFun.v0.5.3.x86_64-linux-gnu-gcc7.tar.gz to /home/pkgeval/.julia/packages/SpecialFunctions/ne2iw/deps/usr/downloads/OpenSpecFun.v0.5.3.x86_64-linux-gnu-gcc7.tar.gz...
│ ERROR: LoadError: Could not download https://github.com/JuliaPackaging/Yggdrasil/releases/download/OpenSpecFun-v0.5.3+0/OpenSpecFun.v0.5.3.x86_64-linux-gnu-gcc7.tar.gz to /home/pkgeval/.julia/packages/SpecialFunctions/ne2iw/deps/usr/downloads/OpenSpecFun.v0.5.3.x86_64-linux-gnu-gcc7.tar.gz:
│ ErrorException("")
│ Stacktrace:
│  [1] error(::String) at ./error.jl:33
│  [2] download(::String, ::String; verbose::Bool) at /home/pkgeval/.julia/packages/BinaryProvider/kcGxO/src/PlatformEngines.jl:502
│  [3] download_verify(::String, ::String, ::String; verbose::Bool, force::Bool, quiet_download::Bool) at /home/pkgeval/.julia/packages/BinaryProvider/kcGxO/src/PlatformEngines.jl:571
│  [4] install(::String, ::String; prefix::Prefix, tarball_path::String, force::Bool, ignore_platform::Bool, verbose::Bool) at /home/pkgeval/.julia/packages/BinaryProvider/kcGxO/src/Prefix.jl:314
│  [5] top-level scope at /home/pkgeval/.julia/packages/SpecialFunctions/ne2iw/deps/build.jl:142
│  [6] include(::String) at ./client.jl:441
│  [7] top-level scope at none:5
│ in expression starting at /home/pkgeval/.julia/packages/SpecialFunctions/ne2iw/deps/build.jl:139
│ caused by [exception 1]
│ 
│ Stacktrace:
│  [1] error() at ./error.jl:42
│  [2] download(::String, ::String; verbose::Bool) at /home/pkgeval/.julia/packages/BinaryProvider/kcGxO/src/PlatformEngines.jl:496
│  [3] download_verify(::String, ::String, ::String; verbose::Bool, force::Bool, quiet_download::Bool) at /home/pkgeval/.julia/packages/BinaryProvider/kcGxO/src/PlatformEngines.jl:571
│  [4] install(::String, ::String; prefix::Prefix, tarball_path::String, force::Bool, ignore_platform::Bool, verbose::Bool) at /home/pkgeval/.julia/packages/BinaryProvider/kcGxO/src/Prefix.jl:314
│  [5] top-level scope at /home/pkgeval/.julia/packages/SpecialFunctions/ne2iw/deps/build.jl:142
│  [6] include(::String) at ./client.jl:441
│  [7] top-level scope at none:5
│ [20:19:53] #=#=#                                                                         [20:19:54] ##O#- #                                                                       [20:19:55] ##O=#  #                                                                      [20:19:56] #=#=-#  #                                                                     [20:19:57] -#O#- #   #                                                                   [20:19:58] -=#=#   #   #                                                                 [20:19:59] -=O#- #  #    #                                                               [20:20:00] -=O=#  #   #   #                                                              [20:20:01] -=O=-#  #    #   #                                                            [20:20:02] -=O=- #   #   #     #                                                         [20:20:03] -=O=-   #   #   #     #                                                       [20:20:04] -=O=-    #    #    #    #                                                     [20:20:04] -=O=-      #   #     #    #                                                   [20:20:04] 
│ [20:20:04] curl: (22) The requested URL returned error: 504 Gateway Time-out
└ @ Pkg.Operations /workspace/srcdir/usr/share/julia/stdlib/v1.5/Pkg/src/Operations.jl:912
   Building FFTW ────────────→ `~/.julia/packages/FFTW/qqcBj/deps/build.log`
   Building Nemo ────────────→ `~/.julia/packages/Nemo/qzx0m/deps/build.log`
┌ Error: Error building `Nemo`: 
│ ┌ Error: Download failed: curl: (22) The requested URL returned error: 504 Gateway Time-out
│ └ @ Base download.jl:43
│ ERROR: LoadError: failed process: Process(`curl -s -S -g -L -f -o /home/pkgeval/.julia/packages/Nemo/qzx0m/deps/build_GMP.v6.1.2.jl https://github.com/JuliaPackaging/Yggdrasil/releases/download/GMP-v6.1.2-1/build_GMP.v6.1.2.jl`, ProcessExited(22)) [22]
│ 
│ Stacktrace:
│  [1] pipeline_error at ./process.jl:525 [inlined]
│  [2] download_curl(::String, ::String, ::String) at ./download.jl:44
│  [3] download(::String, ::String) at ./download.jl:62
│  [4] top-level scope at /home/pkgeval/.julia/packages/Nemo/qzx0m/deps/build.jl:32
│  [5] include(::String) at ./client.jl:441
│  [6] top-level scope at none:5
│ in expression starting at /home/pkgeval/.julia/packages/Nemo/qzx0m/deps/build.jl:14
└ @ Pkg.Operations /workspace/srcdir/usr/share/julia/stdlib/v1.5/Pkg/src/Operations.jl:912
    Testing TwoFAST
     Status `/tmp/jl_boci3S/Project.toml`
   39dd38d3 Dierckx v0.4.1
   7a1cc6ca FFTW v1.2.0
   5087d2c0 IncGammaBeta v0.1.0
   2edaba10 Nemo v0.15.1
   276daf66 SpecialFunctions v0.8.0
   0dd23c3e TwoFAST v0.1.0
   8bb1440f DelimitedFiles
   37e2e46d LinearAlgebra
   56ddb016 Logging
   8dfed614 Test
     Status `/tmp/jl_boci3S/Manifest.toml`
   c3fe647b AbstractAlgebra v0.7.1
   621f4979 AbstractFFTs v0.5.0
   9e28174c BinDeps v1.0.0
   b99e7846 BinaryProvider v0.5.8
   39dd38d3 Dierckx v0.4.1
   7a1cc6ca FFTW v1.2.0
   f5851436 FFTW_jll v3.3.9+5
   5087d2c0 IncGammaBeta v0.1.0
   1d5cc7b8 IntelOpenMP_jll v2018.0.3+0
   856f044c MKL_jll v2019.0.117+2
   2edaba10 Nemo v0.15.1
   189a3867 Reexport v0.2.0
   276daf66 SpecialFunctions v0.8.0
   0dd23c3e TwoFAST v0.1.0
   30578b45 URIParser v0.4.0
   2a0f44e3 Base64
   ade2ca70 Dates
   8bb1440f DelimitedFiles
   8ba89e20 Distributed
   b77e0a4c InteractiveUtils
   76f85450 LibGit2
   8f399da3 Libdl
   37e2e46d LinearAlgebra
   56ddb016 Logging
   d6f4376e Markdown
   a63ad114 Mmap
   44cfe95a Pkg
   de0858da Printf
   3fa0cd96 REPL
   9a3f8284 Random
   ea8e919c SHA
   9e88b42a Serialization
   6462fe0b Sockets
   2f01184e SparseArrays
   8dfed614 Test
   cf7118a7 UUIDs
   4ec0a83e Unicode
ERROR: LoadError: SpecialFunctions is not installed properly, run `Pkg.build("SpecialFunctions")`,restart Julia and try again
Stacktrace:
 [1] error(::String) at ./error.jl:33
 [2] top-level scope at /home/pkgeval/.julia/packages/SpecialFunctions/ne2iw/src/SpecialFunctions.jl:6
 [3] include(::Function, ::Module, ::String) at ./Base.jl:380
 [4] include(::Module, ::String) at ./Base.jl:368
 [5] top-level scope at none:2
 [6] eval at ./boot.jl:331 [inlined]
 [7] eval(::Expr) at ./client.jl:451
 [8] top-level scope at ./none:3
in expression starting at /home/pkgeval/.julia/packages/SpecialFunctions/ne2iw/src/SpecialFunctions.jl:4
ERROR: LoadError: Failed to precompile SpecialFunctions [276daf66-3868-5448-9aa4-cd146d93841b] to /home/pkgeval/.julia/compiled/v1.5/SpecialFunctions/78gOt_cNqRO.ji.
Stacktrace:
 [1] error(::String) at ./error.jl:33
 [2] compilecache(::Base.PkgId, ::String) at ./loading.jl:1288
 [3] _require(::Base.PkgId) at ./loading.jl:1029
 [4] require(::Base.PkgId) at ./loading.jl:927
 [5] require(::Module, ::Symbol) at ./loading.jl:922
 [6] include(::Function, ::Module, ::String) at ./Base.jl:380
 [7] include(::Module, ::String) at ./Base.jl:368
 [8] top-level scope at none:2
 [9] eval at ./boot.jl:331 [inlined]
 [10] eval(::Expr) at ./client.jl:451
 [11] top-level scope at ./none:3
in expression starting at /home/pkgeval/.julia/packages/IncGammaBeta/BPDUe/src/IncGammaBeta.jl:15
ERROR: LoadError: Failed to precompile IncGammaBeta [5087d2c0-5ad2-51de-b1ef-eaf82f0743fd] to /home/pkgeval/.julia/compiled/v1.5/IncGammaBeta/3RPN2_cNqRO.ji.
Stacktrace:
 [1] error(::String) at ./error.jl:33
 [2] compilecache(::Base.PkgId, ::String) at ./loading.jl:1288
 [3] _require(::Base.PkgId) at ./loading.jl:1029
 [4] require(::Base.PkgId) at ./loading.jl:927
 [5] require(::Module, ::Symbol) at ./loading.jl:922
 [6] include(::Function, ::Module, ::String) at ./Base.jl:380
 [7] include(::Module, ::String) at ./Base.jl:368
 [8] top-level scope at none:2
 [9] eval at ./boot.jl:331 [inlined]
 [10] eval(::Expr) at ./client.jl:451
 [11] top-level scope at ./none:3
in expression starting at /home/pkgeval/.julia/packages/TwoFAST/qFLyR/src/TwoFAST.jl:17
ERROR: LoadError: LoadError: Failed to precompile TwoFAST [0dd23c3e-f403-11e8-3e11-4dddf690af97] to /home/pkgeval/.julia/compiled/v1.5/TwoFAST/XMkNK_cNqRO.ji.
Stacktrace:
 [1] error(::String) at ./error.jl:33
 [2] compilecache(::Base.PkgId, ::String) at ./loading.jl:1288
 [3] _require(::Base.PkgId) at ./loading.jl:1029
 [4] require(::Base.PkgId) at ./loading.jl:927
 [5] require(::Module, ::Symbol) at ./loading.jl:922
 [6] include(::Function, ::Module, ::String) at ./Base.jl:380
 [7] include at ./Base.jl:368 [inlined]
 [8] include(::String) at /home/pkgeval/.julia/packages/TwoFAST/qFLyR/test/runtests.jl:4
 [9] top-level scope at /home/pkgeval/.julia/packages/TwoFAST/qFLyR/test/runtests.jl:6
 [10] include(::String) at ./client.jl:441
 [11] top-level scope at none:6
in expression starting at /home/pkgeval/.julia/packages/TwoFAST/qFLyR/test/TwoFASTTestLib.jl:14
in expression starting at /home/pkgeval/.julia/packages/TwoFAST/qFLyR/test/runtests.jl:6
ERROR: Package TwoFAST errored during testing
Stacktrace:
 [1] pkgerror(::String, ::Vararg{String,N} where N) at /workspace/srcdir/usr/share/julia/stdlib/v1.5/Pkg/src/Types.jl:53
 [2] test(::Pkg.Types.Context, ::Array{Pkg.Types.PackageSpec,1}; coverage::Bool, julia_args::Cmd, test_args::Cmd, test_fn::Nothing) at /workspace/srcdir/usr/share/julia/stdlib/v1.5/Pkg/src/Operations.jl:1523
 [3] test(::Pkg.Types.Context, ::Array{Pkg.Types.PackageSpec,1}; coverage::Bool, test_fn::Nothing, julia_args::Cmd, test_args::Cmd, kwargs::Base.Iterators.Pairs{Union{},Union{},Tuple{},NamedTuple{(),Tuple{}}}) at /workspace/srcdir/usr/share/julia/stdlib/v1.5/Pkg/src/API.jl:316
 [4] test(::Pkg.Types.Context, ::Array{Pkg.Types.PackageSpec,1}) at /workspace/srcdir/usr/share/julia/stdlib/v1.5/Pkg/src/API.jl:303
 [5] #test#68 at /workspace/srcdir/usr/share/julia/stdlib/v1.5/Pkg/src/API.jl:297 [inlined]
 [6] test at /workspace/srcdir/usr/share/julia/stdlib/v1.5/Pkg/src/API.jl:297 [inlined]
 [7] #test#67 at /workspace/srcdir/usr/share/julia/stdlib/v1.5/Pkg/src/API.jl:296 [inlined]
 [8] test at /workspace/srcdir/usr/share/julia/stdlib/v1.5/Pkg/src/API.jl:296 [inlined]
 [9] test(::String; kwargs::Base.Iterators.Pairs{Union{},Union{},Tuple{},NamedTuple{(),Tuple{}}}) at /workspace/srcdir/usr/share/julia/stdlib/v1.5/Pkg/src/API.jl:295
 [10] test(::String) at /workspace/srcdir/usr/share/julia/stdlib/v1.5/Pkg/src/API.jl:295
 [11] top-level scope at none:16
