Julia Version 1.5.0-DEV.13
Commit dfcba8768f (2020-01-06 06:02 UTC)
Platform Info:
  OS: Linux (x86_64-linux-gnu)
  CPU: Intel(R) Xeon(R) Silver 4114 CPU @ 2.20GHz
  WORD_SIZE: 64
  LIBM: libopenlibm
  LLVM: libLLVM-8.0.1 (ORCJIT, skylake)
Environment:
  JULIA_DEPOT_PATH = ::/usr/local/share/julia

 Resolving package versions...
 Installed IntelOpenMP_jll ── v2018.0.3+0
 Installed IncGammaBeta ───── v0.1.0
 Installed AbstractFFTs ───── v0.5.0
 Installed BinDeps ────────── v1.0.0
 Installed BinaryProvider ─── v0.5.8
 Installed AbstractAlgebra ── v0.7.1
 Installed Nemo ───────────── v0.15.1
 Installed FFTW_jll ───────── v3.3.9+3
 Installed FFTW ───────────── v1.2.0
 Installed MKL_jll ────────── v2019.0.117+0
 Installed SpecialFunctions ─ v0.8.0
 Installed TwoFAST ────────── v0.1.0
 Installed Reexport ───────── v0.2.0
 Installed URIParser ──────── v0.4.0
  Updating `~/.julia/environments/v1.5/Project.toml`
  [0dd23c3e] + TwoFAST v0.1.0
  Updating `~/.julia/environments/v1.5/Manifest.toml`
  [c3fe647b] + AbstractAlgebra v0.7.1
  [621f4979] + AbstractFFTs v0.5.0
  [9e28174c] + BinDeps v1.0.0
  [b99e7846] + BinaryProvider v0.5.8
  [7a1cc6ca] + FFTW v1.2.0
  [f5851436] + FFTW_jll v3.3.9+3
  [5087d2c0] + IncGammaBeta v0.1.0
  [1d5cc7b8] + IntelOpenMP_jll v2018.0.3+0
  [856f044c] + MKL_jll v2019.0.117+0
  [2edaba10] + Nemo v0.15.1
  [189a3867] + Reexport v0.2.0
  [276daf66] + SpecialFunctions v0.8.0
  [0dd23c3e] + TwoFAST v0.1.0
  [30578b45] + URIParser v0.4.0
  [2a0f44e3] + Base64 
  [ade2ca70] + Dates 
  [8bb1440f] + DelimitedFiles 
  [8ba89e20] + Distributed 
  [b77e0a4c] + InteractiveUtils 
  [76f85450] + LibGit2 
  [8f399da3] + Libdl 
  [37e2e46d] + LinearAlgebra 
  [56ddb016] + Logging 
  [d6f4376e] + Markdown 
  [a63ad114] + Mmap 
  [44cfe95a] + Pkg 
  [de0858da] + Printf 
  [3fa0cd96] + REPL 
  [9a3f8284] + Random 
  [ea8e919c] + SHA 
  [9e88b42a] + Serialization 
  [6462fe0b] + Sockets 
  [2f01184e] + SparseArrays 
  [8dfed614] + Test 
  [cf7118a7] + UUIDs 
  [4ec0a83e] + Unicode 
  Building Nemo ────────────→ `~/.julia/packages/Nemo/qzx0m/deps/build.log`
  Updating `/tmp/jl_EZtn6F/Project.toml`
 [no changes]
  Updating `/tmp/jl_EZtn6F/Manifest.toml`
 [no changes]
  Building FFTW ────────────→ `~/.julia/packages/FFTW/qqcBj/deps/build.log`
  Updating `/tmp/jl_Cj1p0X/Project.toml`
 [no changes]
  Updating `/tmp/jl_Cj1p0X/Manifest.toml`
 [no changes]
  Building SpecialFunctions → `~/.julia/packages/SpecialFunctions/ne2iw/deps/build.log`
  Updating `/tmp/jl_EfFW9h/Project.toml`
 [no changes]
  Updating `/tmp/jl_EfFW9h/Manifest.toml`
 [no changes]
   Testing TwoFAST
 Installed Dierckx ─ v0.4.1
  Updating `/tmp/jl_yJRWKZ/Project.toml`
  [39dd38d3] + Dierckx v0.4.1
  Updating `/tmp/jl_yJRWKZ/Manifest.toml`
  [39dd38d3] + Dierckx v0.4.1
  Building Dierckx → `~/.julia/packages/Dierckx/9SY4A/deps/build.log`
  Updating `/tmp/jl_MqXUUq/Project.toml`
 [no changes]
  Updating `/tmp/jl_MqXUUq/Manifest.toml`
 [no changes]
Running sandbox
Status `/tmp/jl_yJRWKZ/Project.toml`
  [39dd38d3] Dierckx v0.4.1
  [7a1cc6ca] FFTW v1.2.0
  [5087d2c0] IncGammaBeta v0.1.0
  [2edaba10] Nemo v0.15.1
  [276daf66] SpecialFunctions v0.8.0
  [0dd23c3e] TwoFAST v0.1.0
  [8bb1440f] DelimitedFiles 
  [37e2e46d] LinearAlgebra 
  [56ddb016] Logging 
  [8dfed614] Test 

Welcome to Nemo version 0.15.1

Nemo comes with absolutely no warranty whatsoever


Welcome to Nemo version 0.15.1

Nemo comes with absolutely no warranty whatsoever

Testing ξ(r), ℓ=0, ν=-1 ... passed
Testing ξ(r), ℓ=0, ν=0 ... passed
Testing ξ(r), ℓ=0, ν=1 ... passed
Testing ξ(r), ℓ=0, ν=2 ... passed
Testing ξ(r), ℓ=0, ν=3 ... passed
Testing ξ(r), ℓ=1, ν=0 ... passed
Testing ξ(r), ℓ=1, ν=1 ... passed
Testing ξ(r), ℓ=1, ν=2 ... passed
Testing ξ(r), ℓ=1, ν=3 ... passed
Testing ξ(r), ℓ=2, ν=-1 ... passed
Testing ξ(r), ℓ=2, ν=0 ... passed
Testing ξ(r), ℓ=2, ν=1 ... passed
Testing ξ(r), ℓ=2, ν=2 ... passed
Testing ξ(r), ℓ=2, ν=3 ... passed
Testing ξ(r), ℓ=3, ν=-1 ... passed
Testing ξ(r), ℓ=3, ν=0 ... passed
Testing ξ(r), ℓ=3, ν=1 ... passed
Testing ξ(r), ℓ=3, ν=2 ... passed
Testing ξ(r), ℓ=3, ν=3 ... passed
Testing ξ(r), ℓ=4, ν=-1 ... passed
Testing ξ(r), ℓ=4, ν=0 ... passed
Testing ξ(r), ℓ=4, ν=1 ... passed
Testing ξ(r), ℓ=4, ν=2 ... passed
Testing ξ(r), ℓ=4, ν=3 ... passed
Testing ξ(r) ... passed
Testing ξ′(r) ... passed
Testing ξ″(r) ... passed
Calculating fmax: 
  dlrec    = 4
  dlrecRg1 = -4
  q=1.1, R=1.1:	  4.734854 seconds (1.20 M allocations: 67.954 MiB, 1.25% gc time)

  4.776406 seconds (1.22 M allocations: 69.064 MiB, 1.24% gc time)
ℓ = 1202
Δℓ = 4
ΔℓRg1 = -4
N = 1600
q = 1.1
kmin = 1.0e-5
kmax = 100000.00000000004
χ0 = 0.023029999999999995
RR = RR.tsv
ℓmax = ℓmax.bin
f21 = f21.bin
kmin = 1.0e-5
kmax = 100000.0
dlrec    = 4
dlrecRg1 = -4
Output size: 5741568 bytes = 0.005347251892089844 GiB
Output size: 51264 bytes = 4.774332046508789e-5 GiB
Reading 'out/F21EllCache'...   0.689255 seconds (318.66 k allocations: 16.382 MiB)
ellmax: 1202
lmaxcache: 1202
fell[:,1,1] = Complex{Float64}[3.9583795592771634e-52 - 9.695233714158177e-68im, 3.990121772925759e-52 - 9.772979714843386e-68im]
ell 1202, elapsed: 0.00015592575073242188
ell 1201, elapsed: 2.1742308139801025
ell 1200, elapsed: 0.0005850791931152344
ell 1199, elapsed: 0.0004761219024658203
ell 1198, elapsed: 0.0004961490631103516
ell 1002, elapsed: 0.009698867797851562
ell 1001, elapsed: 0.0004990100860595703
ell 1000, elapsed: 0.0005428791046142578
ell 999, elapsed: 0.0005259513854980469
ell 998, elapsed: 0.0004780292510986328
ell 902, elapsed: 0.00518488883972168
ell 901, elapsed: 0.0004949569702148438
ell 900, elapsed: 0.0004839897155761719
ell 899, elapsed: 0.0005040168762207031
ell 898, elapsed: 0.0005400180816650391
ell 802, elapsed: 0.0053369998931884766
ell 801, elapsed: 0.000514984130859375
ell 800, elapsed: 0.0004899501800537109
ell 799, elapsed: 0.0004870891571044922
ell 798, elapsed: 0.0004911422729492188
ell 702, elapsed: 0.0054531097412109375
ell 701, elapsed: 0.0005371570587158203
ell 700, elapsed: 0.0005598068237304688
ell 699, elapsed: 0.0005688667297363281
ell 698, elapsed: 0.0004930496215820312
ell 602, elapsed: 0.0053730010986328125
ell 601, elapsed: 0.0004911422729492188
ell 600, elapsed: 0.0005769729614257812
ell 599, elapsed: 0.0004849433898925781
ell 598, elapsed: 0.0004839897155761719
ell 502, elapsed: 0.0050618648529052734
ell 501, elapsed: 0.0006089210510253906
ell 500, elapsed: 0.0005500316619873047
ell 499, elapsed: 0.0004980564117431641
ell 498, elapsed: 0.00047779083251953125
ell 402, elapsed: 0.005532979965209961
ell 401, elapsed: 0.0005400180816650391
ell 400, elapsed: 0.0004718303680419922
ell 399, elapsed: 0.00048613548278808594
ell 398, elapsed: 0.00049591064453125
ell 302, elapsed: 0.004830121994018555
ell 301, elapsed: 0.0005018711090087891
ell 300, elapsed: 0.0004749298095703125
ell 299, elapsed: 0.0004749298095703125
ell 298, elapsed: 0.0004742145538330078
ell 202, elapsed: 0.005427837371826172
ell 201, elapsed: 0.0004940032958984375
ell 200, elapsed: 0.00047707557678222656
ell 199, elapsed: 0.00047898292541503906
ell 198, elapsed: 0.0004761219024658203
ell 152, elapsed: 0.0026998519897460938
ell 151, elapsed: 0.00048613548278808594
ell 150, elapsed: 0.0004839897155761719
ell 149, elapsed: 0.0004811286926269531
ell 148, elapsed: 0.0004780292510986328
ell 127, elapsed: 0.0016918182373046875
ell 126, elapsed: 0.0004930496215820312
ell 125, elapsed: 0.0005600452423095703
ell 124, elapsed: 0.00047397613525390625
ell 123, elapsed: 0.0005140304565429688
ell 114, elapsed: 0.0010848045349121094
ell 113, elapsed: 0.0005350112915039062
ell 112, elapsed: 0.0005471706390380859
ell 111, elapsed: 0.0005400180816650391
ell 110, elapsed: 0.0005440711975097656
ell 102, elapsed: 0.0010559558868408203
ell 101, elapsed: 0.0005409717559814453
ell 100, elapsed: 0.0005340576171875
ell 99, elapsed: 0.00047397613525390625
ell 98, elapsed: 0.0004749298095703125
ell 97, elapsed: 0.0005819797515869141
ell 96, elapsed: 0.0006690025329589844
ell 95, elapsed: 0.0006191730499267578
ell 94, elapsed: 0.000659942626953125
ell 93, elapsed: 0.0005700588226318359
ell 92, elapsed: 0.0006508827209472656
ell 91, elapsed: 0.0005729198455810547
ell 90, elapsed: 0.0006480216979980469
ell 89, elapsed: 0.0005841255187988281
ell 88, elapsed: 0.0006430149078369141
ell 87, elapsed: 0.0005049705505371094
ell 86, elapsed: 0.0006458759307861328
ell 85, elapsed: 0.0005919933319091797
ell 84, elapsed: 0.0006711483001708984
ell 83, elapsed: 0.0006110668182373047
ell 82, elapsed: 0.0006539821624755859
ell 81, elapsed: 0.0005691051483154297
ell 80, elapsed: 0.0006489753723144531
ell 79, elapsed: 0.0005688667297363281
ell 78, elapsed: 0.0006470680236816406
ell 77, elapsed: 0.0005810260772705078
ell 76, elapsed: 0.0006499290466308594
ell 75, elapsed: 0.0005691051483154297
ell 74, elapsed: 0.0006489753723144531
ell 73, elapsed: 0.0005688667297363281
ell 72, elapsed: 0.0006520748138427734
ell 71, elapsed: 0.0006580352783203125
ell 70, elapsed: 0.0006489753723144531
ell 69, elapsed: 0.000553131103515625
ell 68, elapsed: 0.0005860328674316406
ell 67, elapsed: 0.0005609989166259766
ell 66, elapsed: 0.0006680488586425781
ell 65, elapsed: 0.0006029605865478516
ell 64, elapsed: 0.0006649494171142578
ell 63, elapsed: 0.0005769729614257812
ell 62, elapsed: 0.0006618499755859375
ell 61, elapsed: 0.0005800724029541016
ell 60, elapsed: 0.0006639957427978516
ell 59, elapsed: 0.0005931854248046875
ell 58, elapsed: 0.0006511211395263672
ell 57, elapsed: 0.0005710124969482422
ell 56, elapsed: 0.0006039142608642578
ell 55, elapsed: 0.0005388259887695312
ell 54, elapsed: 0.0006711483001708984
ell 53, elapsed: 0.0006079673767089844
ell 52, elapsed: 0.0005929470062255859
ell 51, elapsed: 0.0005021095275878906
ell 50, elapsed: 0.000576019287109375
ell 49, elapsed: 0.0005469322204589844
ell 48, elapsed: 0.0006551742553710938
ell 47, elapsed: 0.0005700588226318359
ell 46, elapsed: 0.0006630420684814453
ell 45, elapsed: 0.0005710124969482422
ell 44, elapsed: 0.0006470680236816406
ell 43, elapsed: 0.0005772113800048828
ell 42, elapsed: 0.0006580352783203125
ell 41, elapsed: 0.0005590915679931641
ell 40, elapsed: 0.0007379055023193359
ell 39, elapsed: 0.0005779266357421875
ell 38, elapsed: 0.0006580352783203125
ell 37, elapsed: 0.0005750656127929688
ell 36, elapsed: 0.0006201267242431641
ell 35, elapsed: 0.0005750656127929688
ell 34, elapsed: 0.0010950565338134766
ell 33, elapsed: 0.0005681514739990234
ell 32, elapsed: 0.0006480216979980469
ell 31, elapsed: 0.00055694580078125
ell 30, elapsed: 0.0006289482116699219
ell 29, elapsed: 0.0005559921264648438
ell 28, elapsed: 0.0006749629974365234
ell 27, elapsed: 0.0005571842193603516
ell 26, elapsed: 0.0006248950958251953
ell 25, elapsed: 0.0005609989166259766
ell 24, elapsed: 0.0006399154663085938
ell 23, elapsed: 0.0005609989166259766
ell 22, elapsed: 0.0006520748138427734
ell 21, elapsed: 0.0005590915679931641
ell 20, elapsed: 0.0006399154663085938
ell 19, elapsed: 0.0005640983581542969
ell 18, elapsed: 0.0006399154663085938
ell 17, elapsed: 0.0005629062652587891
ell 16, elapsed: 0.0006530284881591797
ell 15, elapsed: 0.0005629062652587891
ell 14, elapsed: 0.0006380081176757812
ell 13, elapsed: 0.0005581378936767578
ell 12, elapsed: 0.0006318092346191406
ell 11, elapsed: 0.0005581378936767578
ell 10, elapsed: 0.0006291866302490234
ell 9, elapsed: 0.004160165786743164
ell 8, elapsed: 0.0006511211395263672
ell 7, elapsed: 0.0005159378051757812
ell 6, elapsed: 0.0006268024444580078
ell 5, elapsed: 0.00057220458984375
ell 4, elapsed: 0.0006000995635986328
ell 3, elapsed: 0.0005249977111816406
ell 2, elapsed: 0.0006020069122314453
ell 1, elapsed: 0.0005710124969482422
ell 0, elapsed: 0.0005741119384765625
  3.094195 seconds (1.75 M allocations: 85.479 MiB, 1.07% gc time)
elapsed: 0.0007109642028808594
step:          0.716298 sec (402.572 k allocations: 20.281 MB, 0.0% gc time)
swapping:      0.000583 sec (0 allocations: 0 byte, 0.0% gc time)
calc_Mellell!: 0.555843 sec (296.399 k allocations: 14.958 MB, 0.0% gc time)
  t0 :  0.0 sec (0 allocations: 0 byte, 0.0% gc time)
  tm2 : 0.0 sec (0 allocations: 0 byte, 0.0% gc time)
  tm2s: 0.0 sec (0 allocations: 0 byte, 0.0% gc time)
  tm4 : 0.0 sec (0 allocations: 0 byte, 0.0% gc time)
  tp2 : 0.0 sec (0 allocations: 0 byte, 0.0% gc time)
  tp2s: 0.0 sec (0 allocations: 0 byte, 0.0% gc time)
  tp4 : 0.0 sec (0 allocations: 0 byte, 0.0% gc time)
calc_wtdll!:   1.026545 sec (525.863 k allocations: 26.376 MB, 3.22% gc time)
calc_wljj!:    0.003434 sec (6 allocations: 96 byte, 0.0% gc time)
mult_prefac!:  0.0 sec (0 allocations: 0 byte, 0.0% gc time)
convert:       0.0 sec (0 allocations: 0 byte, 0.0% gc time)
write:         0.005214 sec (0 allocations: 0 byte, 0.0% gc time)
test_rand_2f1: 0.0 sec (0 allocations: 0 byte, 0.0% gc time)
Closing outfile out/Ml21-cache.bin...   0.000103 seconds
  1.046349 seconds (8.66 k allocations: 420.969 KiB)
make_phi():   0.015832 seconds (8.20 k allocations: 238.016 KiB)
  0.239568 seconds (121.69 k allocations: 5.902 MiB)
tskip:       2.2e-5 sec (0 allocations: 0 byte, 0.0% gc time)
tread:       0.00249 sec (19 allocations: 2.172 KB, 0.0% gc time)
tmultphi:    0.046452 sec (26.022 k allocations: 1.338 MB, 0.0% gc time)
tbrfft:      0.004331 sec (896 allocations: 42.0 KB, 0.0% gc time)
tmultprefac: 0.003583 sec (0 allocations: 0 byte, 0.0% gc time)
toutfunc:    0.182452 sec (94.104 k allocations: 4.451 MB, 0.0% gc time)
Testing R=1.1 ... passed
Calculating fmax: 
  dlrec    = 4
  dlrecRg1 = -4
  q=1.1, R=1.0:	  0.001921 seconds (4.00 k allocations: 300.375 KiB)

  0.002145 seconds (4.04 k allocations: 335.062 KiB)
ℓ = 1202
Δℓ = 4
ΔℓRg1 = -4
N = 1600
q = 1.1
kmin = 1.0e-5
kmax = 100000.00000000004
χ0 = 0.023029999999999995
RR = RR.tsv
ℓmax = ℓmax.bin
f21 = f21.bin
kmin = 1.0e-5
kmax = 100000.0
dlrec    = 4
dlrecRg1 = -4
Output size: 61465536 bytes = 0.05724424123764038 GiB
Output size: 51264 bytes = 4.774332046508789e-5 GiB
Reading 'out/F21EllCache'...   0.001162 seconds (267 allocations: 84.656 KiB)
ellmax: 1202
lmaxcache: 1202
fell[:,1,1] = Complex{Float64}[809.6031528389767 - 1.9829558194077161e-13im, 0.0 + 0.0im]
ell 1202, elapsed: 3.0040740966796875e-5
ell 1201, elapsed: 0.01619887351989746
ell 1200, elapsed: 0.0003669261932373047
ell 1199, elapsed: 0.00034999847412109375
ell 1198, elapsed: 0.00034689903259277344
ell 1197, elapsed: 0.0004189014434814453
ell 1196, elapsed: 0.00039315223693847656
ell 1195, elapsed: 0.0007979869842529297
ell 1194, elapsed: 0.00039315223693847656
ell 1193, elapsed: 0.0004980564117431641
ell 1192, elapsed: 0.0006918907165527344
ell 1191, elapsed: 0.0004901885986328125
ell 1190, elapsed: 0.0003981590270996094
ell 1189, elapsed: 0.0004799365997314453
ell 1188, elapsed: 0.00038909912109375
ell 1187, elapsed: 0.00047397613525390625
ell 1186, elapsed: 0.00038886070251464844
ell 1185, elapsed: 0.0037419795989990234
ell 1184, elapsed: 0.0022439956665039062
ell 1183, elapsed: 0.0023229122161865234
ell 1182, elapsed: 0.0004050731658935547
ell 1181, elapsed: 0.0004980564117431641
ell 1180, elapsed: 0.0003941059112548828
ell 1179, elapsed: 0.0004818439483642578
ell 1178, elapsed: 0.000392913818359375
ell 1177, elapsed: 0.00047397613525390625
ell 1176, elapsed: 0.00038909912109375
ell 1175, elapsed: 0.0005719661712646484
ell 1174, elapsed: 0.012260913848876953
ell 1173, elapsed: 0.0005271434783935547
ell 1172, elapsed: 0.00039386749267578125
ell 1171, elapsed: 0.0004889965057373047
ell 1170, elapsed: 0.0003960132598876953
ell 1169, elapsed: 0.00048613548278808594
ell 1168, elapsed: 0.0003960132598876953
ell 1167, elapsed: 0.0004799365997314453
ell 1166, elapsed: 0.0004100799560546875
ell 1165, elapsed: 0.0004849433898925781
ell 1164, elapsed: 0.00038313865661621094
ell 1163, elapsed: 0.00047278404235839844
ell 1162, elapsed: 0.00038123130798339844
ell 1161, elapsed: 0.00047016143798828125
ell 1160, elapsed: 0.00040912628173828125
ell 1159, elapsed: 0.0004839897155761719
ell 1158, elapsed: 0.00041294097900390625
ell 1157, elapsed: 0.0004668235778808594
ell 1156, elapsed: 0.0003840923309326172
ell 1155, elapsed: 0.00047397613525390625
ell 1154, elapsed: 0.00038313865661621094
ell 1153, elapsed: 0.00046515464782714844
ell 1152, elapsed: 0.0003829002380371094
ell 1151, elapsed: 0.0004749298095703125
ell 1150, elapsed: 0.00038814544677734375
ell 1149, elapsed: 0.0005619525909423828
ell 1148, elapsed: 0.0003859996795654297
ell 1147, elapsed: 0.0004661083221435547
ell 1146, elapsed: 0.0003819465637207031
ell 1145, elapsed: 0.00046896934509277344
ell 1144, elapsed: 0.0003809928894042969
ell 1143, elapsed: 0.0004658699035644531
ell 1142, elapsed: 0.0003809928894042969
ell 1141, elapsed: 0.0007889270782470703
ell 1140, elapsed: 0.0003840923309326172
ell 1139, elapsed: 0.00047397613525390625
ell 1138, elapsed: 0.00038695335388183594
ell 1137, elapsed: 0.0004711151123046875
ell 1136, elapsed: 0.0003819465637207031
ell 1135, elapsed: 0.0004649162292480469
ell 1134, elapsed: 0.0003790855407714844
ell 1133, elapsed: 0.0005681514739990234
ell 1132, elapsed: 0.0003981590270996094
ell 1131, elapsed: 0.0004680156707763672
ell 1130, elapsed: 0.0004680156707763672
ell 1129, elapsed: 0.0004761219024658203
ell 1128, elapsed: 0.0003838539123535156
ell 1127, elapsed: 0.00047397613525390625
ell 1126, elapsed: 0.0003809928894042969
ell 1125, elapsed: 0.0004680156707763672
ell 1124, elapsed: 0.000537872314453125
ell 1123, elapsed: 0.0005810260772705078
ell 1122, elapsed: 0.0003781318664550781
ell 1121, elapsed: 0.000476837158203125
ell 1120, elapsed: 0.00039005279541015625
ell 1119, elapsed: 0.0004749298095703125
ell 1118, elapsed: 0.00039005279541015625
ell 1117, elapsed: 0.0004780292510986328
ell 1116, elapsed: 0.0005049705505371094
ell 1115, elapsed: 0.00048422813415527344
ell 1114, elapsed: 0.00038695335388183594
ell 1113, elapsed: 0.00047278404235839844
ell 1112, elapsed: 0.0003879070281982422
ell 1111, elapsed: 0.0004730224609375
ell 1110, elapsed: 0.0003979206085205078
ell 1109, elapsed: 0.0004730224609375
ell 1108, elapsed: 0.0004439353942871094
ell 1107, elapsed: 0.0004699230194091797
ell 1106, elapsed: 0.0003840923309326172
ell 1105, elapsed: 0.0004630088806152344
ell 1104, elapsed: 0.00038814544677734375
ell 1103, elapsed: 0.0004620552062988281
ell 1102, elapsed: 0.0003960132598876953
ell 1101, elapsed: 0.0004749298095703125
ell 1100, elapsed: 0.00047707557678222656
ell 1099, elapsed: 0.0006079673767089844
ell 1098, elapsed: 0.0003800392150878906
ell 1097, elapsed: 0.0004680156707763672
ell 1096, elapsed: 0.0003809928894042969
ell 1095, elapsed: 0.0004668235778808594
ell 1094, elapsed: 0.0003859996795654297
ell 1093, elapsed: 0.00046706199645996094
ell 1092, elapsed: 0.00038695335388183594
ell 1091, elapsed: 0.0007998943328857422
ell 1090, elapsed: 0.00038695335388183594
ell 1089, elapsed: 0.00046706199645996094
ell 1088, elapsed: 0.00038504600524902344
ell 1087, elapsed: 0.0004661083221435547
ell 1086, elapsed: 0.0003829002380371094
ell 1085, elapsed: 0.00047516822814941406
ell 1084, elapsed: 0.00039005279541015625
ell 1083, elapsed: 0.0007810592651367188
ell 1082, elapsed: 0.00038504600524902344
ell 1081, elapsed: 0.0004661083221435547
ell 1080, elapsed: 0.0003790855407714844
ell 1079, elapsed: 0.0004611015319824219
ell 1078, elapsed: 0.0003769397735595703
ell 1077, elapsed: 0.00045609474182128906
ell 1076, elapsed: 0.0003771781921386719
ell 1075, elapsed: 0.0008130073547363281
ell 1074, elapsed: 0.00037980079650878906
ell 1073, elapsed: 0.00045800209045410156
ell 1072, elapsed: 0.0003809928894042969
ell 1071, elapsed: 0.0004558563232421875
ell 1070, elapsed: 0.0003769397735595703
ell 1069, elapsed: 0.0004520416259765625
ell 1068, elapsed: 0.0003769397735595703
ell 1067, elapsed: 0.0005700588226318359
ell 1066, elapsed: 0.0003788471221923828
ell 1065, elapsed: 0.0004730224609375
ell 1064, elapsed: 0.0003840923309326172
ell 1063, elapsed: 0.00046706199645996094
ell 1062, elapsed: 0.00038504600524902344
ell 1061, elapsed: 0.00046896934509277344
ell 1060, elapsed: 0.00038695335388183594
ell 1059, elapsed: 0.0005750656127929688
ell 1058, elapsed: 0.00038695335388183594
ell 1057, elapsed: 0.0004699230194091797
ell 1056, elapsed: 0.0003819465637207031
ell 1055, elapsed: 0.0004730224609375
ell 1054, elapsed: 0.000392913818359375
ell 1053, elapsed: 0.00046706199645996094
ell 1052, elapsed: 0.0004811286926269531
ell 1051, elapsed: 0.0006968975067138672
ell 1050, elapsed: 0.0005178451538085938
ell 1049, elapsed: 0.0005850791931152344
ell 1048, elapsed: 0.0003800392150878906
ell 1047, elapsed: 0.00046706199645996094
ell 1046, elapsed: 0.0003819465637207031
ell 1045, elapsed: 0.00047087669372558594
ell 1044, elapsed: 0.00038695335388183594
ell 1043, elapsed: 0.0008268356323242188
ell 1042, elapsed: 0.00039005279541015625
ell 1041, elapsed: 0.0004711151123046875
ell 1040, elapsed: 0.00038814544677734375
ell 1039, elapsed: 0.0004839897155761719
ell 1038, elapsed: 0.00038695335388183594
ell 1037, elapsed: 0.0004761219024658203
ell 1036, elapsed: 0.00038504600524902344
ell 1035, elapsed: 0.0005769729614257812
ell 1034, elapsed: 0.0005910396575927734
ell 1033, elapsed: 0.0005159378051757812
ell 1032, elapsed: 0.0003921985626220703
ell 1031, elapsed: 0.0004711151123046875
ell 1030, elapsed: 0.00038909912109375
ell 1029, elapsed: 0.00046706199645996094
ell 1028, elapsed: 0.0004010200500488281
ell 1027, elapsed: 0.0007021427154541016
ell 1026, elapsed: 0.00039315223693847656
ell 1025, elapsed: 0.00047016143798828125
ell 1024, elapsed: 0.0003819465637207031
ell 1023, elapsed: 0.00047707557678222656
ell 1022, elapsed: 0.00038504600524902344
ell 1021, elapsed: 0.00047707557678222656
ell 1020, elapsed: 0.0003910064697265625
ell 1019, elapsed: 0.0005009174346923828
ell 1018, elapsed: 0.00038814544677734375
ell 1017, elapsed: 0.0004730224609375
ell 1016, elapsed: 0.00039505958557128906
ell 1015, elapsed: 0.0004680156707763672
ell 1014, elapsed: 0.00039005279541015625
ell 1013, elapsed: 0.0004761219024658203
ell 1012, elapsed: 0.00038909912109375
ell 1011, elapsed: 0.00047516822814941406
ell 1010, elapsed: 0.00040411949157714844
ell 1009, elapsed: 0.0004849433898925781
ell 1008, elapsed: 0.00039196014404296875
ell 1007, elapsed: 0.0004918575286865234
ell 1006, elapsed: 0.0003859996795654297
ell 1005, elapsed: 0.0004718303680419922
ell 1004, elapsed: 0.00039005279541015625
ell 1003, elapsed: 0.00046896934509277344
ell 1002, elapsed: 0.00039887428283691406
ell 1001, elapsed: 0.0004711151123046875
ell 1000, elapsed: 0.00038504600524902344
ell 999, elapsed: 0.00047707557678222656
ell 998, elapsed: 0.000392913818359375
ell 997, elapsed: 0.00047278404235839844
ell 996, elapsed: 0.00038695335388183594
ell 995, elapsed: 0.0004749298095703125
ell 994, elapsed: 0.00038695335388183594
ell 993, elapsed: 0.0004870891571044922
ell 992, elapsed: 0.0003941059112548828
ell 991, elapsed: 0.00047397613525390625
ell 990, elapsed: 0.00038909912109375
ell 989, elapsed: 0.00047898292541503906
ell 988, elapsed: 0.00039005279541015625
ell 987, elapsed: 0.0004761219024658203
ell 986, elapsed: 0.0003879070281982422
ell 985, elapsed: 0.0004899501800537109
ell 984, elapsed: 0.00038909912109375
ell 983, elapsed: 0.0004780292510986328
ell 982, elapsed: 0.00039505958557128906
ell 981, elapsed: 0.0004849433898925781
ell 980, elapsed: 0.0003960132598876953
ell 979, elapsed: 0.00047898292541503906
ell 978, elapsed: 0.0003819465637207031
ell 977, elapsed: 0.0004730224609375
ell 976, elapsed: 0.0006029605865478516
ell 975, elapsed: 0.0004761219024658203
ell 974, elapsed: 0.00038909912109375
ell 973, elapsed: 0.0004761219024658203
ell 972, elapsed: 0.0003879070281982422
ell 971, elapsed: 0.0004820823669433594
ell 970, elapsed: 0.0003898143768310547
ell 969, elapsed: 0.00047397613525390625
ell 968, elapsed: 0.0007278919219970703
ell 967, elapsed: 0.0004830360412597656
ell 966, elapsed: 0.00038504600524902344
ell 965, elapsed: 0.00047087669372558594
ell 964, elapsed: 0.00038695335388183594
ell 963, elapsed: 0.00047898292541503906
ell 962, elapsed: 0.00038695335388183594
ell 961, elapsed: 0.0004801750183105469
ell 960, elapsed: 0.0007410049438476562
ell 959, elapsed: 0.0004780292510986328
ell 958, elapsed: 0.0003829002380371094
ell 957, elapsed: 0.0004718303680419922
ell 956, elapsed: 0.00038695335388183594
ell 955, elapsed: 0.0004749298095703125
ell 954, elapsed: 0.0003859996795654297
ell 953, elapsed: 0.00047898292541503906
ell 952, elapsed: 0.0007359981536865234
ell 951, elapsed: 0.0004889965057373047
ell 950, elapsed: 0.0003960132598876953
ell 949, elapsed: 0.0004780292510986328
ell 948, elapsed: 0.0003859996795654297
ell 947, elapsed: 0.00045990943908691406
ell 946, elapsed: 0.0003819465637207031
ell 945, elapsed: 0.00046896934509277344
ell 944, elapsed: 0.00039005279541015625
ell 943, elapsed: 0.00047707557678222656
ell 942, elapsed: 0.00038504600524902344
ell 941, elapsed: 0.0004620552062988281
ell 940, elapsed: 0.00038123130798339844
ell 939, elapsed: 0.0004639625549316406
ell 938, elapsed: 0.00038313865661621094
ell 937, elapsed: 0.0005359649658203125
ell 936, elapsed: 0.00038695335388183594
ell 935, elapsed: 0.00046896934509277344
ell 934, elapsed: 0.00045108795166015625
ell 933, elapsed: 0.0006430149078369141
ell 932, elapsed: 0.0004029273986816406
ell 931, elapsed: 0.00048089027404785156
ell 930, elapsed: 0.00038814544677734375
ell 929, elapsed: 0.0006880760192871094
ell 928, elapsed: 0.0003979206085205078
ell 927, elapsed: 0.00047206878662109375
ell 926, elapsed: 0.00039196014404296875
ell 925, elapsed: 0.0004761219024658203
ell 924, elapsed: 0.00038504600524902344
ell 923, elapsed: 0.0005950927734375
ell 922, elapsed: 0.0004930496215820312
ell 921, elapsed: 0.0005009174346923828
ell 920, elapsed: 0.0003859996795654297
ell 919, elapsed: 0.0005660057067871094
ell 918, elapsed: 0.0005240440368652344
ell 917, elapsed: 0.0004661083221435547
ell 916, elapsed: 0.0003879070281982422
ell 915, elapsed: 0.00047206878662109375
ell 914, elapsed: 0.0003879070281982422
ell 913, elapsed: 0.0006649494171142578
ell 912, elapsed: 0.00045108795166015625
ell 911, elapsed: 0.00047898292541503906
ell 910, elapsed: 0.0003859996795654297
ell 909, elapsed: 0.0004820823669433594
ell 908, elapsed: 0.0004658699035644531
ell 907, elapsed: 0.0006489753723144531
ell 906, elapsed: 0.00039005279541015625
ell 905, elapsed: 0.0006818771362304688
ell 904, elapsed: 0.0003819465637207031
ell 903, elapsed: 0.0004680156707763672
ell 902, elapsed: 0.00037980079650878906
ell 901, elapsed: 0.00045490264892578125
ell 900, elapsed: 0.0003750324249267578
ell 899, elapsed: 0.0004711151123046875
ell 898, elapsed: 0.0003809928894042969
ell 897, elapsed: 0.0004730224609375
ell 896, elapsed: 0.0003809928894042969
ell 895, elapsed: 0.00045800209045410156
ell 894, elapsed: 0.0003819465637207031
ell 893, elapsed: 0.0004601478576660156
ell 892, elapsed: 0.0003769397735595703
ell 891, elapsed: 0.000453948974609375
ell 890, elapsed: 0.0003781318664550781
ell 889, elapsed: 0.000453948974609375
ell 888, elapsed: 0.0005359649658203125
ell 887, elapsed: 0.0005939006805419922
ell 886, elapsed: 0.0003800392150878906
ell 885, elapsed: 0.000453948974609375
ell 884, elapsed: 0.00036978721618652344
ell 883, elapsed: 0.0004749298095703125
ell 882, elapsed: 0.0003848075866699219
ell 881, elapsed: 0.0004780292510986328
ell 880, elapsed: 0.0004010200500488281
ell 879, elapsed: 0.00047707557678222656
ell 878, elapsed: 0.00038504600524902344
ell 877, elapsed: 0.0004718303680419922
ell 876, elapsed: 0.00038909912109375
ell 875, elapsed: 0.0006060600280761719
ell 874, elapsed: 0.00047707557678222656
ell 873, elapsed: 0.0005970001220703125
ell 872, elapsed: 0.0004909038543701172
ell 871, elapsed: 0.0004699230194091797
ell 870, elapsed: 0.0003829002380371094
ell 869, elapsed: 0.0004699230194091797
ell 868, elapsed: 0.0003910064697265625
ell 867, elapsed: 0.0006392002105712891
ell 866, elapsed: 0.0004458427429199219
ell 865, elapsed: 0.0004680156707763672
ell 864, elapsed: 0.0006060600280761719
ell 863, elapsed: 0.0004839897155761719
ell 862, elapsed: 0.00038504600524902344
ell 861, elapsed: 0.0006151199340820312
ell 860, elapsed: 0.0004711151123046875
ell 859, elapsed: 0.00047707557678222656
ell 858, elapsed: 0.0003819465637207031
ell 857, elapsed: 0.0004909038543701172
ell 856, elapsed: 0.00038814544677734375
ell 855, elapsed: 0.0004730224609375
ell 854, elapsed: 0.00038695335388183594
ell 853, elapsed: 0.0004699230194091797
ell 852, elapsed: 0.0003859996795654297
ell 851, elapsed: 0.0004792213439941406
ell 850, elapsed: 0.0003910064697265625
ell 849, elapsed: 0.00046896934509277344
ell 848, elapsed: 0.0004100799560546875
ell 847, elapsed: 0.00047707557678222656
ell 846, elapsed: 0.00038313865661621094
ell 845, elapsed: 0.0004899501800537109
ell 844, elapsed: 0.00039386749267578125
ell 843, elapsed: 0.00047016143798828125
ell 842, elapsed: 0.00038909912109375
ell 841, elapsed: 0.0004749298095703125
ell 840, elapsed: 0.0022399425506591797
ell 839, elapsed: 0.0005002021789550781
ell 838, elapsed: 0.00039505958557128906
ell 837, elapsed: 0.000492095947265625
ell 836, elapsed: 0.0003979206085205078
ell 835, elapsed: 0.0005128383636474609
ell 834, elapsed: 0.0003941059112548828
ell 833, elapsed: 0.0004799365997314453
ell 832, elapsed: 0.00039196014404296875
ell 831, elapsed: 0.00047707557678222656
ell 830, elapsed: 0.0004019737243652344
ell 829, elapsed: 0.00047898292541503906
ell 828, elapsed: 0.00038886070251464844
ell 827, elapsed: 0.0004899501800537109
ell 826, elapsed: 0.00039315223693847656
ell 825, elapsed: 0.00047397613525390625
ell 824, elapsed: 0.000392913818359375
ell 823, elapsed: 0.0004839897155761719
ell 822, elapsed: 0.00038909912109375
ell 821, elapsed: 0.0004761219024658203
ell 820, elapsed: 0.00038695335388183594
ell 819, elapsed: 0.0004820823669433594
ell 818, elapsed: 0.0004470348358154297
ell 817, elapsed: 0.0004780292510986328
ell 816, elapsed: 0.00039196014404296875
ell 815, elapsed: 0.0004780292510986328
ell 814, elapsed: 0.00038814544677734375
ell 813, elapsed: 0.00048279762268066406
ell 812, elapsed: 0.0003960132598876953
ell 811, elapsed: 0.0004761219024658203
ell 810, elapsed: 0.00040602684020996094
ell 809, elapsed: 0.0004780292510986328
ell 808, elapsed: 0.00039386749267578125
ell 807, elapsed: 0.00048804283142089844
ell 806, elapsed: 0.00039076805114746094
ell 805, elapsed: 0.00047707557678222656
ell 804, elapsed: 0.0003859996795654297
ell 803, elapsed: 0.00047707557678222656
ell 802, elapsed: 0.0003859996795654297
ell 801, elapsed: 0.0004918575286865234
ell 800, elapsed: 0.0003879070281982422
ell 799, elapsed: 0.00047397613525390625
ell 798, elapsed: 0.0003879070281982422
ell 797, elapsed: 0.0004761219024658203
ell 796, elapsed: 0.0003829002380371094
ell 795, elapsed: 0.00046706199645996094
ell 794, elapsed: 0.00038814544677734375
ell 793, elapsed: 0.0004918575286865234
ell 792, elapsed: 0.0003871917724609375
ell 791, elapsed: 0.0004811286926269531
ell 790, elapsed: 0.0003819465637207031
ell 789, elapsed: 0.00046706199645996094
ell 788, elapsed: 0.0003879070281982422
ell 787, elapsed: 0.00047516822814941406
ell 786, elapsed: 0.0003859996795654297
ell 785, elapsed: 0.0004699230194091797
ell 784, elapsed: 0.0004451274871826172
ell 783, elapsed: 0.0004718303680419922
ell 782, elapsed: 0.0003859996795654297
ell 781, elapsed: 0.00047588348388671875
ell 780, elapsed: 0.0003838539123535156
ell 779, elapsed: 0.00047397613525390625
ell 778, elapsed: 0.00038504600524902344
ell 777, elapsed: 0.0004820823669433594
ell 776, elapsed: 0.0003910064697265625
ell 775, elapsed: 0.0004699230194091797
ell 774, elapsed: 0.00038313865661621094
ell 773, elapsed: 0.00047016143798828125
ell 772, elapsed: 0.0003879070281982422
ell 771, elapsed: 0.0004830360412597656
ell 770, elapsed: 0.00038695335388183594
ell 769, elapsed: 0.0004799365997314453
ell 768, elapsed: 0.0003879070281982422
ell 767, elapsed: 0.0004911422729492188
ell 766, elapsed: 0.00039005279541015625
ell 765, elapsed: 0.00047087669372558594
ell 764, elapsed: 0.0003809928894042969
ell 763, elapsed: 0.0004639625549316406
ell 762, elapsed: 0.0003859996795654297
ell 761, elapsed: 0.00047397613525390625
ell 760, elapsed: 0.00039005279541015625
ell 759, elapsed: 0.0004780292510986328
ell 758, elapsed: 0.00040793418884277344
ell 757, elapsed: 0.0004718303680419922
ell 756, elapsed: 0.00038886070251464844
ell 755, elapsed: 0.0004718303680419922
ell 754, elapsed: 0.00038695335388183594
ell 753, elapsed: 0.00047206878662109375
ell 752, elapsed: 0.00039196014404296875
ell 751, elapsed: 0.0004680156707763672
ell 750, elapsed: 0.00048613548278808594
ell 749, elapsed: 0.0004749298095703125
ell 748, elapsed: 0.0003871917724609375
ell 747, elapsed: 0.0004699230194091797
ell 746, elapsed: 0.0003840923309326172
ell 745, elapsed: 0.0004730224609375
ell 744, elapsed: 0.0003879070281982422
ell 743, elapsed: 0.0004749298095703125
ell 742, elapsed: 0.0003859996795654297
ell 741, elapsed: 0.0004870891571044922
ell 740, elapsed: 0.00038886070251464844
ell 739, elapsed: 0.00047588348388671875
ell 738, elapsed: 0.0003859996795654297
ell 737, elapsed: 0.00047707557678222656
ell 736, elapsed: 0.0003859996795654297
ell 735, elapsed: 0.0006780624389648438
ell 734, elapsed: 0.0007069110870361328
ell 733, elapsed: 0.0005578994750976562
ell 732, elapsed: 0.0003819465637207031
ell 731, elapsed: 0.00047707557678222656
ell 730, elapsed: 0.00038313865661621094
ell 729, elapsed: 0.0004718303680419922
ell 728, elapsed: 0.00038814544677734375
ell 727, elapsed: 0.00047397613525390625
ell 726, elapsed: 0.00044608116149902344
ell 725, elapsed: 0.00046896934509277344
ell 724, elapsed: 0.0003848075866699219
ell 723, elapsed: 0.00047588348388671875
ell 722, elapsed: 0.0003910064697265625
ell 721, elapsed: 0.00046896934509277344
ell 720, elapsed: 0.0003941059112548828
ell 719, elapsed: 0.0004780292510986328
ell 718, elapsed: 0.0003898143768310547
ell 717, elapsed: 0.0005908012390136719
ell 716, elapsed: 0.0003910064697265625
ell 715, elapsed: 0.0004830360412597656
ell 714, elapsed: 0.00039005279541015625
ell 713, elapsed: 0.000476837158203125
ell 712, elapsed: 0.0003871917724609375
ell 711, elapsed: 0.0004699230194091797
ell 710, elapsed: 0.000392913818359375
ell 709, elapsed: 0.0005221366882324219
ell 708, elapsed: 0.00038695335388183594
ell 707, elapsed: 0.00047898292541503906
ell 706, elapsed: 0.00038695335388183594
ell 705, elapsed: 0.0004718303680419922
ell 704, elapsed: 0.00039196014404296875
ell 703, elapsed: 0.0004730224609375
ell 702, elapsed: 0.0003859996795654297
ell 701, elapsed: 0.0005202293395996094
ell 700, elapsed: 0.00039315223693847656
ell 699, elapsed: 0.00047016143798828125
ell 698, elapsed: 0.00039005279541015625
ell 697, elapsed: 0.0004730224609375
ell 696, elapsed: 0.0003859996795654297
ell 695, elapsed: 0.0004730224609375
ell 694, elapsed: 0.0003979206085205078
ell 693, elapsed: 0.0004749298095703125
ell 692, elapsed: 0.0004611015319824219
ell 691, elapsed: 0.00047588348388671875
ell 690, elapsed: 0.0003879070281982422
ell 689, elapsed: 0.0004661083221435547
ell 688, elapsed: 0.0003819465637207031
ell 687, elapsed: 0.0004742145538330078
ell 686, elapsed: 0.00038504600524902344
ell 685, elapsed: 0.00047898292541503906
ell 684, elapsed: 0.0004379749298095703
ell 683, elapsed: 0.0004799365997314453
ell 682, elapsed: 0.00038886070251464844
ell 681, elapsed: 0.0004858970642089844
ell 680, elapsed: 0.0003859996795654297
ell 679, elapsed: 0.00046896934509277344
ell 678, elapsed: 0.0003859996795654297
ell 677, elapsed: 0.0004780292510986328
ell 676, elapsed: 0.0003879070281982422
ell 675, elapsed: 0.000537872314453125
ell 674, elapsed: 0.0003819465637207031
ell 673, elapsed: 0.0004620552062988281
ell 672, elapsed: 0.0003829002380371094
ell 671, elapsed: 0.0004780292510986328
ell 670, elapsed: 0.00038504600524902344
ell 669, elapsed: 0.0004749298095703125
ell 668, elapsed: 0.0003879070281982422
ell 667, elapsed: 0.0005271434783935547
ell 666, elapsed: 0.0003859996795654297
ell 665, elapsed: 0.00047397613525390625
ell 664, elapsed: 0.0003898143768310547
ell 663, elapsed: 0.00047278404235839844
ell 662, elapsed: 0.0003859996795654297
ell 661, elapsed: 0.0004711151123046875
ell 660, elapsed: 0.0003859996795654297
ell 659, elapsed: 0.00047898292541503906
ell 658, elapsed: 0.00039386749267578125
ell 657, elapsed: 0.00047206878662109375
ell 656, elapsed: 0.00039196014404296875
ell 655, elapsed: 0.0004699230194091797
ell 654, elapsed: 0.0003859996795654297
ell 653, elapsed: 0.00047516822814941406
ell 652, elapsed: 0.0003859996795654297
ell 651, elapsed: 0.0004730224609375
ell 650, elapsed: 0.0005159378051757812
ell 649, elapsed: 0.00047898292541503906
ell 648, elapsed: 0.0003848075866699219
ell 647, elapsed: 0.00046706199645996094
ell 646, elapsed: 0.0003800392150878906
ell 645, elapsed: 0.00046896934509277344
ell 644, elapsed: 0.0003840923309326172
ell 643, elapsed: 0.0004780292510986328
ell 642, elapsed: 0.0004630088806152344
ell 641, elapsed: 0.0004730224609375
ell 640, elapsed: 0.00039005279541015625
ell 639, elapsed: 0.000476837158203125
ell 638, elapsed: 0.00038909912109375
ell 637, elapsed: 0.00047206878662109375
ell 636, elapsed: 0.00038695335388183594
ell 635, elapsed: 0.0004699230194091797
ell 634, elapsed: 0.0003840923309326172
ell 633, elapsed: 0.0010039806365966797
ell 632, elapsed: 0.00038886070251464844
ell 631, elapsed: 0.00047779083251953125
ell 630, elapsed: 0.0003859996795654297
ell 629, elapsed: 0.0004761219024658203
ell 628, elapsed: 0.0003910064697265625
ell 627, elapsed: 0.00047707557678222656
ell 626, elapsed: 0.00048613548278808594
ell 625, elapsed: 0.0004761219024658203
ell 624, elapsed: 0.00038504600524902344
ell 623, elapsed: 0.0004749298095703125
ell 622, elapsed: 0.0003819465637207031
ell 621, elapsed: 0.0004620552062988281
ell 620, elapsed: 0.0003788471221923828
ell 619, elapsed: 0.00047397613525390625
ell 618, elapsed: 0.0003800392150878906
ell 617, elapsed: 0.0005478858947753906
ell 616, elapsed: 0.0003859996795654297
ell 615, elapsed: 0.0004749298095703125
ell 614, elapsed: 0.000392913818359375
ell 613, elapsed: 0.0004730224609375
ell 612, elapsed: 0.0003819465637207031
ell 611, elapsed: 0.0004730224609375
ell 610, elapsed: 0.0003879070281982422
ell 609, elapsed: 0.0005490779876708984
ell 608, elapsed: 0.00039005279541015625
ell 607, elapsed: 0.00047707557678222656
ell 606, elapsed: 0.00038504600524902344
ell 605, elapsed: 0.0004711151123046875
ell 604, elapsed: 0.0003871917724609375
ell 603, elapsed: 0.0004680156707763672
ell 602, elapsed: 0.0003840923309326172
ell 601, elapsed: 0.0004820823669433594
ell 600, elapsed: 0.0004839897155761719
ell 599, elapsed: 0.0005099773406982422
ell 598, elapsed: 0.0004069805145263672
ell 597, elapsed: 0.0005109310150146484
ell 596, elapsed: 0.0003859996795654297
ell 595, elapsed: 0.0004868507385253906
ell 594, elapsed: 0.00039005279541015625
ell 593, elapsed: 0.0004780292510986328
ell 592, elapsed: 0.0005159378051757812
ell 591, elapsed: 0.0005970001220703125
ell 590, elapsed: 0.00038504600524902344
ell 589, elapsed: 0.0006480216979980469
ell 588, elapsed: 0.00047397613525390625
ell 587, elapsed: 0.00048804283142089844
ell 586, elapsed: 0.00039005279541015625
ell 585, elapsed: 0.0006909370422363281
ell 584, elapsed: 0.0005080699920654297
ell 583, elapsed: 0.0004780292510986328
ell 582, elapsed: 0.00040984153747558594
ell 581, elapsed: 0.0005750656127929688
ell 580, elapsed: 0.0005409717559814453
ell 579, elapsed: 0.0006148815155029297
ell 578, elapsed: 0.000514984130859375
ell 577, elapsed: 0.0004799365997314453
ell 576, elapsed: 0.0004019737243652344
ell 575, elapsed: 0.000476837158203125
ell 574, elapsed: 0.00039196014404296875
ell 573, elapsed: 0.0004971027374267578
ell 572, elapsed: 0.00038909912109375
ell 571, elapsed: 0.00048804283142089844
ell 570, elapsed: 0.0166471004486084
ell 569, elapsed: 0.0007860660552978516
ell 568, elapsed: 0.0004661083221435547
ell 567, elapsed: 0.0004849433898925781
ell 566, elapsed: 0.0003840923309326172
ell 565, elapsed: 0.0004718303680419922
ell 564, elapsed: 0.0003821849822998047
ell 563, elapsed: 0.0005040168762207031
ell 562, elapsed: 0.00048804283142089844
ell 561, elapsed: 0.0006499290466308594
ell 560, elapsed: 0.00039505958557128906
ell 559, elapsed: 0.0006699562072753906
ell 558, elapsed: 0.0004968643188476562
ell 557, elapsed: 0.0006670951843261719
ell 556, elapsed: 0.0006010532379150391
ell 555, elapsed: 0.0006518363952636719
ell 554, elapsed: 0.0005419254302978516
ell 553, elapsed: 0.0007300376892089844
ell 552, elapsed: 0.0004990100860595703
ell 551, elapsed: 0.0004551410675048828
ell 550, elapsed: 0.0003941059112548828
ell 549, elapsed: 0.0005891323089599609
ell 548, elapsed: 0.0005190372467041016
ell 547, elapsed: 0.0006849765777587891
ell 546, elapsed: 0.0006279945373535156
ell 545, elapsed: 0.0007250308990478516
ell 544, elapsed: 0.016627073287963867
ell 543, elapsed: 0.0005309581756591797
ell 542, elapsed: 0.0004031658172607422
ell 541, elapsed: 0.0004858970642089844
ell 540, elapsed: 0.0003910064697265625
ell 539, elapsed: 0.0004780292510986328
ell 538, elapsed: 0.0003921985626220703
ell 537, elapsed: 0.0006730556488037109
ell 536, elapsed: 0.0004980564117431641
ell 535, elapsed: 0.0006380081176757812
ell 534, elapsed: 0.00047898292541503906
ell 533, elapsed: 0.0007069110870361328
ell 532, elapsed: 0.00047516822814941406
ell 531, elapsed: 0.0004839897155761719
ell 530, elapsed: 0.0005810260772705078
ell 529, elapsed: 0.0005629062652587891
ell 528, elapsed: 0.0003848075866699219
ell 527, elapsed: 0.00047707557678222656
ell 526, elapsed: 0.0003879070281982422
ell 525, elapsed: 0.0006570816040039062
ell 524, elapsed: 0.0005950927734375
ell 523, elapsed: 0.0007550716400146484
ell 522, elapsed: 0.0006098747253417969
ell 521, elapsed: 0.0007221698760986328
ell 520, elapsed: 0.0005130767822265625
ell 519, elapsed: 0.0006089210510253906
ell 518, elapsed: 0.0005278587341308594
ell 517, elapsed: 0.02072906494140625
ell 516, elapsed: 0.00042819976806640625
ell 515, elapsed: 0.00051116943359375
ell 514, elapsed: 0.00039505958557128906
ell 513, elapsed: 0.0006270408630371094
ell 512, elapsed: 0.0005078315734863281
ell 511, elapsed: 0.0004901885986328125
ell 510, elapsed: 0.0003879070281982422
ell 509, elapsed: 0.0006148815155029297
ell 508, elapsed: 0.0003910064697265625
ell 507, elapsed: 0.00047516822814941406
ell 506, elapsed: 0.0003859996795654297
ell 505, elapsed: 0.0004799365997314453
ell 504, elapsed: 0.0003898143768310547
ell 503, elapsed: 0.00047516822814941406
ell 502, elapsed: 0.00038909912109375
ell 501, elapsed: 0.0005080699920654297
ell 500, elapsed: 0.00038886070251464844
ell 499, elapsed: 0.0004818439483642578
ell 498, elapsed: 0.0003979206085205078
ell 497, elapsed: 0.0004780292510986328
ell 496, elapsed: 0.0003871917724609375
ell 495, elapsed: 0.0004730224609375
ell 494, elapsed: 0.00041103363037109375
ell 493, elapsed: 0.0006918907165527344
ell 492, elapsed: 0.0005850791931152344
ell 491, elapsed: 0.0005598068237304688
ell 490, elapsed: 0.00039696693420410156
ell 489, elapsed: 0.0007297992706298828
ell 488, elapsed: 0.0005488395690917969
ell 487, elapsed: 0.0004990100860595703
ell 486, elapsed: 0.016505956649780273
ell 485, elapsed: 0.0005438327789306641
ell 484, elapsed: 0.0004839897155761719
ell 483, elapsed: 0.0007309913635253906
ell 482, elapsed: 0.0004467964172363281
ell 481, elapsed: 0.0006349086761474609
ell 480, elapsed: 0.0004940032958984375
ell 479, elapsed: 0.0006349086761474609
ell 478, elapsed: 0.0006051063537597656
ell 477, elapsed: 0.0005488395690917969
ell 476, elapsed: 0.00038886070251464844
ell 475, elapsed: 0.0006008148193359375
ell 474, elapsed: 0.0004980564117431641
ell 473, elapsed: 0.0005059242248535156
ell 472, elapsed: 0.0003609657287597656
ell 471, elapsed: 0.000476837158203125
ell 470, elapsed: 0.00036597251892089844
ell 469, elapsed: 0.00067901611328125
ell 468, elapsed: 0.00041103363037109375
ell 467, elapsed: 0.0005879402160644531
ell 466, elapsed: 0.0006070137023925781
ell 465, elapsed: 0.0005350112915039062
ell 464, elapsed: 0.0003960132598876953
ell 463, elapsed: 0.0006558895111083984
ell 462, elapsed: 0.0005021095275878906
ell 461, elapsed: 0.0006539821624755859
ell 460, elapsed: 0.0004858970642089844
ell 459, elapsed: 0.01657700538635254
ell 458, elapsed: 0.0005121231079101562
ell 457, elapsed: 0.0007750988006591797
ell 456, elapsed: 0.00046706199645996094
ell 455, elapsed: 0.0004999637603759766
ell 454, elapsed: 0.00039505958557128906
ell 453, elapsed: 0.0004627704620361328
ell 452, elapsed: 0.0005810260772705078
ell 451, elapsed: 0.0005819797515869141
ell 450, elapsed: 0.0004639625549316406
ell 449, elapsed: 0.0006268024444580078
ell 448, elapsed: 0.00039196014404296875
ell 447, elapsed: 0.0006880760192871094
ell 446, elapsed: 0.0005640983581542969
ell 445, elapsed: 0.0007469654083251953
ell 444, elapsed: 0.00047397613525390625
ell 443, elapsed: 0.00047707557678222656
ell 442, elapsed: 0.0005159378051757812
ell 441, elapsed: 0.0007290840148925781
ell 440, elapsed: 0.00047206878662109375
ell 439, elapsed: 0.000476837158203125
ell 438, elapsed: 0.0004019737243652344
ell 437, elapsed: 0.0004868507385253906
ell 436, elapsed: 0.0005509853363037109
ell 435, elapsed: 0.0005578994750976562
ell 434, elapsed: 0.0005319118499755859
ell 433, elapsed: 0.0005679130554199219
ell 432, elapsed: 0.0005459785461425781
ell 431, elapsed: 0.008711814880371094
ell 430, elapsed: 0.00041103363037109375
ell 429, elapsed: 0.0005030632019042969
ell 428, elapsed: 0.00039505958557128906
ell 427, elapsed: 0.00048804283142089844
ell 426, elapsed: 0.00038886070251464844
ell 425, elapsed: 0.0004839897155761719
ell 424, elapsed: 0.00039196014404296875
ell 423, elapsed: 0.0007131099700927734
ell 422, elapsed: 0.0004239082336425781
ell 421, elapsed: 0.0004978179931640625
ell 420, elapsed: 0.00039696693420410156
ell 419, elapsed: 0.0004839897155761719
ell 418, elapsed: 0.0003991127014160156
ell 417, elapsed: 0.0004899501800537109
ell 416, elapsed: 0.00041604042053222656
ell 415, elapsed: 0.0004858970642089844
ell 414, elapsed: 0.00039196014404296875
ell 413, elapsed: 0.0004839897155761719
ell 412, elapsed: 0.0003960132598876953
ell 411, elapsed: 0.00047707557678222656
ell 410, elapsed: 0.00039196014404296875
ell 409, elapsed: 0.00047779083251953125
ell 408, elapsed: 0.0004000663757324219
ell 407, elapsed: 0.0004987716674804688
ell 406, elapsed: 0.00039005279541015625
ell 405, elapsed: 0.0004858970642089844
ell 404, elapsed: 0.0003979206085205078
ell 403, elapsed: 0.0004849433898925781
ell 402, elapsed: 0.00038814544677734375
ell 401, elapsed: 0.0004630088806152344
ell 400, elapsed: 0.0003819465637207031
ell 399, elapsed: 0.016562223434448242
ell 398, elapsed: 0.0005700588226318359
ell 397, elapsed: 0.0005991458892822266
ell 396, elapsed: 0.0003921985626220703
ell 395, elapsed: 0.0006918907165527344
ell 394, elapsed: 0.00041294097900390625
ell 393, elapsed: 0.0007898807525634766
ell 392, elapsed: 0.000598907470703125
ell 391, elapsed: 0.0006709098815917969
ell 390, elapsed: 0.0005080699920654297
ell 389, elapsed: 0.0007228851318359375
ell 388, elapsed: 0.0005550384521484375
ell 387, elapsed: 0.0007381439208984375
ell 386, elapsed: 0.0004639625549316406
ell 385, elapsed: 0.00047707557678222656
ell 384, elapsed: 0.00039196014404296875
ell 383, elapsed: 0.0006868839263916016
ell 382, elapsed: 0.0006089210510253906
ell 381, elapsed: 0.0007331371307373047
ell 380, elapsed: 0.0005221366882324219
ell 379, elapsed: 0.0005679130554199219
ell 378, elapsed: 0.0006110668182373047
ell 377, elapsed: 0.0006639957427978516
ell 376, elapsed: 0.0005171298980712891
ell 375, elapsed: 0.0005869865417480469
ell 374, elapsed: 0.00038695335388183594
ell 373, elapsed: 0.0006771087646484375
ell 372, elapsed: 0.0006129741668701172
ell 371, elapsed: 0.0005910396575927734
ell 370, elapsed: 0.0005340576171875
ell 369, elapsed: 0.0005810260772705078
ell 368, elapsed: 0.00045609474182128906
ell 367, elapsed: 0.016772031784057617
ell 366, elapsed: 0.0003879070281982422
ell 365, elapsed: 0.0004630088806152344
ell 364, elapsed: 0.00038504600524902344
ell 363, elapsed: 0.0005979537963867188
ell 362, elapsed: 0.0004730224609375
ell 361, elapsed: 0.0004360675811767578
ell 360, elapsed: 0.0003578662872314453
ell 359, elapsed: 0.0006890296936035156
ell 358, elapsed: 0.0005371570587158203
ell 357, elapsed: 0.0007269382476806641
ell 356, elapsed: 0.0005519390106201172
ell 355, elapsed: 0.0007369518280029297
ell 354, elapsed: 0.0005061626434326172
ell 353, elapsed: 0.0006480216979980469
ell 352, elapsed: 0.00045299530029296875
ell 351, elapsed: 0.0006630420684814453
ell 350, elapsed: 0.00047087669372558594
ell 349, elapsed: 0.0005657672882080078
ell 348, elapsed: 0.0005772113800048828
ell 347, elapsed: 0.0006990432739257812
ell 346, elapsed: 0.00040793418884277344
ell 345, elapsed: 0.0004341602325439453
ell 344, elapsed: 0.0005190372467041016
ell 343, elapsed: 0.0007231235504150391
ell 342, elapsed: 0.0005238056182861328
ell 341, elapsed: 0.0007309913635253906
ell 340, elapsed: 0.016561031341552734
ell 339, elapsed: 0.0006229877471923828
ell 338, elapsed: 0.0004050731658935547
ell 337, elapsed: 0.0004990100860595703
ell 336, elapsed: 0.00038313865661621094
ell 335, elapsed: 0.0004661083221435547
ell 334, elapsed: 0.0003800392150878906
ell 333, elapsed: 0.0004649162292480469
ell 332, elapsed: 0.0003979206085205078
ell 331, elapsed: 0.00046181678771972656
ell 330, elapsed: 0.0004968643188476562
ell 329, elapsed: 0.0006270408630371094
ell 328, elapsed: 0.0005209445953369141
ell 327, elapsed: 0.0006091594696044922
ell 326, elapsed: 0.0005309581756591797
ell 325, elapsed: 0.0006239414215087891
ell 324, elapsed: 0.0005290508270263672
ell 323, elapsed: 0.0006182193756103516
ell 322, elapsed: 0.0005071163177490234
ell 321, elapsed: 0.00045418739318847656
ell 320, elapsed: 0.0003838539123535156
ell 319, elapsed: 0.0004858970642089844
ell 318, elapsed: 0.00040078163146972656
ell 317, elapsed: 0.0004990100860595703
ell 316, elapsed: 0.00038886070251464844
ell 315, elapsed: 0.0004642009735107422
ell 314, elapsed: 0.0003859996795654297
ell 313, elapsed: 0.00045800209045410156
ell 312, elapsed: 0.005763053894042969
ell 311, elapsed: 0.0007550716400146484
ell 310, elapsed: 0.0004341602325439453
ell 309, elapsed: 0.00049591064453125
ell 308, elapsed: 0.0003941059112548828
ell 307, elapsed: 0.00048804283142089844
ell 306, elapsed: 0.0005519390106201172
ell 305, elapsed: 0.0005660057067871094
ell 304, elapsed: 0.0005359649658203125
ell 303, elapsed: 0.000579833984375
ell 302, elapsed: 0.0003809928894042969
ell 301, elapsed: 0.0004448890686035156
ell 300, elapsed: 0.000553131103515625
ell 299, elapsed: 0.0007250308990478516
ell 298, elapsed: 0.0006430149078369141
ell 297, elapsed: 0.00074005126953125
ell 296, elapsed: 0.0006039142608642578
ell 295, elapsed: 0.0007319450378417969
ell 294, elapsed: 0.0005159378051757812
ell 293, elapsed: 0.0007410049438476562
ell 292, elapsed: 0.0005459785461425781
ell 291, elapsed: 0.0006611347198486328
ell 290, elapsed: 0.0006098747253417969
ell 289, elapsed: 0.0005388259887695312
ell 288, elapsed: 0.0005152225494384766
ell 287, elapsed: 0.0005779266357421875
ell 286, elapsed: 0.0004889965057373047
ell 285, elapsed: 0.0006449222564697266
ell 284, elapsed: 0.0006029605865478516
ell 283, elapsed: 0.0005939006805419922
ell 282, elapsed: 0.00038504600524902344
ell 281, elapsed: 0.0004520416259765625
ell 280, elapsed: 0.0005121231079101562
ell 279, elapsed: 0.0006759166717529297
ell 278, elapsed: 0.0003712177276611328
ell 277, elapsed: 0.0004417896270751953
ell 276, elapsed: 0.0003600120544433594
ell 275, elapsed: 0.00043487548828125
ell 274, elapsed: 0.0003650188446044922
ell 273, elapsed: 0.0005400180816650391
ell 272, elapsed: 0.0005090236663818359
ell 271, elapsed: 0.0005519390106201172
ell 270, elapsed: 0.0004558563232421875
ell 269, elapsed: 0.0007448196411132812
ell 268, elapsed: 0.0005002021789550781
ell 267, elapsed: 0.0004589557647705078
ell 266, elapsed: 0.00037407875061035156
ell 265, elapsed: 0.0005900859832763672
ell 264, elapsed: 0.0007190704345703125
ell 263, elapsed: 0.0007309913635253906
ell 262, elapsed: 0.00045490264892578125
ell 261, elapsed: 0.0004677772521972656
ell 260, elapsed: 0.0003790855407714844
ell 259, elapsed: 0.00045490264892578125
ell 258, elapsed: 0.0004820823669433594
ell 257, elapsed: 0.0008339881896972656
ell 256, elapsed: 0.00047397613525390625
ell 255, elapsed: 0.000453948974609375
ell 254, elapsed: 0.00037479400634765625
ell 253, elapsed: 0.0006129741668701172
ell 252, elapsed: 0.0004730224609375
ell 251, elapsed: 0.0004818439483642578
ell 250, elapsed: 0.0003800392150878906
ell 249, elapsed: 0.0005640983581542969
ell 248, elapsed: 0.0004601478576660156
ell 247, elapsed: 0.0007119178771972656
ell 246, elapsed: 0.0005731582641601562
ell 245, elapsed: 0.0006878376007080078
ell 244, elapsed: 0.0004949569702148438
ell 243, elapsed: 0.0007801055908203125
ell 242, elapsed: 0.0004601478576660156
ell 241, elapsed: 0.0007030963897705078
ell 240, elapsed: 0.0005199909210205078
ell 239, elapsed: 0.00046896934509277344
ell 238, elapsed: 0.0005221366882324219
ell 237, elapsed: 0.0007181167602539062
ell 236, elapsed: 0.0005710124969482422
ell 235, elapsed: 0.0007090568542480469
ell 234, elapsed: 0.000598907470703125
ell 233, elapsed: 0.000701904296875
ell 232, elapsed: 0.0006010532379150391
ell 231, elapsed: 0.0008440017700195312
ell 230, elapsed: 0.0005068778991699219
ell 229, elapsed: 0.0004630088806152344
ell 228, elapsed: 0.0003628730773925781
ell 227, elapsed: 0.00045800209045410156
ell 226, elapsed: 0.0004899501800537109
ell 225, elapsed: 0.0007181167602539062
ell 224, elapsed: 0.0007159709930419922
ell 223, elapsed: 0.0007238388061523438
ell 222, elapsed: 0.0006020069122314453
ell 221, elapsed: 0.0007128715515136719
ell 220, elapsed: 0.000598907470703125
ell 219, elapsed: 0.0008411407470703125
ell 218, elapsed: 0.00043082237243652344
ell 217, elapsed: 0.0004439353942871094
ell 216, elapsed: 0.00038313865661621094
ell 215, elapsed: 0.0006561279296875
ell 214, elapsed: 0.0005080699920654297
ell 213, elapsed: 0.000659942626953125
ell 212, elapsed: 0.0006430149078369141
ell 211, elapsed: 0.0006668567657470703
ell 210, elapsed: 0.0005919933319091797
ell 209, elapsed: 0.0007219314575195312
ell 208, elapsed: 0.0006000995635986328
ell 207, elapsed: 0.000720977783203125
ell 206, elapsed: 0.0009870529174804688
ell 205, elapsed: 0.0007259845733642578
ell 204, elapsed: 0.0004889965057373047
ell 203, elapsed: 0.00045180320739746094
ell 202, elapsed: 0.0003750324249267578
ell 201, elapsed: 0.00046896934509277344
ell 200, elapsed: 0.0006549358367919922
ell 199, elapsed: 0.0006060600280761719
ell 198, elapsed: 0.000370025634765625
ell 197, elapsed: 0.00045800209045410156
ell 196, elapsed: 0.0004928112030029297
ell 195, elapsed: 0.0007140636444091797
ell 194, elapsed: 0.0005929470062255859
ell 193, elapsed: 0.0008590221405029297
ell 192, elapsed: 0.0004971027374267578
ell 191, elapsed: 0.0004570484161376953
ell 190, elapsed: 0.0005009174346923828
ell 189, elapsed: 0.0007190704345703125
ell 188, elapsed: 0.0005991458892822266
ell 187, elapsed: 0.00104522705078125
ell 186, elapsed: 0.00037980079650878906
ell 185, elapsed: 0.0006668567657470703
ell 184, elapsed: 0.0004429817199707031
ell 183, elapsed: 0.0006780624389648438
ell 182, elapsed: 0.0006051063537597656
ell 181, elapsed: 0.0008461475372314453
ell 180, elapsed: 0.0006067752838134766
ell 179, elapsed: 0.0007228851318359375
ell 178, elapsed: 0.0005810260772705078
ell 177, elapsed: 0.0007090568542480469
ell 176, elapsed: 0.0006299018859863281
ell 175, elapsed: 0.0007071495056152344
ell 174, elapsed: 0.0005910396575927734
ell 173, elapsed: 0.0005910396575927734
ell 172, elapsed: 0.0005080699920654297
ell 171, elapsed: 0.0007030963897705078
ell 170, elapsed: 0.006270170211791992
ell 169, elapsed: 0.0011010169982910156
ell 168, elapsed: 0.0006678104400634766
ell 167, elapsed: 0.0007779598236083984
ell 166, elapsed: 0.0006279945373535156
ell 165, elapsed: 0.0007379055023193359
ell 164, elapsed: 0.0006060600280761719
ell 163, elapsed: 0.0007259845733642578
ell 162, elapsed: 0.0005109310150146484
ell 161, elapsed: 0.0004940032958984375
ell 160, elapsed: 0.00038313865661621094
ell 159, elapsed: 0.00045609474182128906
ell 158, elapsed: 0.00037980079650878906
ell 157, elapsed: 0.0006330013275146484
ell 156, elapsed: 0.0006029605865478516
ell 155, elapsed: 0.0007190704345703125
ell 154, elapsed: 0.0006208419799804688
ell 153, elapsed: 0.0007159709930419922
ell 152, elapsed: 0.0006010532379150391
ell 151, elapsed: 0.0007081031799316406
ell 150, elapsed: 0.0005350112915039062
ell 149, elapsed: 0.0008008480072021484
ell 148, elapsed: 0.0005359649658203125
ell 147, elapsed: 0.0008058547973632812
ell 146, elapsed: 0.0004901885986328125
ell 145, elapsed: 0.0004889965057373047
ell 144, elapsed: 0.0004019737243652344
ell 143, elapsed: 0.0006821155548095703
ell 142, elapsed: 0.0018439292907714844
ell 141, elapsed: 0.0006809234619140625
ell 140, elapsed: 0.0004611015319824219
ell 139, elapsed: 0.000598907470703125
ell 138, elapsed: 0.0005450248718261719
ell 137, elapsed: 0.0005629062652587891
ell 136, elapsed: 0.0005960464477539062
ell 135, elapsed: 0.0006659030914306641
ell 134, elapsed: 0.0004811286926269531
ell 133, elapsed: 0.0007190704345703125
ell 132, elapsed: 0.0004448890686035156
ell 131, elapsed: 0.0005218982696533203
ell 130, elapsed: 0.0003910064697265625
ell 129, elapsed: 0.0004780292510986328
ell 128, elapsed: 0.0003840923309326172
ell 127, elapsed: 0.0004608631134033203
ell 126, elapsed: 0.0005140304565429688
ell 125, elapsed: 0.0007219314575195312
ell 124, elapsed: 0.0004520416259765625
ell 123, elapsed: 0.0004899501800537109
ell 122, elapsed: 0.0004019737243652344
ell 121, elapsed: 0.0005931854248046875
ell 120, elapsed: 0.00047087669372558594
ell 119, elapsed: 0.0006759166717529297
ell 118, elapsed: 0.0004520416259765625
ell 117, elapsed: 0.0006089210510253906
ell 116, elapsed: 0.0004909038543701172
ell 115, elapsed: 0.0004620552062988281
ell 114, elapsed: 0.0003910064697265625
ell 113, elapsed: 0.0006208419799804688
ell 112, elapsed: 0.00047707557678222656
ell 111, elapsed: 0.0006818771362304688
ell 110, elapsed: 0.0005688667297363281
ell 109, elapsed: 0.0005838871002197266
ell 108, elapsed: 0.000392913818359375
ell 107, elapsed: 0.0005691051483154297
ell 106, elapsed: 0.0005440711975097656
ell 105, elapsed: 0.0004630088806152344
ell 104, elapsed: 0.0003972053527832031
ell 103, elapsed: 0.0006799697875976562
ell 102, elapsed: 0.0004410743713378906
ell 101, elapsed: 0.0005671977996826172
ell 100, elapsed: 0.0007929801940917969
ell 99, elapsed: 0.0008208751678466797
ell 98, elapsed: 0.0006189346313476562
ell 97, elapsed: 0.0007889270782470703
ell 96, elapsed: 0.0005221366882324219
ell 95, elapsed: 0.00045299530029296875
ell 94, elapsed: 0.0005350112915039062
ell 93, elapsed: 0.0005650520324707031
ell 92, elapsed: 0.0003688335418701172
ell 91, elapsed: 0.00043511390686035156
ell 90, elapsed: 0.0003628730773925781
ell 89, elapsed: 0.00046181678771972656
ell 88, elapsed: 0.00037097930908203125
ell 87, elapsed: 0.00044608116149902344
ell 86, elapsed: 0.00036597251892089844
ell 85, elapsed: 0.0004360675811767578
ell 84, elapsed: 0.00036978721618652344
ell 83, elapsed: 0.0004329681396484375
ell 82, elapsed: 0.0003650188446044922
ell 81, elapsed: 0.0006201267242431641
ell 80, elapsed: 0.0004980564117431641
ell 79, elapsed: 0.0006728172302246094
ell 78, elapsed: 0.0006010532379150391
ell 77, elapsed: 0.0006990432739257812
ell 76, elapsed: 0.0005950927734375
ell 75, elapsed: 0.0006961822509765625
ell 74, elapsed: 0.0006170272827148438
ell 73, elapsed: 0.0007150173187255859
ell 72, elapsed: 0.0006020069122314453
ell 71, elapsed: 0.0007112026214599609
ell 70, elapsed: 0.0005838871002197266
ell 69, elapsed: 0.0007550716400146484
ell 68, elapsed: 0.0005140304565429688
ell 67, elapsed: 0.0004649162292480469
ell 66, elapsed: 0.0005369186401367188
ell 65, elapsed: 0.0006158351898193359
ell 64, elapsed: 0.0005369186401367188
ell 63, elapsed: 0.0005941390991210938
ell 62, elapsed: 0.0003800392150878906
ell 61, elapsed: 0.0005152225494384766
ell 60, elapsed: 0.00036907196044921875
ell 59, elapsed: 0.0004429817199707031
ell 58, elapsed: 0.0003769397735595703
ell 57, elapsed: 0.00046706199645996094
ell 56, elapsed: 0.0004849433898925781
ell 55, elapsed: 0.0006308555603027344
ell 54, elapsed: 0.0003821849822998047
ell 53, elapsed: 0.0004379749298095703
ell 52, elapsed: 0.0003840923309326172
ell 51, elapsed: 0.0006339550018310547
ell 50, elapsed: 0.0004990100860595703
ell 49, elapsed: 0.0006539821624755859
ell 48, elapsed: 0.0005328655242919922
ell 47, elapsed: 0.0007021427154541016
ell 46, elapsed: 0.0004458427429199219
ell 45, elapsed: 0.0004978179931640625
ell 44, elapsed: 0.0004119873046875
ell 43, elapsed: 0.0006909370422363281
ell 42, elapsed: 0.0005409717559814453
ell 41, elapsed: 0.0006680488586425781
ell 40, elapsed: 0.0006229877471923828
ell 39, elapsed: 0.0005629062652587891
ell 38, elapsed: 0.00038313865661621094
ell 37, elapsed: 0.00047588348388671875
ell 36, elapsed: 0.0003731250762939453
ell 35, elapsed: 0.0006608963012695312
ell 34, elapsed: 0.0005240440368652344
ell 33, elapsed: 0.0006861686706542969
ell 32, elapsed: 0.0004229545593261719
ell 31, elapsed: 0.0004858970642089844
ell 30, elapsed: 0.0005440711975097656
ell 29, elapsed: 0.0005679130554199219
ell 28, elapsed: 0.0005238056182861328
ell 27, elapsed: 0.0006039142608642578
ell 26, elapsed: 0.0003941059112548828
ell 25, elapsed: 0.0006270408630371094
ell 24, elapsed: 0.0005249977111816406
ell 23, elapsed: 0.0004889965057373047
ell 22, elapsed: 0.000392913818359375
ell 21, elapsed: 0.000659942626953125
ell 20, elapsed: 0.00043010711669921875
ell 19, elapsed: 0.0006248950958251953
ell 18, elapsed: 0.0004780292510986328
ell 17, elapsed: 0.0006000995635986328
ell 16, elapsed: 0.0006189346313476562
ell 15, elapsed: 0.0007579326629638672
ell 14, elapsed: 0.0006160736083984375
ell 13, elapsed: 0.0006718635559082031
ell 12, elapsed: 0.0003819465637207031
ell 11, elapsed: 0.0004520416259765625
ell 10, elapsed: 0.0005059242248535156
ell 9, elapsed: 0.0006449222564697266
ell 8, elapsed: 0.00039505958557128906
ell 7, elapsed: 0.0006489753723144531
ell 6, elapsed: 0.00047278404235839844
ell 5, elapsed: 0.0005960464477539062
ell 4, elapsed: 0.00037789344787597656
ell 3, elapsed: 0.00045800209045410156
ell 2, elapsed: 0.0003871917724609375
ell 1, elapsed: 0.00048804283142089844
ell 0, elapsed: 0.0003941059112548828
  0.831062 seconds (41.19 k allocations: 2.939 MiB)
elapsed: 0.0006020069122314453
step:          0.087123 sec (0 allocations: 0 byte, 0.0% gc time)
swapping:      0.00088 sec (0 allocations: 0 byte, 0.0% gc time)
calc_Mellell!: 0.011227 sec (0 allocations: 0 byte, 0.0% gc time)
  t0 :  0.002546 sec (0 allocations: 0 byte, 0.0% gc time)
  tm2 : 0.118022 sec (0 allocations: 0 byte, 0.0% gc time)
  tm2s: 0.002147 sec (0 allocations: 0 byte, 0.0% gc time)
  tm4 : 0.337751 sec (0 allocations: 0 byte, 0.0% gc time)
  tp2 : 0.0 sec (0 allocations: 0 byte, 0.0% gc time)
  tp2s: 0.0 sec (0 allocations: 0 byte, 0.0% gc time)
  tp4 : 0.0 sec (0 allocations: 0 byte, 0.0% gc time)
calc_wtdll!:   0.480845 sec (9.87 k allocations: 1.043 MB, 0.0% gc time)
calc_wljj!:    0.057325 sec (689 allocations: 10.766 KB, 0.0% gc time)
mult_prefac!:  0.0 sec (0 allocations: 0 byte, 0.0% gc time)
convert:       0.0 sec (0 allocations: 0 byte, 0.0% gc time)
write:         0.098986 sec (0 allocations: 0 byte, 0.0% gc time)
test_rand_2f1: 0.0 sec (0 allocations: 0 byte, 0.0% gc time)
Closing outfile out/Ml21-cache.bin...   0.022267 seconds
  0.000568 seconds (52 allocations: 28.297 KiB)
make_phi():   0.002663 seconds (8.20 k allocations: 238.016 KiB)
  0.182527 seconds (146.69 k allocations: 3.629 MiB)
tskip:       0.00123 sec (0 allocations: 0 byte, 0.0% gc time)
tread:       0.025263 sec (19 allocations: 10.688 KB, 0.0% gc time)
tmultphi:    0.012889 sec (0 allocations: 0 byte, 0.0% gc time)
tbrfft:      0.043842 sec (9.592 k allocations: 449.625 KB, 0.0% gc time)
tmultprefac: 0.036113 sec (0 allocations: 0 byte, 0.0% gc time)
toutfunc:    0.061237 sec (129.905 k allocations: 2.421 MB, 0.0% gc time)
Testing R=1.0 ... passed
Calculating fmax: 
  dlrec    = 4
  dlrecRg1 = -4
  q=1.1, R=0.9:	  0.475720 seconds (116.47 k allocations: 15.614 MiB)

  0.475996 seconds (116.50 k allocations: 15.647 MiB)
ℓ = 1202
Δℓ = 4
ΔℓRg1 = -4
N = 1600
q = 1.1
kmin = 1.0e-5
kmax = 100000.00000000004
χ0 = 0.023029999999999995
RR = RR.tsv
ℓmax = ℓmax.bin
f21 = f21.bin
kmin = 1.0e-5
kmax = 100000.0
dlrec    = 4
dlrecRg1 = -4
Output size: 5741568 bytes = 0.005347251892089844 GiB
Output size: 51264 bytes = 4.774332046508789e-5 GiB
Reading 'out/F21EllCache'...   0.001705 seconds (267 allocations: 84.656 KiB)
ellmax: 1202
lmaxcache: 1202
fell[:,1,1] = Complex{Float64}[1.3482014726274674e-57 - 3.302141236118086e-73im, 1.357860004724329e-57 - 3.3257978169518355e-73im]
ell 1202, elapsed: 2.3126602172851562e-5
ell 1201, elapsed: 0.0004730224609375
ell 1200, elapsed: 0.0007159709930419922
ell 1199, elapsed: 0.0005190372467041016
ell 1198, elapsed: 0.0004980564117431641
ell 1002, elapsed: 0.01001596450805664
ell 1001, elapsed: 0.0003898143768310547
ell 1000, elapsed: 0.0003490447998046875
ell 999, elapsed: 0.00048613548278808594
ell 998, elapsed: 0.0004730224609375
ell 902, elapsed: 0.005244016647338867
ell 901, elapsed: 0.0004830360412597656
ell 900, elapsed: 0.0005879402160644531
ell 899, elapsed: 0.0005340576171875
ell 898, elapsed: 0.0004949569702148438
ell 802, elapsed: 0.005455970764160156
ell 801, elapsed: 0.00044798851013183594
ell 800, elapsed: 0.0006990432739257812
ell 799, elapsed: 0.0005059242248535156
ell 798, elapsed: 0.0003631114959716797
ell 702, elapsed: 0.004951953887939453
ell 701, elapsed: 0.0004038810729980469
ell 700, elapsed: 0.0004627704620361328
ell 699, elapsed: 0.0005638599395751953
ell 698, elapsed: 0.0007309913635253906
ell 602, elapsed: 0.005252838134765625
ell 601, elapsed: 0.00039196014404296875
ell 600, elapsed: 0.00033593177795410156
ell 599, elapsed: 0.00033783912658691406
ell 598, elapsed: 0.0003330707550048828
ell 502, elapsed: 0.004869937896728516
ell 501, elapsed: 0.0004467964172363281
ell 500, elapsed: 0.0006439685821533203
ell 499, elapsed: 0.0006258487701416016
ell 498, elapsed: 0.0004858970642089844
ell 402, elapsed: 0.00506591796875
ell 401, elapsed: 0.00039196014404296875
ell 400, elapsed: 0.0004649162292480469
ell 399, elapsed: 0.0005629062652587891
ell 398, elapsed: 0.0005228519439697266
ell 302, elapsed: 0.005486011505126953
ell 301, elapsed: 0.0004949569702148438
ell 300, elapsed: 0.0003631114959716797
ell 299, elapsed: 0.0003571510314941406
ell 298, elapsed: 0.0003581047058105469
ell 202, elapsed: 0.005504131317138672
ell 201, elapsed: 0.0006031990051269531
ell 200, elapsed: 0.00044608116149902344
ell 199, elapsed: 0.00033211708068847656
ell 198, elapsed: 0.0003368854522705078
ell 152, elapsed: 0.002391815185546875
ell 151, elapsed: 0.0005619525909423828
ell 150, elapsed: 0.00045990943908691406
ell 149, elapsed: 0.0004677772521972656
ell 148, elapsed: 0.0004558563232421875
ell 127, elapsed: 0.0015821456909179688
ell 126, elapsed: 0.0004961490631103516
ell 125, elapsed: 0.00043487548828125
ell 124, elapsed: 0.000331878662109375
ell 123, elapsed: 0.0003311634063720703
ell 114, elapsed: 0.0007729530334472656
ell 113, elapsed: 0.0005030632019042969
ell 112, elapsed: 0.0005350112915039062
ell 111, elapsed: 0.0005338191986083984
ell 110, elapsed: 0.0007970333099365234
ell 102, elapsed: 0.0013577938079833984
ell 101, elapsed: 0.0004839897155761719
ell 100, elapsed: 0.00047397613525390625
ell 99, elapsed: 0.000621795654296875
ell 98, elapsed: 0.0005791187286376953
ell 97, elapsed: 0.0005550384521484375
ell 96, elapsed: 0.0006849765777587891
ell 95, elapsed: 0.0005221366882324219
ell 94, elapsed: 0.0006139278411865234
ell 93, elapsed: 0.0004799365997314453
ell 92, elapsed: 0.0008540153503417969
ell 91, elapsed: 0.0005030632019042969
ell 90, elapsed: 0.0005838871002197266
ell 89, elapsed: 0.000492095947265625
ell 88, elapsed: 0.0005750656127929688
ell 87, elapsed: 0.0004949569702148438
ell 86, elapsed: 0.0007579326629638672
ell 85, elapsed: 0.0006148815155029297
ell 84, elapsed: 0.0006220340728759766
ell 83, elapsed: 0.0003619194030761719
ell 82, elapsed: 0.0004379749298095703
ell 81, elapsed: 0.00047898292541503906
ell 80, elapsed: 0.0007328987121582031
ell 79, elapsed: 0.0006489753723144531
ell 78, elapsed: 0.0005440711975097656
ell 77, elapsed: 0.0006959438323974609
ell 76, elapsed: 0.0005991458892822266
ell 75, elapsed: 0.00047397613525390625
ell 74, elapsed: 0.0005769729614257812
ell 73, elapsed: 0.0004448890686035156
ell 72, elapsed: 0.0004839897155761719
ell 71, elapsed: 0.0003781318664550781
ell 70, elapsed: 0.00047588348388671875
ell 69, elapsed: 0.0004899501800537109
ell 68, elapsed: 0.0006268024444580078
ell 67, elapsed: 0.000370025634765625
ell 66, elapsed: 0.0005879402160644531
ell 65, elapsed: 0.0005478858947753906
ell 64, elapsed: 0.0008161067962646484
ell 63, elapsed: 0.0007271766662597656
ell 62, elapsed: 0.0007159709930419922
ell 61, elapsed: 0.0004360675811767578
ell 60, elapsed: 0.0006990432739257812
ell 59, elapsed: 0.0004220008850097656
ell 58, elapsed: 0.0004718303680419922
ell 57, elapsed: 0.00037789344787597656
ell 56, elapsed: 0.0006937980651855469
ell 55, elapsed: 0.0005290508270263672
ell 54, elapsed: 0.0006949901580810547
ell 53, elapsed: 0.0006310939788818359
ell 52, elapsed: 0.0006210803985595703
ell 51, elapsed: 0.0005228519439697266
ell 50, elapsed: 0.0005979537963867188
ell 49, elapsed: 0.0006749629974365234
ell 48, elapsed: 0.0007998943328857422
ell 47, elapsed: 0.0004658699035644531
ell 46, elapsed: 0.0006320476531982422
ell 45, elapsed: 0.0004889965057373047
ell 44, elapsed: 0.0004620552062988281
ell 43, elapsed: 0.00037407875061035156
ell 42, elapsed: 0.0009281635284423828
ell 41, elapsed: 0.0005350112915039062
ell 40, elapsed: 0.0006301403045654297
ell 39, elapsed: 0.0004718303680419922
ell 38, elapsed: 0.0006220340728759766
ell 37, elapsed: 0.0004940032958984375
ell 36, elapsed: 0.0005679130554199219
ell 35, elapsed: 0.0004010200500488281
ell 34, elapsed: 0.0004839897155761719
ell 33, elapsed: 0.00039505958557128906
ell 32, elapsed: 0.0004742145538330078
ell 31, elapsed: 0.0005240440368652344
ell 30, elapsed: 0.0005869865417480469
ell 29, elapsed: 0.0003871917724609375
ell 28, elapsed: 0.0006570816040039062
ell 27, elapsed: 0.000469207763671875
ell 26, elapsed: 0.0007178783416748047
ell 25, elapsed: 0.0004839897155761719
ell 24, elapsed: 0.0006239414215087891
ell 23, elapsed: 0.00047397613525390625
ell 22, elapsed: 0.0005888938903808594
ell 21, elapsed: 0.0003788471221923828
ell 20, elapsed: 0.000469207763671875
ell 19, elapsed: 0.00048089027404785156
ell 18, elapsed: 0.0005998611450195312
ell 17, elapsed: 0.0005600452423095703
ell 16, elapsed: 0.0006649494171142578
ell 15, elapsed: 0.0005609989166259766
ell 14, elapsed: 0.0007090568542480469
ell 13, elapsed: 0.0004360675811767578
ell 12, elapsed: 0.0006639957427978516
ell 11, elapsed: 0.0005609989166259766
ell 10, elapsed: 0.0006630420684814453
ell 9, elapsed: 0.0007059574127197266
ell 8, elapsed: 0.0006000995635986328
ell 7, elapsed: 0.0004699230194091797
ell 6, elapsed: 0.0006439685821533203
ell 5, elapsed: 0.0003800392150878906
ell 4, elapsed: 0.0006151199340820312
ell 3, elapsed: 0.0005159378051757812
ell 2, elapsed: 0.0005249977111816406
ell 1, elapsed: 0.00028896331787109375
ell 0, elapsed: 0.000347137451171875
  0.149684 seconds (10.83 k allocations: 697.938 KiB)
elapsed: 0.00036787986755371094
step:          0.058382 sec (0 allocations: 0 byte, 0.0% gc time)
swapping:      0.00054 sec (0 allocations: 0 byte, 0.0% gc time)
calc_Mellell!: 0.002799 sec (0 allocations: 0 byte, 0.0% gc time)
  t0 :  0.000854 sec (0 allocations: 0 byte, 0.0% gc time)
  tm2 : 0.014984 sec (0 allocations: 0 byte, 0.0% gc time)
  tm2s: 0.000413 sec (0 allocations: 0 byte, 0.0% gc time)
  tm4 : 0.039552 sec (0 allocations: 0 byte, 0.0% gc time)
  tp2 : 0.0 sec (0 allocations: 0 byte, 0.0% gc time)
  tp2s: 0.0 sec (0 allocations: 0 byte, 0.0% gc time)
  tp4 : 0.0 sec (0 allocations: 0 byte, 0.0% gc time)
calc_wtdll!:   0.056752 sec (1.344 k allocations: 147.0 KB, 0.0% gc time)
calc_wljj!:    0.004299 sec (6 allocations: 96 byte, 0.0% gc time)
mult_prefac!:  0.0 sec (0 allocations: 0 byte, 0.0% gc time)
convert:       0.0 sec (0 allocations: 0 byte, 0.0% gc time)
write:         0.006373 sec (0 allocations: 0 byte, 0.0% gc time)
test_rand_2f1: 0.0 sec (0 allocations: 0 byte, 0.0% gc time)
Closing outfile out/Ml21-cache.bin...   0.001884 seconds
  0.000259 seconds (52 allocations: 28.297 KiB)
make_phi():   0.002879 seconds (8.20 k allocations: 238.016 KiB)
  0.017617 seconds (12.10 k allocations: 322.000 KiB)
tskip:       2.2e-5 sec (0 allocations: 0 byte, 0.0% gc time)
tread:       0.002538 sec (19 allocations: 2.172 KB, 0.0% gc time)
tmultphi:    0.001278 sec (0 allocations: 0 byte, 0.0% gc time)
tbrfft:      0.004253 sec (896 allocations: 42.0 KB, 0.0% gc time)
tmultprefac: 0.003569 sec (0 allocations: 0 byte, 0.0% gc time)
toutfunc:    0.005922 sec (10.528 k allocations: 206.5 KB, 0.0% gc time)
Testing R=0.9 ... passed
Calculating fmax: 
  dlrec    = 4
  dlrecRg1 = -4
  q=1.1, R=0.8:	  0.382016 seconds (113.61 k allocations: 15.166 MiB)

  0.382249 seconds (113.65 k allocations: 15.200 MiB)
ℓ = 1202
Δℓ = 4
ΔℓRg1 = -4
N = 1600
q = 1.1
kmin = 1.0e-5
kmax = 100000.00000000004
χ0 = 0.023029999999999995
RR = RR.tsv
ℓmax = ℓmax.bin
f21 = f21.bin
kmin = 1.0e-5
kmax = 100000.0
dlrec    = 4
dlrecRg1 = -4
Output size: 5741568 bytes = 0.005347251892089844 GiB
Output size: 51264 bytes = 4.774332046508789e-5 GiB
Reading 'out/F21EllCache'...   0.001269 seconds (267 allocations: 84.656 KiB)
ellmax: 1202
lmaxcache: 1202
fell[:,1,1] = Complex{Float64}[7.519068145690986e-120 - 1.8416405474382574e-135im, 7.541664537386155e-120 - 1.847175067190611e-135im]
ell 1202, elapsed: 2.47955322265625e-5
ell 1201, elapsed: 0.0016779899597167969
ell 1200, elapsed: 0.0006680488586425781
ell 1199, elapsed: 0.0006299018859863281
ell 1198, elapsed: 0.0006439685821533203
ell 1002, elapsed: 0.012068986892700195
ell 1001, elapsed: 0.0005478858947753906
ell 1000, elapsed: 0.0005829334259033203
ell 999, elapsed: 0.0007870197296142578
ell 998, elapsed: 0.0006728172302246094
ell 902, elapsed: 0.005513906478881836
ell 901, elapsed: 0.0007669925689697266
ell 900, elapsed: 0.0004100799560546875
ell 899, elapsed: 0.00039196014404296875
ell 898, elapsed: 0.00035381317138671875
ell 802, elapsed: 0.005418062210083008
ell 801, elapsed: 0.0005910396575927734
ell 800, elapsed: 0.0006730556488037109
ell 799, elapsed: 0.0005860328674316406
ell 798, elapsed: 0.0005731582641601562
ell 702, elapsed: 0.0062940120697021484
ell 701, elapsed: 0.0006000995635986328
ell 700, elapsed: 0.000576019287109375
ell 699, elapsed: 0.000576019287109375
ell 698, elapsed: 0.0005788803100585938
ell 602, elapsed: 0.006371974945068359
ell 601, elapsed: 0.0005879402160644531
ell 600, elapsed: 0.0005750656127929688
ell 599, elapsed: 0.0005719661712646484
ell 598, elapsed: 0.0005748271942138672
ell 502, elapsed: 0.006186008453369141
ell 501, elapsed: 0.0005750656127929688
ell 500, elapsed: 0.0005619525909423828
ell 499, elapsed: 0.0005629062652587891
ell 498, elapsed: 0.0006890296936035156
ell 402, elapsed: 0.006147146224975586
ell 401, elapsed: 0.0005230903625488281
ell 400, elapsed: 0.0005638599395751953
ell 399, elapsed: 0.0006608963012695312
ell 398, elapsed: 0.0005669593811035156
ell 302, elapsed: 0.005875825881958008
ell 301, elapsed: 0.0005209445953369141
ell 300, elapsed: 0.000659942626953125
ell 299, elapsed: 0.0005331039428710938
ell 298, elapsed: 0.0005650520324707031
ell 202, elapsed: 0.0061490535736083984
ell 201, elapsed: 0.0006108283996582031
ell 200, elapsed: 0.0005660057067871094
ell 199, elapsed: 0.0005650520324707031
ell 198, elapsed: 0.0005650520324707031
ell 152, elapsed: 0.003159046173095703
ell 151, elapsed: 0.0005729198455810547
ell 150, elapsed: 0.0005640983581542969
ell 149, elapsed: 0.0005598068237304688
ell 148, elapsed: 0.000408172607421875
ell 127, elapsed: 0.002117156982421875
ell 126, elapsed: 0.0005180835723876953
ell 125, elapsed: 0.0005650520324707031
ell 124, elapsed: 0.0005650520324707031
ell 123, elapsed: 0.0005609989166259766
ell 114, elapsed: 0.0011870861053466797
ell 113, elapsed: 0.0005581378936767578
ell 112, elapsed: 0.00043487548828125
ell 111, elapsed: 0.0005140304565429688
ell 110, elapsed: 0.0005688667297363281
ell 102, elapsed: 0.0014488697052001953
ell 101, elapsed: 0.0004050731658935547
ell 100, elapsed: 0.0005688667297363281
ell 99, elapsed: 0.0005669593811035156
ell 98, elapsed: 0.0004620552062988281
ell 97, elapsed: 0.0006289482116699219
ell 96, elapsed: 0.0008399486541748047
ell 95, elapsed: 0.0005879402160644531
ell 94, elapsed: 0.0006890296936035156
ell 93, elapsed: 0.0006270408630371094
ell 92, elapsed: 0.0007319450378417969
ell 91, elapsed: 0.0008389949798583984
ell 90, elapsed: 0.0008018016815185547
ell 89, elapsed: 0.0006649494171142578
ell 88, elapsed: 0.0005710124969482422
ell 87, elapsed: 0.00038909912109375
ell 86, elapsed: 0.00047516822814941406
ell 85, elapsed: 0.00038909912109375
ell 84, elapsed: 0.0005779266357421875
ell 83, elapsed: 0.00039196014404296875
ell 82, elapsed: 0.0004642009735107422
ell 81, elapsed: 0.0003910064697265625
ell 80, elapsed: 0.0004668235778808594
ell 79, elapsed: 0.0003840923309326172
ell 78, elapsed: 0.00046896934509277344
ell 77, elapsed: 0.0003910064697265625
ell 76, elapsed: 0.0004839897155761719
ell 75, elapsed: 0.00039005279541015625
ell 74, elapsed: 0.00046706199645996094
ell 73, elapsed: 0.0003879070281982422
ell 72, elapsed: 0.00045800209045410156
ell 71, elapsed: 0.00039196014404296875
ell 70, elapsed: 0.0004649162292480469
ell 69, elapsed: 0.0003910064697265625
ell 68, elapsed: 0.0004658699035644531
ell 67, elapsed: 0.0003998279571533203
ell 66, elapsed: 0.0004699230194091797
ell 65, elapsed: 0.00039196014404296875
ell 64, elapsed: 0.00046706199645996094
ell 63, elapsed: 0.0003941059112548828
ell 62, elapsed: 0.00046896934509277344
ell 61, elapsed: 0.00039196014404296875
ell 60, elapsed: 0.00047588348388671875
ell 59, elapsed: 0.0003991127014160156
ell 58, elapsed: 0.0004940032958984375
ell 57, elapsed: 0.00039696693420410156
ell 56, elapsed: 0.0004811286926269531
ell 55, elapsed: 0.00039696693420410156
ell 54, elapsed: 0.0004780292510986328
ell 53, elapsed: 0.0004038810729980469
ell 52, elapsed: 0.00047779083251953125
ell 51, elapsed: 0.0003979206085205078
ell 50, elapsed: 0.00048804283142089844
ell 49, elapsed: 0.0003991127014160156
ell 48, elapsed: 0.0004801750183105469
ell 47, elapsed: 0.00039696693420410156
ell 46, elapsed: 0.000476837158203125
ell 45, elapsed: 0.00039887428283691406
ell 44, elapsed: 0.0004730224609375
ell 43, elapsed: 0.00039696693420410156
ell 42, elapsed: 0.0004820823669433594
ell 41, elapsed: 0.00041103363037109375
ell 40, elapsed: 0.00047516822814941406
ell 39, elapsed: 0.00039696693420410156
ell 38, elapsed: 0.00047707557678222656
ell 37, elapsed: 0.0004000663757324219
ell 36, elapsed: 0.0004730224609375
ell 35, elapsed: 0.00040602684020996094
ell 34, elapsed: 0.0004761219024658203
ell 33, elapsed: 0.0003991127014160156
ell 32, elapsed: 0.0005030632019042969
ell 31, elapsed: 0.0004000663757324219
ell 30, elapsed: 0.00047397613525390625
ell 29, elapsed: 0.0003991127014160156
ell 28, elapsed: 0.0004749298095703125
ell 27, elapsed: 0.0004000663757324219
ell 26, elapsed: 0.00047898292541503906
ell 25, elapsed: 0.00038504600524902344
ell 24, elapsed: 0.0004849433898925781
ell 23, elapsed: 0.0003829002380371094
ell 22, elapsed: 0.0004611015319824219
ell 21, elapsed: 0.0003840923309326172
ell 20, elapsed: 0.0004558563232421875
ell 19, elapsed: 0.0003898143768310547
ell 18, elapsed: 0.0004601478576660156
ell 17, elapsed: 0.00038313865661621094
ell 16, elapsed: 0.0004611015319824219
[...]
ell 788, elapsed: 0.0008161067962646484
ell 782, elapsed: 0.0014111995697021484
ell 781, elapsed: 0.0006809234619140625
ell 780, elapsed: 0.0007109642028808594
ell 779, elapsed: 0.0007698535919189453
ell 778, elapsed: 0.0007390975952148438
ell 772, elapsed: 0.001547098159790039
ell 771, elapsed: 0.0008330345153808594
ell 770, elapsed: 0.0009410381317138672
ell 769, elapsed: 0.0007770061492919922
ell 768, elapsed: 0.0008299350738525391
ell 762, elapsed: 0.0018129348754882812
ell 761, elapsed: 0.0006501674652099609
ell 760, elapsed: 0.0007388591766357422
ell 759, elapsed: 0.0007429122924804688
ell 758, elapsed: 0.0007650852203369141
ell 752, elapsed: 0.0014319419860839844
ell 751, elapsed: 0.0008089542388916016
ell 750, elapsed: 0.0008029937744140625
ell 749, elapsed: 0.000827789306640625
ell 748, elapsed: 0.0007770061492919922
ell 742, elapsed: 0.0014259815216064453
ell 741, elapsed: 0.000759124755859375
ell 740, elapsed: 0.0007770061492919922
ell 739, elapsed: 0.0007569789886474609
ell 738, elapsed: 0.0007779598236083984
ell 732, elapsed: 0.001493215560913086
ell 731, elapsed: 0.0007748603820800781
ell 730, elapsed: 0.0007710456848144531
ell 729, elapsed: 0.0007750988006591797
ell 728, elapsed: 0.0007579326629638672
ell 722, elapsed: 0.0014660358428955078
ell 721, elapsed: 0.0008950233459472656
ell 720, elapsed: 0.0007839202880859375
ell 719, elapsed: 0.0007698535919189453
ell 718, elapsed: 0.0007898807525634766
ell 712, elapsed: 0.0015940666198730469
ell 711, elapsed: 0.0008039474487304688
ell 710, elapsed: 0.0008158683776855469
ell 709, elapsed: 0.0008299350738525391
ell 708, elapsed: 0.0008029937744140625
ell 702, elapsed: 0.0015239715576171875
ell 701, elapsed: 0.0007851123809814453
ell 700, elapsed: 0.0007500648498535156
ell 699, elapsed: 0.0007619857788085938
ell 698, elapsed: 0.0009589195251464844
ell 692, elapsed: 0.0014879703521728516
ell 691, elapsed: 0.0007638931274414062
ell 690, elapsed: 0.0007750988006591797
ell 689, elapsed: 0.0008170604705810547
ell 688, elapsed: 0.0011210441589355469
ell 682, elapsed: 0.0016019344329833984
ell 681, elapsed: 0.0012500286102294922
ell 680, elapsed: 0.0010440349578857422
ell 679, elapsed: 0.0008208751678466797
ell 678, elapsed: 0.0008320808410644531
ell 672, elapsed: 0.0014300346374511719
ell 671, elapsed: 0.0006330013275146484
ell 670, elapsed: 0.0006330013275146484
ell 669, elapsed: 0.0006251335144042969
ell 668, elapsed: 0.0006837844848632812
ell 662, elapsed: 0.0012178421020507812
ell 661, elapsed: 0.0006351470947265625
ell 660, elapsed: 0.0006308555603027344
ell 659, elapsed: 0.0006239414215087891
ell 658, elapsed: 0.000637054443359375
ell 652, elapsed: 0.0012030601501464844
ell 651, elapsed: 0.0006341934204101562
ell 650, elapsed: 0.0006341934204101562
ell 649, elapsed: 0.0006289482116699219
ell 648, elapsed: 0.0006320476531982422
ell 642, elapsed: 0.0015010833740234375
ell 641, elapsed: 0.0008289813995361328
ell 640, elapsed: 0.0008139610290527344
ell 639, elapsed: 0.0008268356323242188
ell 638, elapsed: 0.0008120536804199219
ell 632, elapsed: 0.001773834228515625
ell 631, elapsed: 0.0007398128509521484
ell 630, elapsed: 0.0008070468902587891
ell 629, elapsed: 0.0008220672607421875
ell 628, elapsed: 0.0009889602661132812
ell 622, elapsed: 0.0020389556884765625
ell 621, elapsed: 0.0009391307830810547
ell 620, elapsed: 0.0009629726409912109
ell 619, elapsed: 0.0009789466857910156
ell 618, elapsed: 0.0009739398956298828
ell 612, elapsed: 0.0018448829650878906
ell 611, elapsed: 0.0008301734924316406
ell 610, elapsed: 0.0007889270782470703
ell 609, elapsed: 0.0008261203765869141
ell 608, elapsed: 0.0008480548858642578
ell 602, elapsed: 0.0018301010131835938
ell 601, elapsed: 0.0008451938629150391
ell 600, elapsed: 0.0008819103240966797
ell 599, elapsed: 0.0008561611175537109
ell 598, elapsed: 0.0008518695831298828
ell 592, elapsed: 0.0018010139465332031
ell 591, elapsed: 0.0009810924530029297
ell 590, elapsed: 0.0007958412170410156
ell 589, elapsed: 0.0008080005645751953
ell 588, elapsed: 0.0008318424224853516
ell 582, elapsed: 0.001981019973754883
ell 581, elapsed: 0.0007810592651367188
ell 580, elapsed: 0.0008578300476074219
ell 579, elapsed: 0.0012960433959960938
ell 578, elapsed: 0.00096893310546875
ell 572, elapsed: 0.0015342235565185547
ell 571, elapsed: 0.0008740425109863281
ell 570, elapsed: 0.0009829998016357422
ell 569, elapsed: 0.0008759498596191406
ell 568, elapsed: 0.0008180141448974609
ell 562, elapsed: 0.0017840862274169922
ell 561, elapsed: 0.000823974609375
ell 560, elapsed: 0.0009210109710693359
ell 559, elapsed: 0.0011780261993408203
ell 558, elapsed: 0.0008440017700195312
ell 552, elapsed: 0.002696990966796875
ell 551, elapsed: 0.0009179115295410156
ell 550, elapsed: 0.00080108642578125
ell 549, elapsed: 0.0008168220520019531
ell 548, elapsed: 0.0008401870727539062
ell 542, elapsed: 0.0019440650939941406
ell 541, elapsed: 0.009842157363891602
ell 540, elapsed: 0.0010080337524414062
ell 539, elapsed: 0.0009751319885253906
ell 538, elapsed: 0.000990152359008789
ell 532, elapsed: 0.0019550323486328125
ell 531, elapsed: 0.001110076904296875
ell 530, elapsed: 0.0009949207305908203
ell 529, elapsed: 0.0010089874267578125
ell 528, elapsed: 0.000993967056274414
ell 522, elapsed: 0.0018930435180664062
ell 521, elapsed: 0.0009951591491699219
ell 520, elapsed: 0.0012459754943847656
ell 519, elapsed: 0.0010001659393310547
ell 518, elapsed: 0.0009200572967529297
ell 512, elapsed: 0.005294084548950195
ell 511, elapsed: 0.001024007797241211
ell 510, elapsed: 0.0009980201721191406
ell 509, elapsed: 0.000993967056274414
ell 508, elapsed: 0.0011310577392578125
ell 502, elapsed: 0.0018880367279052734
ell 501, elapsed: 0.0009920597076416016
ell 500, elapsed: 0.0011491775512695312
ell 499, elapsed: 0.0009229183197021484
ell 498, elapsed: 0.0009849071502685547
ell 492, elapsed: 0.0019009113311767578
ell 491, elapsed: 0.0009989738464355469
ell 490, elapsed: 0.0009980201721191406
ell 489, elapsed: 0.0009870529174804688
ell 488, elapsed: 0.0010709762573242188
ell 482, elapsed: 0.0018792152404785156
ell 481, elapsed: 0.0009870529174804688
ell 480, elapsed: 0.005059957504272461
ell 479, elapsed: 0.0010001659393310547
ell 478, elapsed: 0.000988006591796875
ell 472, elapsed: 0.0020189285278320312
ell 471, elapsed: 0.0010030269622802734
ell 470, elapsed: 0.000985860824584961
ell 469, elapsed: 0.000985860824584961
ell 468, elapsed: 0.001130819320678711
ell 462, elapsed: 0.0018801689147949219
ell 461, elapsed: 0.0011379718780517578
ell 460, elapsed: 0.0009958744049072266
ell 459, elapsed: 0.0009951591491699219
ell 458, elapsed: 0.0009930133819580078
ell 452, elapsed: 0.00174713134765625
ell 451, elapsed: 0.0008020401000976562
ell 450, elapsed: 0.0008301734924316406
ell 449, elapsed: 0.0007841587066650391
ell 448, elapsed: 0.0008780956268310547
ell 442, elapsed: 0.0015621185302734375
ell 441, elapsed: 0.0008161067962646484
ell 440, elapsed: 0.0008378028869628906
ell 439, elapsed: 0.0009591579437255859
ell 438, elapsed: 0.0008451938629150391
ell 432, elapsed: 0.001322031021118164
ell 431, elapsed: 0.0007040500640869141
ell 430, elapsed: 0.0009250640869140625
ell 429, elapsed: 0.0008270740509033203
ell 428, elapsed: 0.0008330345153808594
ell 422, elapsed: 0.0018620491027832031
ell 421, elapsed: 0.0008471012115478516
ell 420, elapsed: 0.0008380413055419922
ell 419, elapsed: 0.0008130073547363281
ell 418, elapsed: 0.0008459091186523438
ell 412, elapsed: 0.0018928050994873047
ell 411, elapsed: 0.0008070468902587891
ell 410, elapsed: 0.000843048095703125
ell 409, elapsed: 0.0008499622344970703
ell 408, elapsed: 0.0008389949798583984
ell 402, elapsed: 0.001889944076538086
ell 401, elapsed: 0.000823974609375
ell 400, elapsed: 0.0008602142333984375
ell 399, elapsed: 0.0008559226989746094
ell 398, elapsed: 0.0008330345153808594
ell 392, elapsed: 0.001970052719116211
ell 391, elapsed: 0.0007989406585693359
ell 390, elapsed: 0.0008449554443359375
ell 389, elapsed: 0.0010960102081298828
ell 388, elapsed: 0.0008158683776855469
ell 382, elapsed: 0.001753091812133789
ell 381, elapsed: 0.0007920265197753906
ell 380, elapsed: 0.0007779598236083984
ell 379, elapsed: 0.0008449554443359375
ell 378, elapsed: 0.0008471012115478516
ell 372, elapsed: 0.0019698143005371094
ell 371, elapsed: 0.0008840560913085938
ell 370, elapsed: 0.0008499622344970703
ell 369, elapsed: 0.0008270740509033203
ell 368, elapsed: 0.0008330345153808594
ell 362, elapsed: 0.0019330978393554688
ell 361, elapsed: 0.0007860660552978516
ell 360, elapsed: 0.0008499622344970703
ell 359, elapsed: 0.0008220672607421875
ell 358, elapsed: 0.0009529590606689453
ell 352, elapsed: 0.0019350051879882812
ell 351, elapsed: 0.000782012939453125
ell 350, elapsed: 0.0009388923645019531
ell 349, elapsed: 0.0008249282836914062
ell 348, elapsed: 0.0010759830474853516
ell 342, elapsed: 0.0019881725311279297
ell 341, elapsed: 0.0008370876312255859
ell 340, elapsed: 0.0008258819580078125
ell 339, elapsed: 0.0008518695831298828
ell 338, elapsed: 0.0008640289306640625
ell 332, elapsed: 0.0019021034240722656
ell 331, elapsed: 0.0008029937744140625
ell 330, elapsed: 0.0008230209350585938
ell 329, elapsed: 0.00084686279296875
ell 328, elapsed: 0.0008540153503417969
ell 322, elapsed: 0.0018451213836669922
ell 321, elapsed: 0.00084686279296875
ell 320, elapsed: 0.0008299350738525391
ell 319, elapsed: 0.0008261203765869141
ell 318, elapsed: 0.0008180141448974609
ell 312, elapsed: 0.0016369819641113281
ell 311, elapsed: 0.0008211135864257812
ell 310, elapsed: 0.0008270740509033203
ell 309, elapsed: 0.0008208751678466797
ell 308, elapsed: 0.0008170604705810547
ell 302, elapsed: 0.002454996109008789
ell 301, elapsed: 0.0008411407470703125
ell 300, elapsed: 0.0008330345153808594
ell 299, elapsed: 0.0008590221405029297
ell 298, elapsed: 0.0008170604705810547
ell 292, elapsed: 0.0016140937805175781
ell 291, elapsed: 0.0008549690246582031
ell 290, elapsed: 0.0008211135864257812
ell 289, elapsed: 0.0008139610290527344
ell 288, elapsed: 0.0008180141448974609
ell 282, elapsed: 0.0016150474548339844
ell 281, elapsed: 0.0008261203765869141
ell 280, elapsed: 0.0008249282836914062
ell 279, elapsed: 0.000823974609375
ell 278, elapsed: 0.0008249282836914062
ell 272, elapsed: 0.0015718936920166016
ell 271, elapsed: 0.0008211135864257812
ell 270, elapsed: 0.0008330345153808594
ell 269, elapsed: 0.0008399486541748047
ell 268, elapsed: 0.0008280277252197266
ell 262, elapsed: 0.0015540122985839844
ell 261, elapsed: 0.0008218288421630859
ell 260, elapsed: 0.0008349418640136719
ell 259, elapsed: 0.0008111000061035156
ell 258, elapsed: 0.0008280277252197266
ell 252, elapsed: 0.0015959739685058594
ell 251, elapsed: 0.0008490085601806641
ell 250, elapsed: 0.0008177757263183594
ell 249, elapsed: 0.0008311271667480469
ell 248, elapsed: 0.0008261203765869141
ell 242, elapsed: 0.0015931129455566406
ell 241, elapsed: 0.0008108615875244141
ell 240, elapsed: 0.0008168220520019531
ell 239, elapsed: 0.0008320808410644531
ell 238, elapsed: 0.0008339881896972656
ell 232, elapsed: 0.0015978813171386719
ell 231, elapsed: 0.0008242130279541016
ell 230, elapsed: 0.0008399486541748047
ell 229, elapsed: 0.0008509159088134766
ell 228, elapsed: 0.0010640621185302734
ell 222, elapsed: 0.0017819404602050781
ell 221, elapsed: 0.0008440017700195312
ell 220, elapsed: 0.0008308887481689453
ell 219, elapsed: 0.0008349418640136719
ell 218, elapsed: 0.0008192062377929688
ell 212, elapsed: 0.0018329620361328125
ell 211, elapsed: 0.0007791519165039062
ell 210, elapsed: 0.000823974609375
ell 209, elapsed: 0.000926971435546875
ell 208, elapsed: 0.0008480548858642578
ell 202, elapsed: 0.0017790794372558594
ell 201, elapsed: 0.0009620189666748047
ell 200, elapsed: 0.0008349418640136719
ell 199, elapsed: 0.0008411407470703125
ell 198, elapsed: 0.0008502006530761719
ell 192, elapsed: 0.0020949840545654297
ell 191, elapsed: 0.0008959770202636719
ell 190, elapsed: 0.001130819320678711
ell 189, elapsed: 0.0008618831634521484
ell 188, elapsed: 0.0008490085601806641
ell 182, elapsed: 0.0019140243530273438
ell 181, elapsed: 0.000885009765625
ell 180, elapsed: 0.0008599758148193359
ell 179, elapsed: 0.0009639263153076172
ell 178, elapsed: 0.0008561611175537109
ell 172, elapsed: 0.001859903335571289
ell 171, elapsed: 0.0009701251983642578
ell 170, elapsed: 0.0008590221405029297
ell 169, elapsed: 0.0008580684661865234
ell 168, elapsed: 0.0008611679077148438
ell 162, elapsed: 0.0017559528350830078
ell 161, elapsed: 0.0008580684661865234
ell 160, elapsed: 0.0008609294891357422
ell 159, elapsed: 0.0008728504180908203
ell 158, elapsed: 0.0012030601501464844
ell 152, elapsed: 0.001934051513671875
ell 151, elapsed: 0.0008568763732910156
ell 150, elapsed: 0.0009739398956298828
ell 149, elapsed: 0.0010991096496582031
ell 148, elapsed: 0.0008568763732910156
ell 142, elapsed: 0.0019998550415039062
ell 141, elapsed: 0.0008630752563476562
ell 140, elapsed: 0.0008361339569091797
ell 139, elapsed: 0.0008440017700195312
ell 138, elapsed: 0.0009028911590576172
ell 132, elapsed: 0.002168893814086914
ell 131, elapsed: 0.0007090568542480469
ell 130, elapsed: 0.0006308555603027344
ell 129, elapsed: 0.0008389949798583984
ell 128, elapsed: 0.0008280277252197266
ell 122, elapsed: 0.001744985580444336
ell 121, elapsed: 0.0007519721984863281
ell 120, elapsed: 0.0008199214935302734
ell 119, elapsed: 0.0008099079132080078
ell 118, elapsed: 0.000820159912109375
ell 112, elapsed: 0.0018160343170166016
ell 111, elapsed: 0.0008130073547363281
ell 110, elapsed: 0.0008270740509033203
ell 109, elapsed: 0.0008120536804199219
ell 108, elapsed: 0.0008270740509033203
ell 102, elapsed: 0.0018601417541503906
ell 101, elapsed: 0.004194974899291992
ell 100, elapsed: 0.003942966461181641
ell 99, elapsed: 0.005563974380493164
ell 98, elapsed: 0.0035181045532226562
ell 92, elapsed: 0.006685972213745117
ell 91, elapsed: 0.004082918167114258
ell 90, elapsed: 0.004400968551635742
ell 89, elapsed: 0.0042798519134521484
ell 88, elapsed: 0.004552125930786133
ell 82, elapsed: 0.00761103630065918
ell 81, elapsed: 0.0044591426849365234
ell 80, elapsed: 0.004569053649902344
ell 79, elapsed: 0.0036101341247558594
ell 78, elapsed: 0.0044438838958740234
ell 72, elapsed: 0.005694866180419922
ell 71, elapsed: 0.003284931182861328
ell 70, elapsed: 0.0033690929412841797
ell 69, elapsed: 0.0034530162811279297
ell 68, elapsed: 0.0031309127807617188
ell 62, elapsed: 0.005875110626220703
ell 61, elapsed: 0.003192901611328125
ell 60, elapsed: 0.0032448768615722656
ell 59, elapsed: 0.0038259029388427734
ell 58, elapsed: 0.003069162368774414
ell 52, elapsed: 0.006103038787841797
ell 51, elapsed: 0.0038361549377441406
ell 50, elapsed: 0.004582881927490234
ell 49, elapsed: 0.004150867462158203
ell 48, elapsed: 0.0038950443267822266
ell 42, elapsed: 0.0063059329986572266
ell 41, elapsed: 0.004361867904663086
ell 40, elapsed: 0.0042459964752197266
ell 39, elapsed: 0.003461122512817383
ell 38, elapsed: 0.0038809776306152344
ell 32, elapsed: 0.006451129913330078
ell 31, elapsed: 0.0032269954681396484
ell 30, elapsed: 0.003222942352294922
ell 29, elapsed: 0.003225088119506836
ell 28, elapsed: 0.0038139820098876953
ell 22, elapsed: 0.0068988800048828125
ell 21, elapsed: 0.0033690929412841797
ell 20, elapsed: 0.0042858123779296875
ell 19, elapsed: 0.0039000511169433594
ell 18, elapsed: 0.0040149688720703125
ell 12, elapsed: 0.006324052810668945
ell 11, elapsed: 0.004497051239013672
ell 10, elapsed: 0.003938913345336914
ell 9, elapsed: 0.0035028457641601562
ell 8, elapsed: 0.004225969314575195
  0.824603 seconds (66.75 k allocations: 12.139 MiB)
elapsed: 0.0052340030670166016
step:          0.076068 sec (0 allocations: 0 byte, 0.0% gc time)
swapping:      0.000771 sec (0 allocations: 0 byte, 0.0% gc time)
calc_Mellell!: 0.035804 sec (0 allocations: 0 byte, 0.0% gc time)
  t0 :  0.010361 sec (0 allocations: 0 byte, 0.0% gc time)
  tm2 : 0.079404 sec (0 allocations: 0 byte, 0.0% gc time)
  tm2s: 0.008982 sec (0 allocations: 0 byte, 0.0% gc time)
  tm4 : 0.193863 sec (0 allocations: 0 byte, 0.0% gc time)
  tp2 : 0.0 sec (0 allocations: 0 byte, 0.0% gc time)
  tp2s: 0.0 sec (0 allocations: 0 byte, 0.0% gc time)
  tp4 : 0.0 sec (0 allocations: 0 byte, 0.0% gc time)
calc_wtdll!:   0.571274 sec (49.2 k allocations: 11.133 MB, 0.0% gc time)
calc_wljj!:    0.041695 sec (69 allocations: 1.078 KB, 0.0% gc time)
mult_prefac!:  0.0 sec (0 allocations: 0 byte, 0.0% gc time)
convert:       0.0 sec (0 allocations: 0 byte, 0.0% gc time)
write:         0.040651 sec (0 allocations: 0 byte, 0.0% gc time)
test_rand_2f1: 0.0 sec (0 allocations: 0 byte, 0.0% gc time)
Closing outfile out/MlCache/MlCache.bin...   0.000010 seconds
xi, l=0, nu=0:   0.408867 seconds (551.85 k allocations: 26.842 MiB, 3.78% gc time)
xi, l=0, nu=-2:  0.002516 seconds (144 allocations: 149.562 KiB)
Created 'out/xi.tsv'.
  q=1.1, R=0.6:	  0.700832 seconds (291.08 k allocations: 38.895 MiB, 1.64% gc time)
  q=1.1, R=0.7:	  0.851293 seconds (304.75 k allocations: 40.996 MiB, 1.05% gc time)
  q=1.1, R=0.8:	  0.847415 seconds (299.14 k allocations: 40.132 MiB, 0.84% gc time)
  q=1.1, R=0.9:	  1.028436 seconds (293.57 k allocations: 39.286 MiB, 3.31% gc time)
  q=1.1, R=0.998:	 21.542412 seconds (10.67 M allocations: 823.453 MiB, 0.74% gc time)
  q=1.1, R=1.0:	  0.004618 seconds (10.24 k allocations: 768.375 KiB)

ℓ = 1000
Δℓ = 4
ΔℓRg1 = -4
N = 4096
q = 1.1
kmin = 1.0e-5
kmax = 1000.0
χ0 = 0.001
RR = RR.tsv
ℓmax = ℓmax.bin
f21 = f21.bin
kmin = 1.0e-5
kmax = 1000.0
dlrec    = 4
dlrecRg1 = -4
Output size: 1573632 bytes = 0.0014655590057373047 GiB
Output size: 786816 bytes = 0.0007327795028686523 GiB
Reading 'out/F21EllCache'...   0.001635 seconds (268 allocations: 533.531 KiB)
ellmax: 1002
lmaxcache: 1000
fell[:,1,1] = Complex{Float64}[1.7262928128202118e-224 - 4.2281979352226944e-240im, 1.7282693092099662e-224 - 4.233038955177176e-240im]
ell 1002, elapsed: 2.7894973754882812e-5
ell 1001, elapsed: 0.001394033432006836
ell 1000, elapsed: 0.0010881423950195312
ell 999, elapsed: 0.007611989974975586
ell 998, elapsed: 0.0071849822998046875
ell 44, elapsed: 0.6440720558166504
ell 43, elapsed: 0.006000041961669922
ell 42, elapsed: 0.007074117660522461
ell 41, elapsed: 0.007962942123413086
ell 40, elapsed: 0.008002042770385742
  0.701547 seconds (4.55 k allocations: 320.031 KiB)
elapsed: 0.009272098541259766
step:          0.639802 sec (0 allocations: 0 byte, 0.0% gc time)
swapping:      0.000651 sec (0 allocations: 0 byte, 0.0% gc time)
calc_Mellell!: 0.001653 sec (0 allocations: 0 byte, 0.0% gc time)
  t0 :  0.000938 sec (0 allocations: 0 byte, 0.0% gc time)
  tm2 : 0.012825 sec (0 allocations: 0 byte, 0.0% gc time)
  tm2s: 0.000824 sec (0 allocations: 0 byte, 0.0% gc time)
  tm4 : 0.035526 sec (0 allocations: 0 byte, 0.0% gc time)
  tp2 : 0.0 sec (0 allocations: 0 byte, 0.0% gc time)
  tp2s: 0.0 sec (0 allocations: 0 byte, 0.0% gc time)
  tp4 : 0.0 sec (0 allocations: 0 byte, 0.0% gc time)
calc_wtdll!:   0.050399 sec (480 allocations: 52.5 KB, 0.0% gc time)
calc_wljj!:    0.001674 sec (1 allocations: 16 byte, 0.0% gc time)
mult_prefac!:  0.0 sec (0 allocations: 0 byte, 0.0% gc time)
convert:       0.0 sec (0 allocations: 0 byte, 0.0% gc time)
write:         0.001129 sec (0 allocations: 0 byte, 0.0% gc time)
test_rand_2f1: 0.0 sec (0 allocations: 0 byte, 0.0% gc time)
Closing outfile out/MlCache/MlCache.bin...   0.001500 seconds
  0.511552 seconds (54 allocations: 67.203 KiB)
make_phi():   0.009839 seconds (80 allocations: 276.297 KiB)
  0.003754 seconds (108 allocations: 5.812 KiB)
tskip:       1.0e-6 sec (0 allocations: 0 byte, 0.0% gc time)
tread:       0.000643 sec (19 allocations: 1.312 KB, 0.0% gc time)
tmultphi:    0.000352 sec (0 allocations: 0 byte, 0.0% gc time)
tbrfft:      0.001309 sec (96 allocations: 4.5 KB, 0.0% gc time)
tmultprefac: 0.001304 sec (0 allocations: 0 byte, 0.0% gc time)
toutfunc:    0.00025 sec (0 allocations: 0 byte, 0.0% gc time)
Created 'out/wl42_jj00.tsv'.
Created 'out/wl42_jj02.tsv'.
   Testing TwoFAST tests passed 
