Julia Version 1.5.0-DEV.11
Commit 18783434e9 (2020-01-04 00:48 UTC)
Platform Info:
  OS: Linux (x86_64-pc-linux-gnu)
  CPU: Intel(R) Xeon(R) Silver 4114 CPU @ 2.20GHz
  WORD_SIZE: 64
  LIBM: libopenlibm
  LLVM: libLLVM-8.0.1 (ORCJIT, skylake)
Environment:
  JULIA_DEPOT_PATH = ::/usr/local/share/julia

 Resolving package versions...
 Installed URIParser ──────── v0.4.0
 Installed AbstractFFTs ───── v0.5.0
 Installed FFTW ───────────── v1.2.0
 Installed SpecialFunctions ─ v0.8.0
 Installed BinaryProvider ─── v0.5.8
 Installed AbstractAlgebra ── v0.7.1
 Installed Nemo ───────────── v0.15.1
 Installed BinDeps ────────── v1.0.0
 Installed Reexport ───────── v0.2.0
 Installed MKL_jll ────────── v2019.0.117+0
 Installed FFTW_jll ───────── v3.3.9+3
 Installed IntelOpenMP_jll ── v2018.0.3+0
 Installed IncGammaBeta ───── v0.1.0
 Installed TwoFAST ────────── v0.1.0
  Updating `~/.julia/environments/v1.5/Project.toml`
  [0dd23c3e] + TwoFAST v0.1.0
  Updating `~/.julia/environments/v1.5/Manifest.toml`
  [c3fe647b] + AbstractAlgebra v0.7.1
  [621f4979] + AbstractFFTs v0.5.0
  [9e28174c] + BinDeps v1.0.0
  [b99e7846] + BinaryProvider v0.5.8
  [7a1cc6ca] + FFTW v1.2.0
  [f5851436] + FFTW_jll v3.3.9+3
  [5087d2c0] + IncGammaBeta v0.1.0
  [1d5cc7b8] + IntelOpenMP_jll v2018.0.3+0
  [856f044c] + MKL_jll v2019.0.117+0
  [2edaba10] + Nemo v0.15.1
  [189a3867] + Reexport v0.2.0
  [276daf66] + SpecialFunctions v0.8.0
  [0dd23c3e] + TwoFAST v0.1.0
  [30578b45] + URIParser v0.4.0
  [2a0f44e3] + Base64 
  [ade2ca70] + Dates 
  [8bb1440f] + DelimitedFiles 
  [8ba89e20] + Distributed 
  [b77e0a4c] + InteractiveUtils 
  [76f85450] + LibGit2 
  [8f399da3] + Libdl 
  [37e2e46d] + LinearAlgebra 
  [56ddb016] + Logging 
  [d6f4376e] + Markdown 
  [a63ad114] + Mmap 
  [44cfe95a] + Pkg 
  [de0858da] + Printf 
  [3fa0cd96] + REPL 
  [9a3f8284] + Random 
  [ea8e919c] + SHA 
  [9e88b42a] + Serialization 
  [6462fe0b] + Sockets 
  [2f01184e] + SparseArrays 
  [8dfed614] + Test 
  [cf7118a7] + UUIDs 
  [4ec0a83e] + Unicode 
  Building FFTW ────────────→ `~/.julia/packages/FFTW/qqcBj/deps/build.log`
  Updating `/tmp/jl_Y3UpCE/Project.toml`
 [no changes]
  Updating `/tmp/jl_Y3UpCE/Manifest.toml`
 [no changes]
  Building SpecialFunctions → `~/.julia/packages/SpecialFunctions/ne2iw/deps/build.log`
  Updating `/tmp/jl_Yr9kUW/Project.toml`
 [no changes]
  Updating `/tmp/jl_Yr9kUW/Manifest.toml`
 [no changes]
  Building Nemo ────────────→ `~/.julia/packages/Nemo/qzx0m/deps/build.log`
  Updating `/tmp/jl_edCP8L/Project.toml`
 [no changes]
  Updating `/tmp/jl_edCP8L/Manifest.toml`
 [no changes]
   Testing TwoFAST
 Installed Dierckx ─ v0.4.1
  Updating `/tmp/jl_UvENGi/Project.toml`
  [39dd38d3] + Dierckx v0.4.1
  Updating `/tmp/jl_UvENGi/Manifest.toml`
  [39dd38d3] + Dierckx v0.4.1
  Building Dierckx → `~/.julia/packages/Dierckx/9SY4A/deps/build.log`
  Updating `/tmp/jl_GZswSn/Project.toml`
 [no changes]
  Updating `/tmp/jl_GZswSn/Manifest.toml`
 [no changes]
Running sandbox
Status `/tmp/jl_UvENGi/Project.toml`
  [39dd38d3] Dierckx v0.4.1
  [7a1cc6ca] FFTW v1.2.0
  [5087d2c0] IncGammaBeta v0.1.0
  [2edaba10] Nemo v0.15.1
  [276daf66] SpecialFunctions v0.8.0
  [0dd23c3e] TwoFAST v0.1.0
  [8bb1440f] DelimitedFiles 
  [37e2e46d] LinearAlgebra 
  [56ddb016] Logging 
  [8dfed614] Test 

Welcome to Nemo version 0.15.1

Nemo comes with absolutely no warranty whatsoever


Welcome to Nemo version 0.15.1

Nemo comes with absolutely no warranty whatsoever

Testing ξ(r), ℓ=0, ν=-1 ... passed
Testing ξ(r), ℓ=0, ν=0 ... passed
Testing ξ(r), ℓ=0, ν=1 ... passed
Testing ξ(r), ℓ=0, ν=2 ... passed
Testing ξ(r), ℓ=0, ν=3 ... passed
Testing ξ(r), ℓ=1, ν=0 ... passed
Testing ξ(r), ℓ=1, ν=1 ... passed
Testing ξ(r), ℓ=1, ν=2 ... passed
Testing ξ(r), ℓ=1, ν=3 ... passed
Testing ξ(r), ℓ=2, ν=-1 ... passed
Testing ξ(r), ℓ=2, ν=0 ... passed
Testing ξ(r), ℓ=2, ν=1 ... passed
Testing ξ(r), ℓ=2, ν=2 ... passed
Testing ξ(r), ℓ=2, ν=3 ... passed
Testing ξ(r), ℓ=3, ν=-1 ... passed
Testing ξ(r), ℓ=3, ν=0 ... passed
Testing ξ(r), ℓ=3, ν=1 ... passed
Testing ξ(r), ℓ=3, ν=2 ... passed
Testing ξ(r), ℓ=3, ν=3 ... passed
Testing ξ(r), ℓ=4, ν=-1 ... passed
Testing ξ(r), ℓ=4, ν=0 ... passed
Testing ξ(r), ℓ=4, ν=1 ... passed
Testing ξ(r), ℓ=4, ν=2 ... passed
Testing ξ(r), ℓ=4, ν=3 ... passed
Testing ξ(r) ... passed
Testing ξ′(r) ... passed
Testing ξ″(r) ... passed
Calculating fmax: 
  dlrec    = 4
  dlrecRg1 = -4
  q=1.1, R=1.1:	  4.642637 seconds (1.20 M allocations: 67.954 MiB)

  4.681164 seconds (1.22 M allocations: 69.064 MiB)
ℓ = 1202
Δℓ = 4
ΔℓRg1 = -4
N = 1600
q = 1.1
kmin = 1.0e-5
kmax = 100000.00000000004
χ0 = 0.023029999999999995
RR = RR.tsv
ℓmax = ℓmax.bin
f21 = f21.bin
kmin = 1.0e-5
kmax = 100000.0
dlrec    = 4
dlrecRg1 = -4
Output size: 5741568 bytes = 0.005347251892089844 GiB
Output size: 51264 bytes = 4.774332046508789e-5 GiB
Reading 'out/F21EllCache'...   0.641227 seconds (318.68 k allocations: 16.385 MiB)
ellmax: 1202
lmaxcache: 1202
fell[:,1,1] = Complex{Float64}[3.9583795592771634e-52 - 9.695233714158177e-68im, 3.990121772925759e-52 - 9.772979714843386e-68im]
ell 1202, elapsed: 0.00014400482177734375
ell 1201, elapsed: 2.1716859340667725
ell 1200, elapsed: 0.0007860660552978516
ell 1199, elapsed: 0.0007507801055908203
ell 1198, elapsed: 0.0006859302520751953
ell 1002, elapsed: 0.012260913848876953
ell 1001, elapsed: 0.0007429122924804688
ell 1000, elapsed: 0.0007040500640869141
ell 999, elapsed: 0.0006830692291259766
ell 998, elapsed: 0.000675201416015625
ell 902, elapsed: 0.006440877914428711
ell 901, elapsed: 0.0006949901580810547
ell 900, elapsed: 0.0006861686706542969
ell 899, elapsed: 0.0006690025329589844
ell 898, elapsed: 0.0007710456848144531
ell 802, elapsed: 0.006602048873901367
ell 801, elapsed: 0.0007219314575195312
ell 800, elapsed: 0.0006999969482421875
ell 799, elapsed: 0.0006818771362304688
ell 798, elapsed: 0.0006918907165527344
ell 702, elapsed: 0.006326913833618164
ell 701, elapsed: 0.0006930828094482422
ell 700, elapsed: 0.0007147789001464844
ell 699, elapsed: 0.00067901611328125
ell 698, elapsed: 0.0006749629974365234
ell 602, elapsed: 0.0065839290618896484
ell 601, elapsed: 0.0007450580596923828
ell 600, elapsed: 0.0006830692291259766
ell 599, elapsed: 0.0006690025329589844
ell 598, elapsed: 0.0006680488586425781
ell 502, elapsed: 0.006370067596435547
ell 501, elapsed: 0.0007021427154541016
ell 500, elapsed: 0.0006849765777587891
ell 499, elapsed: 0.0006780624389648438
ell 498, elapsed: 0.0006899833679199219
ell 402, elapsed: 0.006593942642211914
ell 401, elapsed: 0.0007121562957763672
ell 400, elapsed: 0.0006289482116699219
ell 399, elapsed: 0.0006549358367919922
ell 398, elapsed: 0.000576019287109375
ell 302, elapsed: 0.0055370330810546875
ell 301, elapsed: 0.0006220340728759766
ell 300, elapsed: 0.0006561279296875
ell 299, elapsed: 0.0005757808685302734
ell 298, elapsed: 0.0005970001220703125
ell 202, elapsed: 0.0057239532470703125
ell 201, elapsed: 0.0006210803985595703
ell 200, elapsed: 0.00061798095703125
ell 199, elapsed: 0.0005960464477539062
ell 198, elapsed: 0.0005979537963867188
ell 152, elapsed: 0.002975940704345703
ell 151, elapsed: 0.0006239414215087891
ell 150, elapsed: 0.0005440711975097656
ell 149, elapsed: 0.0005309581756591797
ell 148, elapsed: 0.0005280971527099609
ell 127, elapsed: 0.0018110275268554688
ell 126, elapsed: 0.0005369186401367188
ell 125, elapsed: 0.0005750656127929688
ell 124, elapsed: 0.0005970001220703125
ell 123, elapsed: 0.0005300045013427734
ell 114, elapsed: 0.0009851455688476562
ell 113, elapsed: 0.0005478858947753906
ell 112, elapsed: 0.0005359649658203125
ell 111, elapsed: 0.0005321502685546875
ell 110, elapsed: 0.0005249977111816406
ell 102, elapsed: 0.0010330677032470703
ell 101, elapsed: 0.0005331039428710938
ell 100, elapsed: 0.0005249977111816406
ell 99, elapsed: 0.0005230903625488281
ell 98, elapsed: 0.0005340576171875
ell 97, elapsed: 0.0005679130554199219
ell 96, elapsed: 0.0006690025329589844
ell 95, elapsed: 0.0005650520324707031
ell 94, elapsed: 0.0006740093231201172
ell 93, elapsed: 0.0005640983581542969
ell 92, elapsed: 0.0006620883941650391
ell 91, elapsed: 0.0005600452423095703
ell 90, elapsed: 0.0006549358367919922
ell 89, elapsed: 0.0005571842193603516
ell 88, elapsed: 0.0006630420684814453
ell 87, elapsed: 0.00061798095703125
ell 86, elapsed: 0.0007250308990478516
ell 85, elapsed: 0.0006151199340820312
ell 84, elapsed: 0.0007131099700927734
ell 83, elapsed: 0.0006978511810302734
ell 82, elapsed: 0.0007910728454589844
ell 81, elapsed: 0.0006799697875976562
ell 80, elapsed: 0.00074005126953125
ell 79, elapsed: 0.0006740093231201172
ell 78, elapsed: 0.000782012939453125
ell 77, elapsed: 0.0006940364837646484
ell 76, elapsed: 0.0007278919219970703
ell 75, elapsed: 0.0006821155548095703
ell 74, elapsed: 0.0007979869842529297
ell 73, elapsed: 0.0006489753723144531
ell 72, elapsed: 0.0007221698760986328
ell 71, elapsed: 0.0006520748138427734
ell 70, elapsed: 0.0007188320159912109
ell 69, elapsed: 0.0005779266357421875
ell 68, elapsed: 0.0006809234619140625
ell 67, elapsed: 0.0005950927734375
ell 66, elapsed: 0.000743865966796875
ell 65, elapsed: 0.0006530284881591797
ell 64, elapsed: 0.0007879734039306641
ell 63, elapsed: 0.0006361007690429688
ell 62, elapsed: 0.0007359981536865234
ell 61, elapsed: 0.0006351470947265625
ell 60, elapsed: 0.0006659030914306641
ell 59, elapsed: 0.0005838871002197266
ell 58, elapsed: 0.0006239414215087891
ell 57, elapsed: 0.0005249977111816406
ell 56, elapsed: 0.0006542205810546875
ell 55, elapsed: 0.0005629062652587891
ell 54, elapsed: 0.0006098747253417969
ell 53, elapsed: 0.0005421638488769531
ell 52, elapsed: 0.0006120204925537109
ell 51, elapsed: 0.0005748271942138672
ell 50, elapsed: 0.0006420612335205078
ell 49, elapsed: 0.0005431175231933594
ell 48, elapsed: 0.0006880760192871094
ell 47, elapsed: 0.0005409717559814453
ell 46, elapsed: 0.0006091594696044922
ell 45, elapsed: 0.0005278587341308594
ell 44, elapsed: 0.0006029605865478516
ell 43, elapsed: 0.0005350112915039062
ell 42, elapsed: 0.0006110668182373047
ell 41, elapsed: 0.0005390644073486328
ell 40, elapsed: 0.0005958080291748047
ell 39, elapsed: 0.0005259513854980469
ell 38, elapsed: 0.0006501674652099609
ell 37, elapsed: 0.0005669593811035156
ell 36, elapsed: 0.0006060600280761719
ell 35, elapsed: 0.0005278587341308594
ell 34, elapsed: 0.0006220340728759766
ell 33, elapsed: 0.0005609989166259766
ell 32, elapsed: 0.0006871223449707031
ell 31, elapsed: 0.0005290508270263672
ell 30, elapsed: 0.0006039142608642578
ell 29, elapsed: 0.000537872314453125
ell 28, elapsed: 0.0006208419799804688
ell 27, elapsed: 0.0005249977111816406
ell 26, elapsed: 0.0006089210510253906
ell 25, elapsed: 0.0005609989166259766
ell 24, elapsed: 0.0006830692291259766
ell 23, elapsed: 0.0005309581756591797
ell 22, elapsed: 0.0006248950958251953
ell 21, elapsed: 0.0005280971527099609
ell 20, elapsed: 0.0006158351898193359
ell 19, elapsed: 0.0005371570587158203
ell 18, elapsed: 0.0006070137023925781
ell 17, elapsed: 0.0005919933319091797
ell 16, elapsed: 0.0006949901580810547
ell 15, elapsed: 0.0005300045013427734
ell 14, elapsed: 0.0006041526794433594
ell 13, elapsed: 0.0005259513854980469
ell 12, elapsed: 0.0006070137023925781
ell 11, elapsed: 0.0005249977111816406
ell 10, elapsed: 0.0006070137023925781
ell 9, elapsed: 0.0005450248718261719
ell 8, elapsed: 0.0006070137023925781
ell 7, elapsed: 0.0005300045013427734
ell 6, elapsed: 0.0006039142608642578
ell 5, elapsed: 0.0005240440368652344
ell 4, elapsed: 0.0006258487701416016
ell 3, elapsed: 0.0006229877471923828
ell 2, elapsed: 0.0006880760192871094
ell 1, elapsed: 0.0005600452423095703
ell 0, elapsed: 0.0006051063537597656
  3.079813 seconds (1.75 M allocations: 85.479 MiB, 0.85% gc time)
elapsed: 0.0007061958312988281
step:          0.743053 sec (402.561 k allocations: 20.278 MB, 0.0% gc time)
swapping:      0.000663 sec (0 allocations: 0 byte, 0.0% gc time)
calc_Mellell!: 0.510155 sec (296.399 k allocations: 14.958 MB, 0.0% gc time)
  t0 :  0.0 sec (0 allocations: 0 byte, 0.0% gc time)
  tm2 : 0.0 sec (0 allocations: 0 byte, 0.0% gc time)
  tm2s: 0.0 sec (0 allocations: 0 byte, 0.0% gc time)
  tm4 : 0.0 sec (0 allocations: 0 byte, 0.0% gc time)
  tp2 : 0.0 sec (0 allocations: 0 byte, 0.0% gc time)
  tp2s: 0.0 sec (0 allocations: 0 byte, 0.0% gc time)
  tp4 : 0.0 sec (0 allocations: 0 byte, 0.0% gc time)
calc_wtdll!:   1.061834 sec (525.864 k allocations: 26.379 MB, 2.46% gc time)
calc_wljj!:    0.003658 sec (6 allocations: 96 byte, 0.0% gc time)
mult_prefac!:  0.0 sec (0 allocations: 0 byte, 0.0% gc time)
convert:       0.0 sec (0 allocations: 0 byte, 0.0% gc time)
write:         0.005375 sec (0 allocations: 0 byte, 0.0% gc time)
test_rand_2f1: 0.0 sec (0 allocations: 0 byte, 0.0% gc time)
Closing outfile out/Ml21-cache.bin...   0.000152 seconds
  0.995333 seconds (8.66 k allocations: 420.969 KiB)
make_phi():   0.012453 seconds (8.20 k allocations: 238.016 KiB)
  0.204719 seconds (121.69 k allocations: 5.901 MiB)
tskip:       2.2e-5 sec (0 allocations: 0 byte, 0.0% gc time)
tread:       0.002374 sec (19 allocations: 2.172 KB, 0.0% gc time)
tmultphi:    0.039202 sec (26.022 k allocations: 1.338 MB, 0.0% gc time)
tbrfft:      0.004086 sec (896 allocations: 42.0 KB, 0.0% gc time)
tmultprefac: 0.003557 sec (0 allocations: 0 byte, 0.0% gc time)
toutfunc:    0.155405 sec (94.103 k allocations: 4.45 MB, 0.0% gc time)
Testing R=1.1 ... passed
Calculating fmax: 
  dlrec    = 4
  dlrecRg1 = -4
  q=1.1, R=1.0:	  0.001805 seconds (4.00 k allocations: 300.375 KiB)

  0.002022 seconds (4.04 k allocations: 334.734 KiB)
ℓ = 1202
Δℓ = 4
ΔℓRg1 = -4
N = 1600
q = 1.1
kmin = 1.0e-5
kmax = 100000.00000000004
χ0 = 0.023029999999999995
RR = RR.tsv
ℓmax = ℓmax.bin
f21 = f21.bin
kmin = 1.0e-5
kmax = 100000.0
dlrec    = 4
dlrecRg1 = -4
Output size: 61465536 bytes = 0.05724424123764038 GiB
Output size: 51264 bytes = 4.774332046508789e-5 GiB
Reading 'out/F21EllCache'...   0.001172 seconds (267 allocations: 84.656 KiB)
ellmax: 1202
lmaxcache: 1202
fell[:,1,1] = Complex{Float64}[809.6031528389767 - 1.9829558194077161e-13im, 0.0 + 0.0im]
ell 1202, elapsed: 2.47955322265625e-5
ell 1201, elapsed: 0.014626026153564453
ell 1200, elapsed: 0.0003731250762939453
ell 1199, elapsed: 0.0003559589385986328
ell 1198, elapsed: 0.00037217140197753906
ell 1197, elapsed: 0.00041604042053222656
ell 1196, elapsed: 0.0003991127014160156
ell 1195, elapsed: 0.0005137920379638672
ell 1194, elapsed: 0.0003981590270996094
ell 1193, elapsed: 0.0004978179931640625
ell 1192, elapsed: 0.0003960132598876953
ell 1191, elapsed: 0.0005061626434326172
ell 1190, elapsed: 0.0004360675811767578
ell 1189, elapsed: 0.0006508827209472656
ell 1188, elapsed: 0.0004889965057373047
ell 1187, elapsed: 0.00047206878662109375
ell 1186, elapsed: 0.0003960132598876953
ell 1185, elapsed: 0.0006539821624755859
ell 1184, elapsed: 0.0004470348358154297
ell 1183, elapsed: 0.0004730224609375
ell 1182, elapsed: 0.00043511390686035156
ell 1181, elapsed: 0.00048613548278808594
ell 1180, elapsed: 0.0004019737243652344
ell 1179, elapsed: 0.00047206878662109375
ell 1178, elapsed: 0.00039386749267578125
ell 1177, elapsed: 0.0004830360412597656
ell 1176, elapsed: 0.0003879070281982422
ell 1175, elapsed: 0.0004839897155761719
ell 1174, elapsed: 0.00041103363037109375
ell 1173, elapsed: 0.00047898292541503906
ell 1172, elapsed: 0.0003898143768310547
ell 1171, elapsed: 0.00047707557678222656
ell 1170, elapsed: 0.0003972053527832031
ell 1169, elapsed: 0.00047516822814941406
ell 1168, elapsed: 0.00039887428283691406
ell 1167, elapsed: 0.0004742145538330078
ell 1166, elapsed: 0.00039005279541015625
ell 1165, elapsed: 0.0004820823669433594
ell 1164, elapsed: 0.0003809928894042969
ell 1163, elapsed: 0.0004711151123046875
ell 1162, elapsed: 0.00039505958557128906
ell 1161, elapsed: 0.0004639625549316406
ell 1160, elapsed: 0.0003879070281982422
ell 1159, elapsed: 0.0004978179931640625
ell 1158, elapsed: 0.0004029273986816406
ell 1157, elapsed: 0.0005099773406982422
ell 1156, elapsed: 0.0004029273986816406
ell 1155, elapsed: 0.0004911422729492188
ell 1154, elapsed: 0.0003972053527832031
ell 1153, elapsed: 0.0004780292510986328
ell 1152, elapsed: 0.00039196014404296875
ell 1151, elapsed: 0.0004889965057373047
ell 1150, elapsed: 0.0004038810729980469
ell 1149, elapsed: 0.0005040168762207031
ell 1148, elapsed: 0.0004088878631591797
ell 1147, elapsed: 0.0004999637603759766
ell 1146, elapsed: 0.0003960132598876953
ell 1145, elapsed: 0.0004918575286865234
ell 1144, elapsed: 0.00039696693420410156
ell 1143, elapsed: 0.0004868507385253906
ell 1142, elapsed: 0.0004048347473144531
ell 1141, elapsed: 0.0004968643188476562
ell 1140, elapsed: 0.00040721893310546875
ell 1139, elapsed: 0.0004951953887939453
ell 1138, elapsed: 0.0003941059112548828
ell 1137, elapsed: 0.0004949569702148438
ell 1136, elapsed: 0.00039005279541015625
ell 1135, elapsed: 0.0004830360412597656
ell 1134, elapsed: 0.00039196014404296875
ell 1133, elapsed: 0.00047397613525390625
ell 1132, elapsed: 0.00040912628173828125
ell 1131, elapsed: 0.0004811286926269531
ell 1130, elapsed: 0.00039505958557128906
ell 1129, elapsed: 0.00048804283142089844
ell 1128, elapsed: 0.0003981590270996094
ell 1127, elapsed: 0.00049591064453125
ell 1126, elapsed: 0.00040411949157714844
ell 1125, elapsed: 0.0004971027374267578
ell 1124, elapsed: 0.0003981590270996094
ell 1123, elapsed: 0.0004949569702148438
ell 1122, elapsed: 0.00038909912109375
ell 1121, elapsed: 0.0004820823669433594
ell 1120, elapsed: 0.00039196014404296875
ell 1119, elapsed: 0.0004899501800537109
ell 1118, elapsed: 0.0003941059112548828
ell 1117, elapsed: 0.00048804283142089844
ell 1116, elapsed: 0.0003960132598876953
ell 1115, elapsed: 0.0005528926849365234
ell 1114, elapsed: 0.000392913818359375
ell 1113, elapsed: 0.00047087669372558594
ell 1112, elapsed: 0.000392913818359375
ell 1111, elapsed: 0.0004818439483642578
ell 1110, elapsed: 0.00039315223693847656
ell 1109, elapsed: 0.0004918575286865234
ell 1108, elapsed: 0.00039696693420410156
ell 1107, elapsed: 0.0004909038543701172
ell 1106, elapsed: 0.000392913818359375
ell 1105, elapsed: 0.0004839897155761719
ell 1104, elapsed: 0.0004048347473144531
ell 1103, elapsed: 0.0004799365997314453
ell 1102, elapsed: 0.00039196014404296875
ell 1101, elapsed: 0.0004820823669433594
ell 1100, elapsed: 0.0003979206085205078
ell 1099, elapsed: 0.00048613548278808594
ell 1098, elapsed: 0.00040984153747558594
ell 1097, elapsed: 0.0005080699920654297
ell 1096, elapsed: 0.0003910064697265625
ell 1095, elapsed: 0.00047206878662109375
ell 1094, elapsed: 0.00040078163146972656
ell 1093, elapsed: 0.0004801750183105469
ell 1092, elapsed: 0.00039696693420410156
ell 1091, elapsed: 0.0004761219024658203
ell 1090, elapsed: 0.00040602684020996094
ell 1089, elapsed: 0.0004730224609375
ell 1088, elapsed: 0.00039505958557128906
ell 1087, elapsed: 0.0004830360412597656
ell 1086, elapsed: 0.000392913818359375
ell 1085, elapsed: 0.0004849433898925781
ell 1084, elapsed: 0.0003979206085205078
ell 1083, elapsed: 0.0004858970642089844
ell 1082, elapsed: 0.0004069805145263672
ell 1081, elapsed: 0.00048089027404785156
ell 1080, elapsed: 0.0003910064697265625
ell 1079, elapsed: 0.0004820823669433594
ell 1078, elapsed: 0.0004029273986816406
ell 1077, elapsed: 0.0004990100860595703
ell 1076, elapsed: 0.00039196014404296875
ell 1075, elapsed: 0.0004820823669433594
ell 1074, elapsed: 0.0004019737243652344
ell 1073, elapsed: 0.0005118846893310547
ell 1072, elapsed: 0.0004119873046875
ell 1071, elapsed: 0.0004870891571044922
ell 1070, elapsed: 0.00039196014404296875
ell 1069, elapsed: 0.0004999637603759766
ell 1068, elapsed: 0.0004038810729980469
ell 1067, elapsed: 0.0004940032958984375
ell 1066, elapsed: 0.0003910064697265625
ell 1065, elapsed: 0.0005080699920654297
ell 1064, elapsed: 0.00039315223693847656
ell 1063, elapsed: 0.0004870891571044922
ell 1062, elapsed: 0.00039505958557128906
ell 1061, elapsed: 0.0004839897155761719
ell 1060, elapsed: 0.0003979206085205078
ell 1059, elapsed: 0.0005121231079101562
ell 1058, elapsed: 0.0005459785461425781
ell 1057, elapsed: 0.0005979537963867188
ell 1056, elapsed: 0.0004639625549316406
ell 1055, elapsed: 0.0005588531494140625
ell 1054, elapsed: 0.0004558563232421875
ell 1053, elapsed: 0.0005590915679931641
ell 1052, elapsed: 0.0005860328674316406
ell 1051, elapsed: 0.0005879402160644531
ell 1050, elapsed: 0.00046515464782714844
ell 1049, elapsed: 0.0005609989166259766
ell 1048, elapsed: 0.0004630088806152344
ell 1047, elapsed: 0.0007891654968261719
ell 1046, elapsed: 0.0004639625549316406
ell 1045, elapsed: 0.0005528926849365234
ell 1044, elapsed: 0.000453948974609375
ell 1043, elapsed: 0.0005512237548828125
ell 1042, elapsed: 0.00045800209045410156
ell 1041, elapsed: 0.0005910396575927734
ell 1040, elapsed: 0.0004038810729980469
ell 1039, elapsed: 0.0004870891571044922
ell 1038, elapsed: 0.00039505958557128906
ell 1037, elapsed: 0.0005490779876708984
ell 1036, elapsed: 0.0005409717559814453
ell 1035, elapsed: 0.0005679130554199219
ell 1034, elapsed: 0.0004558563232421875
ell 1033, elapsed: 0.0005500316619873047
ell 1032, elapsed: 0.0004589557647705078
ell 1031, elapsed: 0.0005719661712646484
ell 1030, elapsed: 0.00045108795166015625
ell 1029, elapsed: 0.0005428791046142578
ell 1028, elapsed: 0.0005941390991210938
ell 1027, elapsed: 0.0005931854248046875
ell 1026, elapsed: 0.00045990943908691406
ell 1025, elapsed: 0.0005750656127929688
ell 1024, elapsed: 0.0004630088806152344
ell 1023, elapsed: 0.000576019287109375
ell 1022, elapsed: 0.0005419254302978516
ell 1021, elapsed: 0.0006248950958251953
ell 1020, elapsed: 0.0004630088806152344
ell 1019, elapsed: 0.0005469322204589844
ell 1018, elapsed: 0.0004639625549316406
ell 1017, elapsed: 0.0005550384521484375
ell 1016, elapsed: 0.0004630088806152344
ell 1015, elapsed: 0.0005548000335693359
ell 1014, elapsed: 0.0004649162292480469
ell 1013, elapsed: 0.0005550384521484375
ell 1012, elapsed: 0.0004620552062988281
ell 1011, elapsed: 0.0005600452423095703
ell 1010, elapsed: 0.0004630088806152344
ell 1009, elapsed: 0.0005478858947753906
ell 1008, elapsed: 0.000453948974609375
ell 1007, elapsed: 0.0005609989166259766
ell 1006, elapsed: 0.00047278404235839844
ell 1005, elapsed: 0.0005650520324707031
ell 1004, elapsed: 0.0004620552062988281
ell 1003, elapsed: 0.0005559921264648438
ell 1002, elapsed: 0.0004520416259765625
ell 1001, elapsed: 0.0005528926849365234
ell 1000, elapsed: 0.00047206878662109375
ell 999, elapsed: 0.0005431175231933594
ell 998, elapsed: 0.0004620552062988281
ell 997, elapsed: 0.0005509853363037109
ell 996, elapsed: 0.0004611015319824219
ell 995, elapsed: 0.0005598068237304688
ell 994, elapsed: 0.0004761219024658203
ell 993, elapsed: 0.0006201267242431641
ell 992, elapsed: 0.0004601478576660156
ell 991, elapsed: 0.0005521774291992188
ell 990, elapsed: 0.0006439685821533203
ell 989, elapsed: 0.000576019287109375
ell 988, elapsed: 0.0004611015319824219
ell 987, elapsed: 0.0005521774291992188
ell 986, elapsed: 0.0004630088806152344
ell 985, elapsed: 0.0005669593811035156
ell 984, elapsed: 0.0004649162292480469
ell 983, elapsed: 0.0005838871002197266
ell 982, elapsed: 0.0004699230194091797
ell 981, elapsed: 0.0005609989166259766
ell 980, elapsed: 0.0005438327789306641
ell 979, elapsed: 0.0005629062652587891
ell 978, elapsed: 0.0004608631134033203
ell 977, elapsed: 0.0005638599395751953
ell 976, elapsed: 0.0004630088806152344
ell 975, elapsed: 0.0005600452423095703
ell 974, elapsed: 0.0004630088806152344
ell 973, elapsed: 0.0005710124969482422
ell 972, elapsed: 0.0005691051483154297
ell 971, elapsed: 0.0006148815155029297
ell 970, elapsed: 0.0004661083221435547
ell 969, elapsed: 0.0006248950958251953
ell 968, elapsed: 0.0004620552062988281
ell 967, elapsed: 0.00055694580078125
ell 966, elapsed: 0.0004639625549316406
ell 965, elapsed: 0.0005600452423095703
ell 964, elapsed: 0.0004620552062988281
ell 963, elapsed: 0.0005609989166259766
ell 962, elapsed: 0.0005359649658203125
ell 961, elapsed: 0.0006289482116699219
ell 960, elapsed: 0.0004630088806152344
ell 959, elapsed: 0.0006229877471923828
ell 958, elapsed: 0.0004608631134033203
ell 957, elapsed: 0.0005500316619873047
ell 956, elapsed: 0.00045609474182128906
ell 955, elapsed: 0.000614166259765625
ell 954, elapsed: 0.0006601810455322266
ell 953, elapsed: 0.0005660057067871094
ell 952, elapsed: 0.00051116943359375
ell 951, elapsed: 0.0005550384521484375
ell 950, elapsed: 0.00046706199645996094
ell 949, elapsed: 0.0005578994750976562
ell 948, elapsed: 0.0004830360412597656
ell 947, elapsed: 0.00055694580078125
ell 946, elapsed: 0.0004730224609375
ell 945, elapsed: 0.0005650520324707031
ell 944, elapsed: 0.0004630088806152344
ell 943, elapsed: 0.0005629062652587891
ell 942, elapsed: 0.0004699230194091797
ell 941, elapsed: 0.0005679130554199219
ell 940, elapsed: 0.00047397613525390625
ell 939, elapsed: 0.0005681514739990234
ell 938, elapsed: 0.0004191398620605469
ell 937, elapsed: 0.0004851818084716797
ell 936, elapsed: 0.000392913818359375
ell 935, elapsed: 0.0004799365997314453
ell 934, elapsed: 0.0003979206085205078
ell 933, elapsed: 0.0004830360412597656
ell 932, elapsed: 0.0005519390106201172
ell 931, elapsed: 0.0005970001220703125
ell 930, elapsed: 0.0004038810729980469
ell 929, elapsed: 0.0004940032958984375
ell 928, elapsed: 0.0004029273986816406
ell 927, elapsed: 0.00049591064453125
ell 926, elapsed: 0.0003991127014160156
ell 925, elapsed: 0.0004889965057373047
ell 924, elapsed: 0.0004031658172607422
ell 923, elapsed: 0.0005121231079101562
ell 922, elapsed: 0.0003981590270996094
ell 921, elapsed: 0.0005028247833251953
ell 920, elapsed: 0.0003979206085205078
ell 919, elapsed: 0.0004949569702148438
ell 918, elapsed: 0.0004000663757324219
ell 917, elapsed: 0.0004849433898925781
ell 916, elapsed: 0.00039505958557128906
ell 915, elapsed: 0.0005090236663818359
ell 914, elapsed: 0.00039386749267578125
ell 913, elapsed: 0.0004849433898925781
ell 912, elapsed: 0.0004069805145263672
ell 911, elapsed: 0.0004839897155761719
ell 910, elapsed: 0.0003981590270996094
ell 909, elapsed: 0.0005118846893310547
ell 908, elapsed: 0.0003960132598876953
ell 907, elapsed: 0.0005471706390380859
ell 906, elapsed: 0.0003998279571533203
ell 905, elapsed: 0.0006890296936035156
ell 904, elapsed: 0.0004391670227050781
ell 903, elapsed: 0.0004901885986328125
ell 902, elapsed: 0.0004029273986816406
ell 901, elapsed: 0.0004889965057373047
ell 900, elapsed: 0.0003998279571533203
ell 899, elapsed: 0.0005159378051757812
ell 898, elapsed: 0.0005030632019042969
ell 897, elapsed: 0.0006349086761474609
ell 896, elapsed: 0.0004038810729980469
ell 895, elapsed: 0.0004889965057373047
ell 894, elapsed: 0.0004019737243652344
ell 893, elapsed: 0.0004918575286865234
ell 892, elapsed: 0.0004019737243652344
ell 891, elapsed: 0.0005102157592773438
ell 890, elapsed: 0.0003998279571533203
ell 889, elapsed: 0.00048804283142089844
ell 888, elapsed: 0.00039887428283691406
ell 887, elapsed: 0.0006799697875976562
ell 886, elapsed: 0.0004420280456542969
ell 885, elapsed: 0.0005109310150146484
ell 884, elapsed: 0.00041222572326660156
ell 883, elapsed: 0.0004940032958984375
ell 882, elapsed: 0.00039386749267578125
ell 881, elapsed: 0.0004811286926269531
ell 880, elapsed: 0.0004010200500488281
ell 879, elapsed: 0.000492095947265625
ell 878, elapsed: 0.0004010200500488281
ell 877, elapsed: 0.0004868507385253906
ell 876, elapsed: 0.0004050731658935547
ell 875, elapsed: 0.0005030632019042969
ell 874, elapsed: 0.0004010200500488281
ell 873, elapsed: 0.0004870891571044922
ell 872, elapsed: 0.00039005279541015625
ell 871, elapsed: 0.0004949569702148438
ell 870, elapsed: 0.00040602684020996094
ell 869, elapsed: 0.0004889965057373047
ell 868, elapsed: 0.00039505958557128906
ell 867, elapsed: 0.0005090236663818359
ell 866, elapsed: 0.0004019737243652344
ell 865, elapsed: 0.0004899501800537109
ell 864, elapsed: 0.0003960132598876953
ell 863, elapsed: 0.0004899501800537109
ell 862, elapsed: 0.0004010200500488281
ell 861, elapsed: 0.00048804283142089844
ell 860, elapsed: 0.0003979206085205078
ell 859, elapsed: 0.0004999637603759766
ell 858, elapsed: 0.00040221214294433594
ell 857, elapsed: 0.0006411075592041016
ell 856, elapsed: 0.0004620552062988281
ell 855, elapsed: 0.0004918575286865234
ell 854, elapsed: 0.00040411949157714844
ell 853, elapsed: 0.00048804283142089844
ell 852, elapsed: 0.0003941059112548828
ell 851, elapsed: 0.0004949569702148438
ell 850, elapsed: 0.0003979206085205078
ell 849, elapsed: 0.000492095947265625
ell 848, elapsed: 0.0003998279571533203
ell 847, elapsed: 0.0004858970642089844
ell 846, elapsed: 0.000598907470703125
ell 845, elapsed: 0.0006740093231201172
ell 844, elapsed: 0.0004918575286865234
ell 843, elapsed: 0.00048804283142089844
ell 842, elapsed: 0.0004031658172607422
ell 841, elapsed: 0.0004909038543701172
ell 840, elapsed: 0.0003941059112548828
ell 839, elapsed: 0.0007240772247314453
ell 838, elapsed: 0.00046706199645996094
ell 837, elapsed: 0.0005130767822265625
ell 836, elapsed: 0.000392913818359375
ell 835, elapsed: 0.00048089027404785156
ell 834, elapsed: 0.00039696693420410156
ell 833, elapsed: 0.00047206878662109375
ell 832, elapsed: 0.0003910064697265625
ell 831, elapsed: 0.00047206878662109375
ell 830, elapsed: 0.0003910064697265625
ell 829, elapsed: 0.000476837158203125
ell 828, elapsed: 0.0004048347473144531
ell 827, elapsed: 0.00047206878662109375
ell 826, elapsed: 0.00039696693420410156
ell 825, elapsed: 0.00047397613525390625
ell 824, elapsed: 0.00038886070251464844
ell 823, elapsed: 0.0004749298095703125
ell 822, elapsed: 0.0003979206085205078
ell 821, elapsed: 0.0004889965057373047
ell 820, elapsed: 0.0005960464477539062
ell 819, elapsed: 0.0007450580596923828
ell 818, elapsed: 0.0004858970642089844
ell 817, elapsed: 0.0004930496215820312
ell 816, elapsed: 0.00040602684020996094
ell 815, elapsed: 0.0004949569702148438
ell 814, elapsed: 0.00040793418884277344
ell 813, elapsed: 0.0004889965057373047
ell 812, elapsed: 0.0004811286926269531
ell 811, elapsed: 0.0006539821624755859
ell 810, elapsed: 0.0003879070281982422
ell 809, elapsed: 0.0004799365997314453
ell 808, elapsed: 0.0003960132598876953
ell 807, elapsed: 0.0004780292510986328
ell 806, elapsed: 0.00039386749267578125
ell 805, elapsed: 0.0004899501800537109
ell 804, elapsed: 0.0003871917724609375
ell 803, elapsed: 0.0004711151123046875
ell 802, elapsed: 0.00039887428283691406
ell 801, elapsed: 0.0004839897155761719
ell 800, elapsed: 0.0003819465637207031
ell 799, elapsed: 0.0004680156707763672
ell 798, elapsed: 0.0003829002380371094
ell 797, elapsed: 0.0004649162292480469
ell 796, elapsed: 0.00040912628173828125
ell 795, elapsed: 0.00047898292541503906
ell 794, elapsed: 0.0003910064697265625
ell 793, elapsed: 0.0004730224609375
ell 792, elapsed: 0.00039386749267578125
ell 791, elapsed: 0.0004718303680419922
ell 790, elapsed: 0.0003879070281982422
ell 789, elapsed: 0.0004761219024658203
ell 788, elapsed: 0.00039696693420410156
ell 787, elapsed: 0.0004930496215820312
ell 786, elapsed: 0.0003981590270996094
ell 785, elapsed: 0.0004780292510986328
ell 784, elapsed: 0.00041294097900390625
ell 783, elapsed: 0.0004968643188476562
ell 782, elapsed: 0.0004069805145263672
ell 781, elapsed: 0.0006110668182373047
ell 780, elapsed: 0.0005500316619873047
ell 779, elapsed: 0.0006530284881591797
ell 778, elapsed: 0.00047016143798828125
ell 777, elapsed: 0.0006377696990966797
ell 776, elapsed: 0.0005261898040771484
ell 775, elapsed: 0.0005841255187988281
ell 774, elapsed: 0.000514984130859375
ell 773, elapsed: 0.0006778240203857422
ell 772, elapsed: 0.00055694580078125
ell 771, elapsed: 0.0007488727569580078
ell 770, elapsed: 0.0006351470947265625
ell 769, elapsed: 0.0007200241088867188
ell 768, elapsed: 0.0006339550018310547
ell 767, elapsed: 0.0007469654083251953
ell 766, elapsed: 0.0004489421844482422
ell 765, elapsed: 0.0004980564117431641
ell 764, elapsed: 0.0003859996795654297
ell 763, elapsed: 0.00047898292541503906
ell 762, elapsed: 0.00039005279541015625
ell 761, elapsed: 0.0004849433898925781
ell 760, elapsed: 0.0004210472106933594
ell 759, elapsed: 0.0004928112030029297
ell 758, elapsed: 0.00039386749267578125
ell 757, elapsed: 0.00047516822814941406
ell 756, elapsed: 0.00038504600524902344
ell 755, elapsed: 0.00047397613525390625
ell 754, elapsed: 0.0003809928894042969
ell 753, elapsed: 0.0004570484161376953
ell 752, elapsed: 0.0005040168762207031
ell 751, elapsed: 0.0007469654083251953
ell 750, elapsed: 0.0004630088806152344
ell 749, elapsed: 0.0006189346313476562
ell 748, elapsed: 0.0005290508270263672
ell 747, elapsed: 0.00047779083251953125
ell 746, elapsed: 0.0003910064697265625
ell 745, elapsed: 0.0006809234619140625
ell 744, elapsed: 0.0006129741668701172
ell 743, elapsed: 0.0005888938903808594
ell 742, elapsed: 0.00039577484130859375
ell 741, elapsed: 0.00047707557678222656
ell 740, elapsed: 0.0005109310150146484
ell 739, elapsed: 0.0007281303405761719
ell 738, elapsed: 0.0004951953887939453
ell 737, elapsed: 0.0006198883056640625
ell 736, elapsed: 0.0006229877471923828
ell 735, elapsed: 0.0006008148193359375
ell 734, elapsed: 0.00039386749267578125
ell 733, elapsed: 0.0004780292510986328
ell 732, elapsed: 0.00039386749267578125
ell 731, elapsed: 0.0004971027374267578
ell 730, elapsed: 0.00039196014404296875
ell 729, elapsed: 0.00047588348388671875
ell 728, elapsed: 0.0004010200500488281
ell 727, elapsed: 0.0004909038543701172
ell 726, elapsed: 0.0003998279571533203
ell 725, elapsed: 0.00048422813415527344
ell 724, elapsed: 0.00039005279541015625
ell 723, elapsed: 0.00048089027404785156
ell 722, elapsed: 0.00039696693420410156
ell 721, elapsed: 0.0004858970642089844
ell 720, elapsed: 0.0004038810729980469
ell 719, elapsed: 0.0004849433898925781
ell 718, elapsed: 0.0005230903625488281
ell 717, elapsed: 0.000598907470703125
ell 716, elapsed: 0.0003960132598876953
ell 715, elapsed: 0.000492095947265625
ell 714, elapsed: 0.0004138946533203125
ell 713, elapsed: 0.0004851818084716797
ell 712, elapsed: 0.0005550384521484375
ell 711, elapsed: 0.0005679130554199219
ell 710, elapsed: 0.0003910064697265625
ell 709, elapsed: 0.00047397613525390625
ell 708, elapsed: 0.0003859996795654297
ell 707, elapsed: 0.00047898292541503906
ell 706, elapsed: 0.0005130767822265625
ell 705, elapsed: 0.0005869865417480469
ell 704, elapsed: 0.00039315223693847656
ell 703, elapsed: 0.0004749298095703125
ell 702, elapsed: 0.0003879070281982422
ell 701, elapsed: 0.0004730224609375
ell 700, elapsed: 0.00038695335388183594
ell 699, elapsed: 0.0004930496215820312
ell 698, elapsed: 0.000392913818359375
ell 697, elapsed: 0.0004949569702148438
ell 696, elapsed: 0.0003991127014160156
ell 695, elapsed: 0.0006830692291259766
ell 694, elapsed: 0.0004131793975830078
ell 693, elapsed: 0.0004680156707763672
ell 692, elapsed: 0.000392913818359375
ell 691, elapsed: 0.0005021095275878906
ell 690, elapsed: 0.0003991127014160156
ell 689, elapsed: 0.0004780292510986328
ell 688, elapsed: 0.0005640983581542969
ell 687, elapsed: 0.0005550384521484375
ell 686, elapsed: 0.00039386749267578125
ell 685, elapsed: 0.0004839897155761719
ell 684, elapsed: 0.0004971027374267578
ell 683, elapsed: 0.0007688999176025391
ell 682, elapsed: 0.0004489421844482422
ell 681, elapsed: 0.0004780292510986328
ell 680, elapsed: 0.0005729198455810547
ell 679, elapsed: 0.0005660057067871094
ell 678, elapsed: 0.0003979206085205078
ell 677, elapsed: 0.0006771087646484375
ell 676, elapsed: 0.0005209445953369141
ell 675, elapsed: 0.0006990432739257812
ell 674, elapsed: 0.0005168914794921875
ell 673, elapsed: 0.0007569789886474609
ell 672, elapsed: 0.000492095947265625
ell 671, elapsed: 0.0004930496215820312
ell 670, elapsed: 0.0004169940948486328
ell 669, elapsed: 0.0006999969482421875
ell 668, elapsed: 0.0005888938903808594
ell 667, elapsed: 0.0005600452423095703
ell 666, elapsed: 0.0005600452423095703
ell 665, elapsed: 0.0005769729614257812
ell 664, elapsed: 0.0004069805145263672
ell 663, elapsed: 0.0005588531494140625
ell 662, elapsed: 0.00041294097900390625
ell 661, elapsed: 0.000492095947265625
ell 660, elapsed: 0.0004038810729980469
ell 659, elapsed: 0.0004870891571044922
ell 658, elapsed: 0.0005550384521484375
ell 657, elapsed: 0.000576019287109375
ell 656, elapsed: 0.0004210472106933594
ell 655, elapsed: 0.00048804283142089844
ell 654, elapsed: 0.0004010200500488281
ell 653, elapsed: 0.0004909038543701172
ell 652, elapsed: 0.0004029273986816406
ell 651, elapsed: 0.0004911422729492188
ell 650, elapsed: 0.0004038810729980469
ell 649, elapsed: 0.0006930828094482422
ell 648, elapsed: 0.0004429817199707031
ell 647, elapsed: 0.00067901611328125
ell 646, elapsed: 0.0005700588226318359
ell 645, elapsed: 0.0007641315460205078
ell 644, elapsed: 0.0005939006805419922
ell 643, elapsed: 0.0007431507110595703
ell 642, elapsed: 0.00045609474182128906
ell 641, elapsed: 0.0004820823669433594
ell 640, elapsed: 0.0003819465637207031
ell 639, elapsed: 0.0004980564117431641
ell 638, elapsed: 0.00041103363037109375
ell 637, elapsed: 0.0004818439483642578
ell 636, elapsed: 0.00039505958557128906
ell 635, elapsed: 0.0004839897155761719
ell 634, elapsed: 0.0004329681396484375
ell 633, elapsed: 0.0004761219024658203
ell 632, elapsed: 0.00038504600524902344
ell 631, elapsed: 0.00048089027404785156
ell 630, elapsed: 0.0003910064697265625
ell 629, elapsed: 0.0005030632019042969
ell 628, elapsed: 0.00039505958557128906
ell 627, elapsed: 0.0004749298095703125
ell 626, elapsed: 0.000392913818359375
ell 625, elapsed: 0.0004839897155761719
ell 624, elapsed: 0.0003979206085205078
ell 623, elapsed: 0.0004868507385253906
ell 622, elapsed: 0.0004088878631591797
ell 621, elapsed: 0.00046706199645996094
ell 620, elapsed: 0.000392913818359375
ell 619, elapsed: 0.0004851818084716797
ell 618, elapsed: 0.000392913818359375
ell 617, elapsed: 0.0006129741668701172
ell 616, elapsed: 0.0004928112030029297
ell 615, elapsed: 0.0004889965057373047
ell 614, elapsed: 0.0005528926849365234
ell 613, elapsed: 0.0006191730499267578
ell 612, elapsed: 0.00039386749267578125
ell 611, elapsed: 0.0004749298095703125
ell 610, elapsed: 0.00040912628173828125
ell 609, elapsed: 0.0006880760192871094
ell 608, elapsed: 0.0006351470947265625
ell 607, elapsed: 0.0007419586181640625
ell 606, elapsed: 0.0006289482116699219
ell 605, elapsed: 0.0007548332214355469
ell 604, elapsed: 0.0006580352783203125
ell 603, elapsed: 0.0007600784301757812
ell 602, elapsed: 0.0006380081176757812
ell 601, elapsed: 0.0005888938903808594
ell 600, elapsed: 0.0005629062652587891
ell 599, elapsed: 0.0007479190826416016
ell 598, elapsed: 0.0004799365997314453
ell 597, elapsed: 0.00047707557678222656
ell 596, elapsed: 0.0004010200500488281
ell 595, elapsed: 0.0005049705505371094
ell 594, elapsed: 0.00043487548828125
ell 593, elapsed: 0.0005140304565429688
ell 592, elapsed: 0.0003829002380371094
ell 591, elapsed: 0.0005049705505371094
ell 590, elapsed: 0.0004069805145263672
ell 589, elapsed: 0.00048804283142089844
ell 588, elapsed: 0.00040602684020996094
ell 587, elapsed: 0.0004949569702148438
ell 586, elapsed: 0.00045609474182128906
ell 585, elapsed: 0.0007469654083251953
ell 584, elapsed: 0.00043392181396484375
ell 583, elapsed: 0.0006039142608642578
ell 582, elapsed: 0.0005691051483154297
ell 581, elapsed: 0.0006680488586425781
ell 580, elapsed: 0.0004839897155761719
ell 579, elapsed: 0.0004961490631103516
ell 578, elapsed: 0.0003898143768310547
ell 577, elapsed: 0.00047397613525390625
ell 576, elapsed: 0.00041413307189941406
ell 575, elapsed: 0.0004820823669433594
ell 574, elapsed: 0.0004019737243652344
ell 573, elapsed: 0.0004839897155761719
ell 572, elapsed: 0.0003981590270996094
ell 571, elapsed: 0.00047206878662109375
ell 570, elapsed: 0.00038504600524902344
ell 569, elapsed: 0.0004699230194091797
ell 568, elapsed: 0.0003859996795654297
ell 567, elapsed: 0.0005052089691162109
ell 566, elapsed: 0.00038504600524902344
ell 565, elapsed: 0.0004677772521972656
ell 564, elapsed: 0.00038504600524902344
ell 563, elapsed: 0.00046896934509277344
ell 562, elapsed: 0.0003829002380371094
ell 561, elapsed: 0.00046515464782714844
ell 560, elapsed: 0.00038909912109375
ell 559, elapsed: 0.0005388259887695312
ell 558, elapsed: 0.00040602684020996094
ell 557, elapsed: 0.00047516822814941406
ell 556, elapsed: 0.00040793418884277344
ell 555, elapsed: 0.000492095947265625
ell 554, elapsed: 0.0005009174346923828
ell 553, elapsed: 0.000640869140625
ell 552, elapsed: 0.00039887428283691406
ell 551, elapsed: 0.0005011558532714844
ell 550, elapsed: 0.00040984153747558594
ell 549, elapsed: 0.0004830360412597656
ell 548, elapsed: 0.00039196014404296875
ell 547, elapsed: 0.00047898292541503906
ell 546, elapsed: 0.0003948211669921875
ell 545, elapsed: 0.0004820823669433594
ell 544, elapsed: 0.0003941059112548828
ell 543, elapsed: 0.0005040168762207031
ell 542, elapsed: 0.0003998279571533203
ell 541, elapsed: 0.0004940032958984375
ell 540, elapsed: 0.00039887428283691406
ell 539, elapsed: 0.00048613548278808594
ell 538, elapsed: 0.0003948211669921875
ell 537, elapsed: 0.0006039142608642578
ell 536, elapsed: 0.0005021095275878906
ell 535, elapsed: 0.0005040168762207031
ell 534, elapsed: 0.0004019737243652344
ell 533, elapsed: 0.0004940032958984375
ell 532, elapsed: 0.0003941059112548828
ell 531, elapsed: 0.0004889965057373047
ell 530, elapsed: 0.0003960132598876953
ell 529, elapsed: 0.0004761219024658203
ell 528, elapsed: 0.00039005279541015625
ell 527, elapsed: 0.0004961490631103516
ell 526, elapsed: 0.00039386749267578125
ell 525, elapsed: 0.00047397613525390625
ell 524, elapsed: 0.0005350112915039062
ell 523, elapsed: 0.0006659030914306641
ell 522, elapsed: 0.0004010200500488281
ell 521, elapsed: 0.00048613548278808594
ell 520, elapsed: 0.00039577484130859375
ell 519, elapsed: 0.0005080699920654297
ell 518, elapsed: 0.00039196014404296875
ell 517, elapsed: 0.00048613548278808594
ell 516, elapsed: 0.0004010200500488281
ell 515, elapsed: 0.0004830360412597656
ell 514, elapsed: 0.0003821849822998047
ell 513, elapsed: 0.00047206878662109375
ell 512, elapsed: 0.00038504600524902344
ell 511, elapsed: 0.0004949569702148438
ell 510, elapsed: 0.0003948211669921875
ell 509, elapsed: 0.0004858970642089844
ell 508, elapsed: 0.0003948211669921875
ell 507, elapsed: 0.0005860328674316406
ell 506, elapsed: 0.0005300045013427734
ell 505, elapsed: 0.0004801750183105469
ell 504, elapsed: 0.0003979206085205078
ell 503, elapsed: 0.0004999637603759766
ell 502, elapsed: 0.00039696693420410156
ell 501, elapsed: 0.0004949569702148438
ell 500, elapsed: 0.0004031658172607422
ell 499, elapsed: 0.0004839897155761719
ell 498, elapsed: 0.0003979206085205078
ell 497, elapsed: 0.0004851818084716797
ell 496, elapsed: 0.00038886070251464844
ell 495, elapsed: 0.0004839897155761719
ell 494, elapsed: 0.0004811286926269531
ell 493, elapsed: 0.000640869140625
ell 492, elapsed: 0.00040602684020996094
ell 491, elapsed: 0.0004889965057373047
ell 490, elapsed: 0.00039315223693847656
ell 489, elapsed: 0.00048089027404785156
ell 488, elapsed: 0.0003979206085205078
ell 487, elapsed: 0.0005071163177490234
ell 486, elapsed: 0.0005700588226318359
ell 485, elapsed: 0.0006341934204101562
ell 484, elapsed: 0.00039196014404296875
ell 483, elapsed: 0.0004830360412597656
ell 482, elapsed: 0.0003960132598876953
ell 481, elapsed: 0.0006358623504638672
ell 480, elapsed: 0.0004940032958984375
ell 479, elapsed: 0.0005910396575927734
ell 478, elapsed: 0.0005209445953369141
ell 477, elapsed: 0.0004990100860595703
ell 476, elapsed: 0.00039696693420410156
ell 475, elapsed: 0.0004858970642089844
ell 474, elapsed: 0.00038695335388183594
ell 473, elapsed: 0.0004870891571044922
ell 472, elapsed: 0.0004150867462158203
ell 471, elapsed: 0.0006730556488037109
ell 470, elapsed: 0.0004379749298095703
ell 469, elapsed: 0.0004749298095703125
ell 468, elapsed: 0.00039196014404296875
ell 467, elapsed: 0.00047707557678222656
ell 466, elapsed: 0.0003948211669921875
ell 465, elapsed: 0.0005040168762207031
ell 464, elapsed: 0.00040912628173828125
ell 463, elapsed: 0.00048613548278808594
ell 462, elapsed: 0.00039505958557128906
ell 461, elapsed: 0.0004858970642089844
ell 460, elapsed: 0.00039505958557128906
ell 459, elapsed: 0.0004820823669433594
ell 458, elapsed: 0.00039196014404296875
ell 457, elapsed: 0.00048804283142089844
ell 456, elapsed: 0.0004000663757324219
ell 455, elapsed: 0.0005099773406982422
ell 454, elapsed: 0.00039887428283691406
ell 453, elapsed: 0.0004899501800537109
ell 452, elapsed: 0.0003981590270996094
ell 451, elapsed: 0.0004889965057373047
ell 450, elapsed: 0.0004000663757324219
ell 449, elapsed: 0.0004901885986328125
ell 448, elapsed: 0.00039696693420410156
ell 447, elapsed: 0.0004999637603759766
ell 446, elapsed: 0.0004031658172607422
ell 445, elapsed: 0.0005021095275878906
ell 444, elapsed: 0.0004038810729980469
ell 443, elapsed: 0.0004918575286865234
ell 442, elapsed: 0.0003991127014160156
ell 441, elapsed: 0.0005021095275878906
ell 440, elapsed: 0.0004010200500488281
ell 439, elapsed: 0.0007488727569580078
ell 438, elapsed: 0.00051116943359375
ell 437, elapsed: 0.000701904296875
ell 436, elapsed: 0.0006210803985595703
ell 435, elapsed: 0.0006401538848876953
ell 434, elapsed: 0.00040602684020996094
ell 433, elapsed: 0.0005121231079101562
ell 432, elapsed: 0.0004000663757324219
ell 431, elapsed: 0.0004889965057373047
ell 430, elapsed: 0.0004000663757324219
ell 429, elapsed: 0.00048613548278808594
ell 428, elapsed: 0.00039505958557128906
ell 427, elapsed: 0.0004870891571044922
ell 426, elapsed: 0.0003991127014160156
ell 425, elapsed: 0.0004980564117431641
ell 424, elapsed: 0.0004048347473144531
ell 423, elapsed: 0.00048804283142089844
ell 422, elapsed: 0.00039315223693847656
ell 421, elapsed: 0.00048804283142089844
ell 420, elapsed: 0.00039696693420410156
ell 419, elapsed: 0.00048613548278808594
ell 418, elapsed: 0.0004048347473144531
ell 417, elapsed: 0.0004839897155761719
ell 416, elapsed: 0.0004630088806152344
ell 415, elapsed: 0.0007450580596923828
ell 414, elapsed: 0.00040793418884277344
ell 413, elapsed: 0.0004980564117431641
ell 412, elapsed: 0.0005290508270263672
ell 411, elapsed: 0.0006070137023925781
ell 410, elapsed: 0.0004010200500488281
ell 409, elapsed: 0.0005178451538085938
ell 408, elapsed: 0.0004000663757324219
ell 407, elapsed: 0.000492095947265625
ell 406, elapsed: 0.00039696693420410156
ell 405, elapsed: 0.0004980564117431641
ell 404, elapsed: 0.0003991127014160156
ell 403, elapsed: 0.0004930496215820312
ell 402, elapsed: 0.0003972053527832031
ell 401, elapsed: 0.0005178451538085938
ell 400, elapsed: 0.0003991127014160156
ell 399, elapsed: 0.0004940032958984375
ell 398, elapsed: 0.00039505958557128906
ell 397, elapsed: 0.0004799365997314453
ell 396, elapsed: 0.00039887428283691406
ell 395, elapsed: 0.0004990100860595703
ell 394, elapsed: 0.0005600452423095703
ell 393, elapsed: 0.0005948543548583984
ell 392, elapsed: 0.0005700588226318359
ell 391, elapsed: 0.0005819797515869141
ell 390, elapsed: 0.00039505958557128906
ell 389, elapsed: 0.0004839897155761719
ell 388, elapsed: 0.00038814544677734375
ell 387, elapsed: 0.0004718303680419922
ell 386, elapsed: 0.000392913818359375
ell 385, elapsed: 0.0004980564117431641
ell 384, elapsed: 0.0004010200500488281
ell 383, elapsed: 0.0005011558532714844
ell 382, elapsed: 0.0004069805145263672
ell 381, elapsed: 0.0005021095275878906
ell 380, elapsed: 0.00039577484130859375
ell 379, elapsed: 0.0004909038543701172
ell 378, elapsed: 0.0003921985626220703
ell 377, elapsed: 0.0005071163177490234
ell 376, elapsed: 0.00039005279541015625
ell 375, elapsed: 0.0004889965057373047
ell 374, elapsed: 0.0003991127014160156
ell 373, elapsed: 0.0005011558532714844
ell 372, elapsed: 0.00039696693420410156
ell 371, elapsed: 0.0004849433898925781
ell 370, elapsed: 0.0004029273986816406
ell 369, elapsed: 0.0005059242248535156
ell 368, elapsed: 0.00039315223693847656
ell 367, elapsed: 0.00047898292541503906
ell 366, elapsed: 0.00038909912109375
ell 365, elapsed: 0.0004780292510986328
ell 364, elapsed: 0.0005590915679931641
ell 363, elapsed: 0.0006039142608642578
ell 362, elapsed: 0.0003981590270996094
ell 361, elapsed: 0.0005080699920654297
ell 360, elapsed: 0.0004010200500488281
ell 359, elapsed: 0.0004811286926269531
ell 358, elapsed: 0.00039505958557128906
ell 357, elapsed: 0.0004911422729492188
ell 356, elapsed: 0.00039386749267578125
ell 355, elapsed: 0.0004730224609375
ell 354, elapsed: 0.00039315223693847656
ell 353, elapsed: 0.00047898292541503906
ell 352, elapsed: 0.0004119873046875
ell 351, elapsed: 0.0004980564117431641
ell 350, elapsed: 0.0003972053527832031
ell 349, elapsed: 0.0004851818084716797
ell 348, elapsed: 0.0003910064697265625
ell 347, elapsed: 0.0004930496215820312
ell 346, elapsed: 0.0003991127014160156
ell 345, elapsed: 0.0004849433898925781
ell 344, elapsed: 0.00041604042053222656
ell 343, elapsed: 0.0004930496215820312
ell 342, elapsed: 0.00039196014404296875
ell 341, elapsed: 0.0004839897155761719
ell 340, elapsed: 0.0003979206085205078
ell 339, elapsed: 0.0004961490631103516
ell 338, elapsed: 0.00039386749267578125
ell 337, elapsed: 0.0005009174346923828
ell 336, elapsed: 0.0004119873046875
ell 335, elapsed: 0.0005090236663818359
ell 334, elapsed: 0.0004019737243652344
ell 333, elapsed: 0.0004990100860595703
ell 332, elapsed: 0.0003910064697265625
ell 331, elapsed: 0.0004951953887939453
ell 330, elapsed: 0.000392913818359375
ell 329, elapsed: 0.0004949569702148438
ell 328, elapsed: 0.00039696693420410156
ell 327, elapsed: 0.0004918575286865234
ell 326, elapsed: 0.00039696693420410156
ell 325, elapsed: 0.0004971027374267578
ell 324, elapsed: 0.0003991127014160156
ell 323, elapsed: 0.0005028247833251953
ell 322, elapsed: 0.0003991127014160156
ell 321, elapsed: 0.0004930496215820312
ell 320, elapsed: 0.0004010200500488281
ell 319, elapsed: 0.000514984130859375
ell 318, elapsed: 0.0004010200500488281
ell 317, elapsed: 0.00048804283142089844
ell 316, elapsed: 0.0003910064697265625
ell 315, elapsed: 0.0004811286926269531
ell 314, elapsed: 0.0003921985626220703
ell 313, elapsed: 0.0004839897155761719
ell 312, elapsed: 0.0003941059112548828
ell 311, elapsed: 0.0005030632019042969
ell 310, elapsed: 0.0003960132598876953
ell 309, elapsed: 0.0004940032958984375
ell 308, elapsed: 0.0004029273986816406
ell 307, elapsed: 0.000492095947265625
ell 306, elapsed: 0.0004050731658935547
ell 305, elapsed: 0.0004968643188476562
ell 304, elapsed: 0.00040602684020996094
ell 303, elapsed: 0.0005140304565429688
ell 302, elapsed: 0.0004010200500488281
ell 301, elapsed: 0.0004889965057373047
ell 300, elapsed: 0.00039887428283691406
ell 299, elapsed: 0.0004849433898925781
ell 298, elapsed: 0.0003960132598876953
ell 297, elapsed: 0.000492095947265625
ell 296, elapsed: 0.0003981590270996094
ell 295, elapsed: 0.000492095947265625
ell 294, elapsed: 0.0004010200500488281
ell 293, elapsed: 0.0004930496215820312
ell 292, elapsed: 0.0004000663757324219
ell 291, elapsed: 0.0004909038543701172
ell 290, elapsed: 0.00039887428283691406
ell 289, elapsed: 0.00048089027404785156
ell 288, elapsed: 0.00039887428283691406
ell 287, elapsed: 0.0004849433898925781
ell 286, elapsed: 0.0004680156707763672
ell 285, elapsed: 0.0004899501800537109
ell 284, elapsed: 0.0003979206085205078
ell 283, elapsed: 0.0004928112030029297
ell 282, elapsed: 0.0004019737243652344
ell 281, elapsed: 0.0005028247833251953
ell 280, elapsed: 0.0004019737243652344
ell 279, elapsed: 0.0004911422729492188
ell 278, elapsed: 0.0004210472106933594
ell 277, elapsed: 0.0004971027374267578
ell 276, elapsed: 0.0004010200500488281
ell 275, elapsed: 0.00049591064453125
ell 274, elapsed: 0.0004010200500488281
ell 273, elapsed: 0.0005061626434326172
ell 272, elapsed: 0.0004048347473144531
ell 271, elapsed: 0.0004949569702148438
ell 270, elapsed: 0.000431060791015625
ell 269, elapsed: 0.0004911422729492188
ell 268, elapsed: 0.00040411949157714844
ell 267, elapsed: 0.000492095947265625
ell 266, elapsed: 0.0004038810729980469
ell 265, elapsed: 0.000492095947265625
ell 264, elapsed: 0.0004000663757324219
ell 263, elapsed: 0.0004899501800537109
ell 262, elapsed: 0.00041604042053222656
ell 261, elapsed: 0.0004987716674804688
ell 260, elapsed: 0.00039696693420410156
ell 259, elapsed: 0.0005171298980712891
ell 258, elapsed: 0.0004050731658935547
ell 257, elapsed: 0.0004911422729492188
ell 256, elapsed: 0.00039386749267578125
ell 255, elapsed: 0.0004839897155761719
ell 254, elapsed: 0.00040411949157714844
ell 253, elapsed: 0.0005121231079101562
ell 252, elapsed: 0.0003979206085205078
ell 251, elapsed: 0.0004889965057373047
ell 250, elapsed: 0.00039196014404296875
ell 249, elapsed: 0.0004711151123046875
ell 248, elapsed: 0.0003859996795654297
ell 247, elapsed: 0.0004718303680419922
ell 246, elapsed: 0.0003910064697265625
ell 245, elapsed: 0.0005040168762207031
ell 244, elapsed: 0.00038886070251464844
ell 243, elapsed: 0.0004968643188476562
ell 242, elapsed: 0.0004210472106933594
ell 241, elapsed: 0.0005021095275878906
ell 240, elapsed: 0.0004050731658935547
ell 239, elapsed: 0.0006659030914306641
ell 238, elapsed: 0.0006110668182373047
ell 237, elapsed: 0.0005800724029541016
ell 236, elapsed: 0.00039196014404296875
ell 235, elapsed: 0.00047898292541503906
ell 234, elapsed: 0.0003859996795654297
ell 233, elapsed: 0.00047898292541503906
ell 232, elapsed: 0.0003972053527832031
ell 231, elapsed: 0.0004801750183105469
ell 230, elapsed: 0.0004010200500488281
ell 229, elapsed: 0.0005090236663818359
ell 228, elapsed: 0.0003991127014160156
ell 227, elapsed: 0.0004849433898925781
ell 226, elapsed: 0.00039196014404296875
ell 225, elapsed: 0.00048804283142089844
ell 224, elapsed: 0.00038909912109375
ell 223, elapsed: 0.000598907470703125
ell 222, elapsed: 0.0004949569702148438
ell 221, elapsed: 0.0004820823669433594
ell 220, elapsed: 0.00039386749267578125
ell 219, elapsed: 0.0004799365997314453
ell 218, elapsed: 0.0003948211669921875
ell 217, elapsed: 0.0004899501800537109
ell 216, elapsed: 0.0003960132598876953
ell 215, elapsed: 0.0004870891571044922
ell 214, elapsed: 0.0003960132598876953
ell 213, elapsed: 0.0005011558532714844
ell 212, elapsed: 0.0004019737243652344
ell 211, elapsed: 0.0004868507385253906
ell 210, elapsed: 0.0004010200500488281
ell 209, elapsed: 0.0004951953887939453
ell 208, elapsed: 0.00039887428283691406
ell 207, elapsed: 0.0004878044128417969
ell 206, elapsed: 0.00039696693420410156
ell 205, elapsed: 0.0005049705505371094
ell 204, elapsed: 0.0003960132598876953
ell 203, elapsed: 0.0004889965057373047
ell 202, elapsed: 0.0004010200500488281
ell 201, elapsed: 0.0004899501800537109
ell 200, elapsed: 0.0003921985626220703
ell 199, elapsed: 0.0004839897155761719
ell 198, elapsed: 0.0003981590270996094
ell 197, elapsed: 0.0005059242248535156
ell 196, elapsed: 0.00039696693420410156
ell 195, elapsed: 0.0004951953887939453
ell 194, elapsed: 0.0003979206085205078
ell 193, elapsed: 0.0004849433898925781
ell 192, elapsed: 0.0005061626434326172
ell 191, elapsed: 0.0006361007690429688
ell 190, elapsed: 0.0004050731658935547
ell 189, elapsed: 0.0005238056182861328
ell 188, elapsed: 0.0004050731658935547
ell 187, elapsed: 0.00048279762268066406
ell 186, elapsed: 0.0004019737243652344
ell 185, elapsed: 0.0004940032958984375
ell 184, elapsed: 0.0003998279571533203
ell 183, elapsed: 0.00048613548278808594
ell 182, elapsed: 0.00039005279541015625
ell 181, elapsed: 0.0004868507385253906
ell 180, elapsed: 0.00039505958557128906
ell 179, elapsed: 0.0004899501800537109
ell 178, elapsed: 0.0003979206085205078
ell 177, elapsed: 0.0004930496215820312
ell 176, elapsed: 0.0004029273986816406
ell 175, elapsed: 0.0004940032958984375
ell 174, elapsed: 0.0003981590270996094
ell 173, elapsed: 0.0004911422729492188
ell 172, elapsed: 0.00041103363037109375
ell 171, elapsed: 0.0004839897155761719
ell 170, elapsed: 0.0004990100860595703
ell 169, elapsed: 0.0006289482116699219
ell 168, elapsed: 0.0005340576171875
ell 167, elapsed: 0.0005950927734375
ell 166, elapsed: 0.0004010200500488281
ell 165, elapsed: 0.0005121231079101562
ell 164, elapsed: 0.0003979206085205078
ell 163, elapsed: 0.0005400180816650391
ell 162, elapsed: 0.0005950927734375
ell 161, elapsed: 0.0004968643188476562
ell 160, elapsed: 0.00040984153747558594
ell 159, elapsed: 0.0005009174346923828
ell 158, elapsed: 0.0004029273986816406
ell 157, elapsed: 0.0005021095275878906
ell 156, elapsed: 0.0003981590270996094
ell 155, elapsed: 0.0004999637603759766
ell 154, elapsed: 0.00041604042053222656
ell 153, elapsed: 0.0005030632019042969
ell 152, elapsed: 0.0005509853363037109
ell 151, elapsed: 0.0005748271942138672
ell 150, elapsed: 0.0004088878631591797
ell 149, elapsed: 0.0004780292510986328
ell 148, elapsed: 0.0003960132598876953
ell 147, elapsed: 0.00048804283142089844
ell 146, elapsed: 0.000408172607421875
ell 145, elapsed: 0.0004780292510986328
ell 144, elapsed: 0.0003921985626220703
ell 143, elapsed: 0.0004990100860595703
ell 142, elapsed: 0.0003979206085205078
ell 141, elapsed: 0.0004980564117431641
ell 140, elapsed: 0.00039505958557128906
ell 139, elapsed: 0.0004868507385253906
ell 138, elapsed: 0.0003960132598876953
ell 137, elapsed: 0.0004858970642089844
ell 136, elapsed: 0.0003998279571533203
ell 135, elapsed: 0.0004820823669433594
ell 134, elapsed: 0.00039887428283691406
ell 133, elapsed: 0.0005030632019042969
ell 132, elapsed: 0.0003991127014160156
ell 131, elapsed: 0.000492095947265625
ell 130, elapsed: 0.000392913818359375
ell 129, elapsed: 0.0004818439483642578
ell 128, elapsed: 0.0003979206085205078
ell 127, elapsed: 0.000492095947265625
ell 126, elapsed: 0.0004000663757324219
ell 125, elapsed: 0.0005030632019042969
ell 124, elapsed: 0.0003998279571533203
ell 123, elapsed: 0.0004868507385253906
ell 122, elapsed: 0.0003941059112548828
ell 121, elapsed: 0.0004849433898925781
ell 120, elapsed: 0.0003991127014160156
ell 119, elapsed: 0.0004870891571044922
ell 118, elapsed: 0.0003998279571533203
ell 117, elapsed: 0.0005140304565429688
ell 116, elapsed: 0.0003948211669921875
ell 115, elapsed: 0.0004889965057373047
ell 114, elapsed: 0.0003981590270996094
ell 113, elapsed: 0.0004980564117431641
ell 112, elapsed: 0.0004050731658935547
ell 111, elapsed: 0.0005011558532714844
ell 110, elapsed: 0.0003948211669921875
ell 109, elapsed: 0.0004980564117431641
ell 108, elapsed: 0.0004119873046875
ell 107, elapsed: 0.0004870891571044922
ell 106, elapsed: 0.0003979206085205078
ell 105, elapsed: 0.0004870891571044922
ell 104, elapsed: 0.0003979206085205078
ell 103, elapsed: 0.0004978179931640625
ell 102, elapsed: 0.00039887428283691406
ell 101, elapsed: 0.00049591064453125
ell 100, elapsed: 0.00042700767517089844
ell 99, elapsed: 0.0004971027374267578
ell 98, elapsed: 0.00039505958557128906
ell 97, elapsed: 0.0004839897155761719
ell 96, elapsed: 0.0004010200500488281
ell 95, elapsed: 0.0004930496215820312
ell 94, elapsed: 0.0003991127014160156
ell 93, elapsed: 0.0004968643188476562
ell 92, elapsed: 0.00041794776916503906
ell 91, elapsed: 0.0004978179931640625
ell 90, elapsed: 0.0003979206085205078
ell 89, elapsed: 0.0004999637603759766
ell 88, elapsed: 0.0003960132598876953
ell 87, elapsed: 0.0004909038543701172
ell 86, elapsed: 0.0004019737243652344
ell 85, elapsed: 0.0004940032958984375
ell 84, elapsed: 0.0004088878631591797
ell 83, elapsed: 0.0005080699920654297
ell 82, elapsed: 0.0004000663757324219
ell 81, elapsed: 0.0005049705505371094
ell 80, elapsed: 0.0004019737243652344
ell 79, elapsed: 0.0005040168762207031
ell 78, elapsed: 0.0004000663757324219
ell 77, elapsed: 0.0005171298980712891
ell 76, elapsed: 0.0004210472106933594
ell 75, elapsed: 0.000492095947265625
ell 74, elapsed: 0.0004050731658935547
ell 73, elapsed: 0.0005340576171875
ell 72, elapsed: 0.00039505958557128906
ell 71, elapsed: 0.00048804283142089844
ell 70, elapsed: 0.0004029273986816406
ell 69, elapsed: 0.0005109310150146484
ell 68, elapsed: 0.0004000663757324219
ell 67, elapsed: 0.0005068778991699219
ell 66, elapsed: 0.0004019737243652344
ell 65, elapsed: 0.0004792213439941406
ell 64, elapsed: 0.00039005279541015625
ell 63, elapsed: 0.0004878044128417969
ell 62, elapsed: 0.0003991127014160156
ell 61, elapsed: 0.0004928112030029297
ell 60, elapsed: 0.0004131793975830078
ell 59, elapsed: 0.0005121231079101562
ell 58, elapsed: 0.0004029273986816406
ell 57, elapsed: 0.0004930496215820312
ell 56, elapsed: 0.0005211830139160156
ell 55, elapsed: 0.0006129741668701172
ell 54, elapsed: 0.000392913818359375
ell 53, elapsed: 0.0004870891571044922
ell 52, elapsed: 0.00039505958557128906
ell 51, elapsed: 0.0005121231079101562
ell 50, elapsed: 0.0004019737243652344
ell 49, elapsed: 0.0005080699920654297
ell 48, elapsed: 0.00039005279541015625
ell 47, elapsed: 0.0004949569702148438
ell 46, elapsed: 0.0003960132598876953
ell 45, elapsed: 0.0005009174346923828
ell 44, elapsed: 0.0004119873046875
ell 43, elapsed: 0.0005137920379638672
ell 42, elapsed: 0.0004038810729980469
ell 41, elapsed: 0.0005068778991699219
ell 40, elapsed: 0.0004050731658935547
ell 39, elapsed: 0.0005040168762207031
ell 38, elapsed: 0.0004010200500488281
ell 37, elapsed: 0.0004971027374267578
ell 36, elapsed: 0.0004239082336425781
ell 35, elapsed: 0.0005230903625488281
ell 34, elapsed: 0.0003960132598876953
ell 33, elapsed: 0.0006511211395263672
ell 32, elapsed: 0.0004680156707763672
ell 31, elapsed: 0.0005009174346923828
ell 30, elapsed: 0.0004010200500488281
ell 29, elapsed: 0.0004940032958984375
ell 28, elapsed: 0.0004029273986816406
ell 27, elapsed: 0.0005099773406982422
ell 26, elapsed: 0.0004100799560546875
ell 25, elapsed: 0.0005068778991699219
ell 24, elapsed: 0.0004038810729980469
ell 23, elapsed: 0.0005059242248535156
ell 22, elapsed: 0.00040984153747558594
ell 21, elapsed: 0.0004990100860595703
ell 20, elapsed: 0.00040411949157714844
ell 19, elapsed: 0.0005059242248535156
ell 18, elapsed: 0.00040602684020996094
ell 17, elapsed: 0.0005171298980712891
ell 16, elapsed: 0.0004031658172607422
ell 15, elapsed: 0.0004999637603759766
ell 14, elapsed: 0.00041103363037109375
ell 13, elapsed: 0.0004990100860595703
ell 12, elapsed: 0.00041103363037109375
ell 11, elapsed: 0.0005350112915039062
ell 10, elapsed: 0.0004000663757324219
ell 9, elapsed: 0.0005009174346923828
ell 8, elapsed: 0.00041103363037109375
ell 7, elapsed: 0.0004980564117431641
ell 6, elapsed: 0.0004000663757324219
ell 5, elapsed: 0.0004990100860595703
ell 4, elapsed: 0.0003960132598876953
ell 3, elapsed: 0.0005090236663818359
ell 2, elapsed: 0.00040602684020996094
ell 1, elapsed: 0.0004899501800537109
ell 0, elapsed: 0.0004220008850097656
  0.646044 seconds (41.19 k allocations: 2.939 MiB)
elapsed: 0.0006210803985595703
step:          0.062981 sec (0 allocations: 0 byte, 0.0% gc time)
swapping:      0.000879 sec (0 allocations: 0 byte, 0.0% gc time)
calc_Mellell!: 0.010584 sec (0 allocations: 0 byte, 0.0% gc time)
  t0 :  0.002954 sec (0 allocations: 0 byte, 0.0% gc time)
  tm2 : 0.09384 sec (0 allocations: 0 byte, 0.0% gc time)
  tm2s: 0.001981 sec (0 allocations: 0 byte, 0.0% gc time)
  tm4 : 0.248174 sec (0 allocations: 0 byte, 0.0% gc time)
  tp2 : 0.0 sec (0 allocations: 0 byte, 0.0% gc time)
  tp2s: 0.0 sec (0 allocations: 0 byte, 0.0% gc time)
  tp4 : 0.0 sec (0 allocations: 0 byte, 0.0% gc time)
calc_wtdll!:   0.365175 sec (9.87 k allocations: 1.043 MB, 0.0% gc time)
calc_wljj!:    0.040403 sec (689 allocations: 10.766 KB, 0.0% gc time)
mult_prefac!:  0.0 sec (0 allocations: 0 byte, 0.0% gc time)
convert:       0.0 sec (0 allocations: 0 byte, 0.0% gc time)
write:         0.059669 sec (0 allocations: 0 byte, 0.0% gc time)
test_rand_2f1: 0.0 sec (0 allocations: 0 byte, 0.0% gc time)
Closing outfile out/Ml21-cache.bin...   0.022318 seconds
  0.000531 seconds (52 allocations: 28.297 KiB)
make_phi():   0.002656 seconds (8.20 k allocations: 238.016 KiB)
  0.186795 seconds (146.69 k allocations: 3.629 MiB)
tskip:       0.001004 sec (0 allocations: 0 byte, 0.0% gc time)
tread:       0.025061 sec (19 allocations: 10.688 KB, 0.0% gc time)
tmultphi:    0.014373 sec (0 allocations: 0 byte, 0.0% gc time)
tbrfft:      0.045995 sec (9.592 k allocations: 449.625 KB, 0.0% gc time)
tmultprefac: 0.041457 sec (0 allocations: 0 byte, 0.0% gc time)
toutfunc:    0.056905 sec (129.905 k allocations: 2.421 MB, 0.0% gc time)
Testing R=1.0 ... passed
Calculating fmax: 
  dlrec    = 4
  dlrecRg1 = -4
  q=1.1, R=0.9:	  0.439603 seconds (116.47 k allocations: 15.614 MiB)

  0.439874 seconds (116.50 k allocations: 15.647 MiB)
ℓ = 1202
Δℓ = 4
ΔℓRg1 = -4
N = 1600
q = 1.1
kmin = 1.0e-5
kmax = 100000.00000000004
χ0 = 0.023029999999999995
RR = RR.tsv
ℓmax = ℓmax.bin
f21 = f21.bin
kmin = 1.0e-5
kmax = 100000.0
dlrec    = 4
dlrecRg1 = -4
Output size: 5741568 bytes = 0.005347251892089844 GiB
Output size: 51264 bytes = 4.774332046508789e-5 GiB
Reading 'out/F21EllCache'...   0.001115 seconds (267 allocations: 84.656 KiB)
ellmax: 1202
lmaxcache: 1202
fell[:,1,1] = Complex{Float64}[1.3482014726274674e-57 - 3.302141236118086e-73im, 1.357860004724329e-57 - 3.3257978169518355e-73im]
ell 1202, elapsed: 2.3126602172851562e-5
ell 1201, elapsed: 0.0004601478576660156
ell 1200, elapsed: 0.0005929470062255859
ell 1199, elapsed: 0.0005910396575927734
ell 1198, elapsed: 0.0005919933319091797
ell 1002, elapsed: 0.010402917861938477
ell 1001, elapsed: 0.0004849433898925781
ell 1000, elapsed: 0.0005469322204589844
ell 999, elapsed: 0.0005490779876708984
ell 998, elapsed: 0.0005090236663818359
ell 902, elapsed: 0.0055201053619384766
ell 901, elapsed: 0.0004551410675048828
ell 900, elapsed: 0.0005559921264648438
ell 899, elapsed: 0.0005030632019042969
ell 898, elapsed: 0.00035381317138671875
ell 802, elapsed: 0.005502939224243164
ell 801, elapsed: 0.00036406517028808594
ell 800, elapsed: 0.00034999847412109375
ell 799, elapsed: 0.00049591064453125
ell 798, elapsed: 0.0004990100860595703
ell 702, elapsed: 0.00563502311706543
ell 701, elapsed: 0.0005049705505371094
ell 700, elapsed: 0.0004918575286865234
ell 699, elapsed: 0.00046181678771972656
ell 698, elapsed: 0.000576019287109375
ell 602, elapsed: 0.0057408809661865234
ell 601, elapsed: 0.0003750324249267578
ell 600, elapsed: 0.0003521442413330078
ell 599, elapsed: 0.00034999847412109375
ell 598, elapsed: 0.00034999847412109375
ell 502, elapsed: 0.004739046096801758
ell 501, elapsed: 0.00043892860412597656
ell 500, elapsed: 0.000553131103515625
ell 499, elapsed: 0.0005691051483154297
ell 498, elapsed: 0.0005519390106201172
ell 402, elapsed: 0.0050890445709228516
ell 401, elapsed: 0.0003809928894042969
ell 400, elapsed: 0.00035190582275390625
ell 399, elapsed: 0.00047898292541503906
ell 398, elapsed: 0.0006330013275146484
ell 302, elapsed: 0.005187034606933594
ell 301, elapsed: 0.000392913818359375
ell 300, elapsed: 0.00036787986755371094
ell 299, elapsed: 0.0003619194030761719
ell 298, elapsed: 0.0003628730773925781
ell 202, elapsed: 0.0049800872802734375
ell 201, elapsed: 0.00037407875061035156
ell 200, elapsed: 0.0004069805145263672
ell 199, elapsed: 0.0005447864532470703
ell 198, elapsed: 0.00036406517028808594
ell 152, elapsed: 0.002666950225830078
ell 151, elapsed: 0.0003540515899658203
ell 150, elapsed: 0.0003390312194824219
ell 149, elapsed: 0.0005121231079101562
ell 148, elapsed: 0.0004680156707763672
ell 127, elapsed: 0.001550912857055664
ell 126, elapsed: 0.00037407875061035156
ell 125, elapsed: 0.00043201446533203125
ell 124, elapsed: 0.0005328655242919922
ell 123, elapsed: 0.0004220008850097656
ell 114, elapsed: 0.0009207725524902344
ell 113, elapsed: 0.0003638267517089844
ell 112, elapsed: 0.0003590583801269531
ell 111, elapsed: 0.000370025634765625
ell 110, elapsed: 0.0003619194030761719
ell 102, elapsed: 0.0010790824890136719
ell 101, elapsed: 0.00037384033203125
ell 100, elapsed: 0.0003528594970703125
ell 99, elapsed: 0.0003528594970703125
ell 98, elapsed: 0.0003399848937988281
ell 97, elapsed: 0.00037479400634765625
ell 96, elapsed: 0.0007309913635253906
ell 95, elapsed: 0.0004429817199707031
ell 94, elapsed: 0.0004928112030029297
ell 93, elapsed: 0.00040912628173828125
ell 92, elapsed: 0.0004851818084716797
ell 91, elapsed: 0.00039386749267578125
ell 90, elapsed: 0.0004570484161376953
ell 89, elapsed: 0.00037407875061035156
ell 88, elapsed: 0.0006690025329589844
ell 87, elapsed: 0.00044798851013183594
ell 86, elapsed: 0.000492095947265625
ell 85, elapsed: 0.0005209445953369141
ell 84, elapsed: 0.000637054443359375
ell 83, elapsed: 0.0004911422729492188
ell 82, elapsed: 0.0006389617919921875
ell 81, elapsed: 0.00038886070251464844
ell 80, elapsed: 0.0006051063537597656
ell 79, elapsed: 0.0006010532379150391
ell 78, elapsed: 0.0006661415100097656
ell 77, elapsed: 0.0004010200500488281
ell 76, elapsed: 0.0004799365997314453
ell 75, elapsed: 0.0003910064697265625
ell 74, elapsed: 0.0005140304565429688
ell 73, elapsed: 0.0003769397735595703
ell 72, elapsed: 0.0004570484161376953
ell 71, elapsed: 0.00039005279541015625
ell 70, elapsed: 0.00047206878662109375
ell 69, elapsed: 0.00039505958557128906
ell 68, elapsed: 0.00044798851013183594
ell 67, elapsed: 0.0003859996795654297
ell 66, elapsed: 0.00047087669372558594
ell 65, elapsed: 0.0004100799560546875
ell 64, elapsed: 0.0004799365997314453
ell 63, elapsed: 0.000392913818359375
ell 62, elapsed: 0.00047397613525390625
ell 61, elapsed: 0.0004711151123046875
ell 60, elapsed: 0.0006539821624755859
ell 59, elapsed: 0.0005259513854980469
ell 58, elapsed: 0.0006120204925537109
ell 57, elapsed: 0.00039696693420410156
ell 56, elapsed: 0.00047898292541503906
ell 55, elapsed: 0.00039196014404296875
ell 54, elapsed: 0.0004839897155761719
ell 53, elapsed: 0.0003910064697265625
ell 52, elapsed: 0.0004780292510986328
ell 51, elapsed: 0.0003941059112548828
ell 50, elapsed: 0.00047588348388671875
ell 49, elapsed: 0.00041413307189941406
ell 48, elapsed: 0.00047898292541503906
ell 47, elapsed: 0.00039505958557128906
ell 46, elapsed: 0.0004799365997314453
ell 45, elapsed: 0.00039005279541015625
ell 44, elapsed: 0.0004818439483642578
ell 43, elapsed: 0.0003941059112548828
ell 42, elapsed: 0.0004711151123046875
ell 41, elapsed: 0.00039505958557128906
ell 40, elapsed: 0.0004820823669433594
ell 39, elapsed: 0.00039696693420410156
ell 38, elapsed: 0.0004811286926269531
ell 37, elapsed: 0.0003910064697265625
ell 36, elapsed: 0.00048089027404785156
ell 35, elapsed: 0.00039386749267578125
ell 34, elapsed: 0.00047898292541503906
ell 33, elapsed: 0.00039887428283691406
ell 32, elapsed: 0.0004930496215820312
ell 31, elapsed: 0.0003979206085205078
ell 30, elapsed: 0.0004780292510986328
ell 29, elapsed: 0.000392913818359375
ell 28, elapsed: 0.0004839897155761719
ell 27, elapsed: 0.0003960132598876953
ell 26, elapsed: 0.00049591064453125
ell 25, elapsed: 0.0004010200500488281
ell 24, elapsed: 0.0005061626434326172
ell 23, elapsed: 0.0003991127014160156
ell 22, elapsed: 0.0004849433898925781
ell 21, elapsed: 0.0003979206085205078
ell 20, elapsed: 0.000476837158203125
ell 19, elapsed: 0.0005419254302978516
ell 18, elapsed: 0.0005688667297363281
ell 17, elapsed: 0.0003981590270996094
ell 16, elapsed: 0.0006079673767089844
ell 15, elapsed: 0.0005009174346923828
ell 14, elapsed: 0.00047707557678222656
ell 13, elapsed: 0.00039196014404296875
ell 12, elapsed: 0.0004820823669433594
ell 11, elapsed: 0.0003829002380371094
ell 10, elapsed: 0.00045299530029296875
ell 9, elapsed: 0.00039196014404296875
ell 8, elapsed: 0.0004911422729492188
ell 7, elapsed: 0.0004010200500488281
ell 6, elapsed: 0.0006170272827148438
ell 5, elapsed: 0.00046896934509277344
ell 4, elapsed: 0.0004780292510986328
ell 3, elapsed: 0.00039505958557128906
ell 2, elapsed: 0.00047707557678222656
ell 1, elapsed: 0.00038886070251464844
ell 0, elapsed: 0.0006258487701416016
  0.136506 seconds (10.83 k allocations: 697.938 KiB)
elapsed: 0.0007610321044921875
step:          0.058808 sec (0 allocations: 0 byte, 0.0% gc time)
swapping:      0.000567 sec (0 allocations: 0 byte, 0.0% gc time)
calc_Mellell!: 0.00149 sec (0 allocations: 0 byte, 0.0% gc time)
  t0 :  0.000439 sec (0 allocations: 0 byte, 0.0% gc time)
  tm2 : 0.013995 sec (0 allocations: 0 byte, 0.0% gc time)
  tm2s: 0.000348 sec (0 allocations: 0 byte, 0.0% gc time)
  tm4 : 0.037749 sec (0 allocations: 0 byte, 0.0% gc time)
  tp2 : 0.0 sec (0 allocations: 0 byte, 0.0% gc time)
  tp2s: 0.0 sec (0 allocations: 0 byte, 0.0% gc time)
  tp4 : 0.0 sec (0 allocations: 0 byte, 0.0% gc time)
calc_wtdll!:   0.053107 sec (1.344 k allocations: 147.0 KB, 0.0% gc time)
calc_wljj!:    0.003862 sec (6 allocations: 96 byte, 0.0% gc time)
mult_prefac!:  0.0 sec (0 allocations: 0 byte, 0.0% gc time)
convert:       0.0 sec (0 allocations: 0 byte, 0.0% gc time)
write:         0.005723 sec (0 allocations: 0 byte, 0.0% gc time)
test_rand_2f1: 0.0 sec (0 allocations: 0 byte, 0.0% gc time)
Closing outfile out/Ml21-cache.bin...   0.004177 seconds
  0.000249 seconds (52 allocations: 28.297 KiB)
make_phi():   0.002500 seconds (8.20 k allocations: 238.016 KiB)
  0.015671 seconds (12.10 k allocations: 322.000 KiB)
tskip:       2.2e-5 sec (0 allocations: 0 byte, 0.0% gc time)
tread:       0.002368 sec (19 allocations: 2.172 KB, 0.0% gc time)
tmultphi:    0.001141 sec (0 allocations: 0 byte, 0.0% gc time)
tbrfft:      0.003926 sec (896 allocations: 42.0 KB, 0.0% gc time)
tmultprefac: 0.003417 sec (0 allocations: 0 byte, 0.0% gc time)
toutfunc:    0.004802 sec (10.528 k allocations: 206.5 KB, 0.0% gc time)
Testing R=0.9 ... passed
Calculating fmax: 
  dlrec    = 4
  dlrecRg1 = -4
  q=1.1, R=0.8:	  0.357514 seconds (113.61 k allocations: 15.166 MiB)

  0.357767 seconds (113.65 k allocations: 15.200 MiB)
ℓ = 1202
Δℓ = 4
ΔℓRg1 = -4
N = 1600
q = 1.1
kmin = 1.0e-5
kmax = 100000.00000000004
χ0 = 0.023029999999999995
RR = RR.tsv
ℓmax = ℓmax.bin
f21 = f21.bin
kmin = 1.0e-5
kmax = 100000.0
dlrec    = 4
dlrecRg1 = -4
Output size: 5741568 bytes = 0.005347251892089844 GiB
Output size: 51264 bytes = 4.774332046508789e-5 GiB
Reading 'out/F21EllCache'...   0.001070 seconds (267 allocations: 84.656 KiB)
ellmax: 1202
lmaxcache: 1202
fell[:,1,1] = Complex{Float64}[7.519068145690986e-120 - 1.8416405474382574e-135im, 7.541664537386155e-120 - 1.847175067190611e-135im]
ell 1202, elapsed: 3.0040740966796875e-5
ell 1201, elapsed: 0.0005850791931152344
ell 1200, elapsed: 0.0006120204925537109
ell 1199, elapsed: 0.0006110668182373047
ell 1198, elapsed: 0.0006210803985595703
ell 1002, elapsed: 0.010617971420288086
ell 1001, elapsed: 0.0004718303680419922
ell 1000, elapsed: 0.0005519390106201172
ell 999, elapsed: 0.0005609989166259766
ell 998, elapsed: 0.0005710124969482422
ell 902, elapsed: 0.0050280094146728516
ell 901, elapsed: 0.0005221366882324219
ell 900, elapsed: 0.0005519390106201172
ell 899, elapsed: 0.0005521774291992188
ell 898, elapsed: 0.0005450248718261719
ell 802, elapsed: 0.005599021911621094
ell 801, elapsed: 0.0005209445953369141
ell 800, elapsed: 0.0005478858947753906
ell 799, elapsed: 0.0005450248718261719
ell 798, elapsed: 0.0005578994750976562
ell 702, elapsed: 0.005342006683349609
ell 701, elapsed: 0.00049591064453125
ell 700, elapsed: 0.0005581378936767578
ell 699, elapsed: 0.0005500316619873047
ell 698, elapsed: 0.000553131103515625
ell 602, elapsed: 0.005156993865966797
ell 601, elapsed: 0.0003669261932373047
ell 600, elapsed: 0.0005030632019042969
ell 599, elapsed: 0.0005550384521484375
ell 598, elapsed: 0.0005519390106201172
ell 502, elapsed: 0.005053043365478516
ell 501, elapsed: 0.0004930496215820312
ell 500, elapsed: 0.00055694580078125
ell 499, elapsed: 0.0005609989166259766
ell 498, elapsed: 0.0005519390106201172
ell 402, elapsed: 0.005669116973876953
ell 401, elapsed: 0.0005049705505371094
ell 400, elapsed: 0.0005609989166259766
ell 399, elapsed: 0.0005509853363037109
ell 398, elapsed: 0.00055694580078125
ell 302, elapsed: 0.005318880081176758
ell 301, elapsed: 0.0003838539123535156
ell 300, elapsed: 0.0004889965057373047
ell 299, elapsed: 0.00044989585876464844
ell 298, elapsed: 0.00034618377685546875
ell 202, elapsed: 0.0047969818115234375
ell 201, elapsed: 0.0004951953887939453
ell 200, elapsed: 0.0005528926849365234
ell 199, elapsed: 0.0004830360412597656
ell 198, elapsed: 0.0003459453582763672
ell 152, elapsed: 0.002704143524169922
ell 151, elapsed: 0.0004429817199707031
ell 150, elapsed: 0.0005288124084472656
ell 149, elapsed: 0.00034809112548828125
ell 148, elapsed: 0.0004999637603759766
ell 127, elapsed: 0.0015680789947509766
ell 126, elapsed: 0.0003628730773925781
ell 125, elapsed: 0.00034689903259277344
ell 124, elapsed: 0.0003578662872314453
ell 123, elapsed: 0.00035190582275390625
ell 114, elapsed: 0.0012388229370117188
ell 113, elapsed: 0.0004749298095703125
ell 112, elapsed: 0.0005550384521484375
ell 111, elapsed: 0.0005450248718261719
ell 110, elapsed: 0.0005669593811035156
ell 102, elapsed: 0.0011229515075683594
ell 101, elapsed: 0.0003688335418701172
ell 100, elapsed: 0.0005311965942382812
ell 99, elapsed: 0.00042891502380371094
ell 98, elapsed: 0.0003559589385986328
ell 97, elapsed: 0.0004661083221435547
ell 96, elapsed: 0.0007579326629638672
ell 95, elapsed: 0.0006241798400878906
ell 94, elapsed: 0.0006940364837646484
ell 93, elapsed: 0.0004467964172363281
ell 92, elapsed: 0.0004630088806152344
ell 91, elapsed: 0.0003921985626220703
ell 90, elapsed: 0.0004680156707763672
ell 89, elapsed: 0.00040602684020996094
ell 88, elapsed: 0.0005810260772705078
ell 87, elapsed: 0.0006201267242431641
ell 86, elapsed: 0.0007281303405761719
ell 85, elapsed: 0.0006129741668701172
ell 84, elapsed: 0.0007240772247314453
ell 83, elapsed: 0.0006680488586425781
ell 82, elapsed: 0.0007410049438476562
ell 81, elapsed: 0.0006089210510253906
ell 80, elapsed: 0.0007319450378417969
ell 79, elapsed: 0.0006008148193359375
ell 78, elapsed: 0.0007560253143310547
ell 77, elapsed: 0.0006148815155029297
ell 76, elapsed: 0.0007238388061523438
ell 75, elapsed: 0.0006198883056640625
ell 74, elapsed: 0.0007290840148925781
ell 73, elapsed: 0.0006208419799804688
ell 72, elapsed: 0.0007500648498535156
ell 71, elapsed: 0.0006058216094970703
ell 70, elapsed: 0.0007331371307373047
ell 69, elapsed: 0.0006120204925537109
ell 68, elapsed: 0.0007219314575195312
ell 67, elapsed: 0.0006339550018310547
ell 66, elapsed: 0.0007369518280029297
ell 65, elapsed: 0.0006120204925537109
ell 64, elapsed: 0.0007290840148925781
ell 63, elapsed: 0.0006139278411865234
ell 62, elapsed: 0.0007479190826416016
ell 61, elapsed: 0.0006830692291259766
ell 60, elapsed: 0.0007290840148925781
ell 59, elapsed: 0.0004849433898925781
ell 58, elapsed: 0.0006690025329589844
ell 57, elapsed: 0.0006029605865478516
ell 56, elapsed: 0.0007650852203369141
ell 55, elapsed: 0.0006229877471923828
ell 54, elapsed: 0.0007278919219970703
ell 53, elapsed: 0.0006158351898193359
ell 52, elapsed: 0.0007371902465820312
ell 51, elapsed: 0.0005409717559814453
ell 50, elapsed: 0.0007550716400146484
ell 49, elapsed: 0.0006239414215087891
ell 48, elapsed: 0.0006241798400878906
ell 47, elapsed: 0.0005538463592529297
ell 46, elapsed: 0.0007340908050537109
ell 45, elapsed: 0.0006330013275146484
ell 44, elapsed: 0.0007300376892089844
ell 43, elapsed: 0.0004410743713378906
ell 42, elapsed: 0.0004360675811767578
ell 41, elapsed: 0.0003669261932373047
ell 40, elapsed: 0.00043702125549316406
ell 39, elapsed: 0.0003609657287597656
ell 38, elapsed: 0.00043201446533203125
ell 37, elapsed: 0.0003590583801269531
ell 36, elapsed: 0.0004470348358154297
ell 35, elapsed: 0.0005669593811035156
ell 34, elapsed: 0.0007190704345703125
ell 33, elapsed: 0.0006120204925537109
ell 32, elapsed: 0.0007259845733642578
ell 31, elapsed: 0.00061798095703125
ell 30, elapsed: 0.0007798671722412109
ell 29, elapsed: 0.0005021095275878906
ell 28, elapsed: 0.00067901611328125
ell 27, elapsed: 0.00047898292541503906
ell 26, elapsed: 0.0006968975067138672
ell 25, elapsed: 0.0006301403045654297
ell 24, elapsed: 0.0007538795471191406
ell 23, elapsed: 0.0006151199340820312
ell 22, elapsed: 0.0007338523864746094
ell 21, elapsed: 0.0006210803985595703
ell 20, elapsed: 0.0007269382476806641
ell 19, elapsed: 0.0006210803985595703
ell 18, elapsed: 0.0007331371307373047
ell 17, elapsed: 0.0006191730499267578
ell 16, elapsed: 0.0006108283996582031
[...]
ell 788, elapsed: 0.0008139610290527344
ell 782, elapsed: 0.0015947818756103516
ell 781, elapsed: 0.0008339881896972656
ell 780, elapsed: 0.0008320808410644531
ell 779, elapsed: 0.0008459091186523438
ell 778, elapsed: 0.0008349418640136719
ell 772, elapsed: 0.0015859603881835938
ell 771, elapsed: 0.0008440017700195312
ell 770, elapsed: 0.0008530616760253906
ell 769, elapsed: 0.0008349418640136719
ell 768, elapsed: 0.0008349418640136719
ell 762, elapsed: 0.0015840530395507812
ell 761, elapsed: 0.0008530616760253906
ell 760, elapsed: 0.0008418560028076172
ell 759, elapsed: 0.000843048095703125
ell 758, elapsed: 0.0008409023284912109
ell 752, elapsed: 0.0016720294952392578
ell 751, elapsed: 0.0008301734924316406
ell 750, elapsed: 0.0007848739624023438
ell 749, elapsed: 0.0008490085601806641
ell 748, elapsed: 0.0008800029754638672
ell 742, elapsed: 0.0017650127410888672
ell 741, elapsed: 0.0008070468902587891
ell 740, elapsed: 0.0008080005645751953
ell 739, elapsed: 0.0008141994476318359
ell 738, elapsed: 0.0008039474487304688
ell 732, elapsed: 0.001458883285522461
ell 731, elapsed: 0.0015079975128173828
ell 730, elapsed: 0.0008280277252197266
ell 729, elapsed: 0.0008199214935302734
ell 728, elapsed: 0.0008101463317871094
ell 722, elapsed: 0.0021810531616210938
ell 721, elapsed: 0.0008327960968017578
ell 720, elapsed: 0.0008301734924316406
ell 719, elapsed: 0.0014910697937011719
ell 718, elapsed: 0.000823974609375
ell 712, elapsed: 0.0015490055084228516
ell 711, elapsed: 0.0014760494232177734
ell 710, elapsed: 0.000823974609375
ell 709, elapsed: 0.0008039474487304688
ell 708, elapsed: 0.0007989406585693359
ell 702, elapsed: 0.0015780925750732422
ell 701, elapsed: 0.0009140968322753906
ell 700, elapsed: 0.000885009765625
ell 699, elapsed: 0.0008969306945800781
ell 698, elapsed: 0.000885009765625
ell 692, elapsed: 0.0016019344329833984
ell 691, elapsed: 0.0009069442749023438
ell 690, elapsed: 0.0008740425109863281
ell 689, elapsed: 0.0008790493011474609
ell 688, elapsed: 0.0009009838104248047
ell 682, elapsed: 0.0015680789947509766
ell 681, elapsed: 0.0012359619140625
ell 680, elapsed: 0.0009839534759521484
ell 679, elapsed: 0.0009448528289794922
ell 678, elapsed: 0.0009579658508300781
ell 672, elapsed: 0.0018341541290283203
ell 671, elapsed: 0.0009489059448242188
ell 670, elapsed: 0.0009758472442626953
ell 669, elapsed: 0.0009729862213134766
ell 668, elapsed: 0.0009648799896240234
ell 662, elapsed: 0.0017750263214111328
ell 661, elapsed: 0.000993967056274414
ell 660, elapsed: 0.0009629726409912109
ell 659, elapsed: 0.0009529590606689453
ell 658, elapsed: 0.0009741783142089844
ell 652, elapsed: 0.001775979995727539
ell 651, elapsed: 0.0009620189666748047
ell 650, elapsed: 0.0009829998016357422
ell 649, elapsed: 0.0009701251983642578
ell 648, elapsed: 0.0009639263153076172
ell 642, elapsed: 0.0018270015716552734
ell 641, elapsed: 0.0009608268737792969
ell 640, elapsed: 0.0009758472442626953
ell 639, elapsed: 0.000988006591796875
ell 638, elapsed: 0.0009641647338867188
ell 632, elapsed: 0.0018100738525390625
ell 631, elapsed: 0.0009760856628417969
ell 630, elapsed: 0.0009739398956298828
ell 629, elapsed: 0.000993967056274414
ell 628, elapsed: 0.0009801387786865234
ell 622, elapsed: 0.0018091201782226562
ell 621, elapsed: 0.0009500980377197266
ell 620, elapsed: 0.0009350776672363281
ell 619, elapsed: 0.0009510517120361328
ell 618, elapsed: 0.0009298324584960938
ell 612, elapsed: 0.0017418861389160156
ell 611, elapsed: 0.0009341239929199219
ell 610, elapsed: 0.0009679794311523438
ell 609, elapsed: 0.0010280609130859375
ell 608, elapsed: 0.0009829998016357422
ell 602, elapsed: 0.0018639564514160156
ell 601, elapsed: 0.0009751319885253906
ell 600, elapsed: 0.0009579658508300781
ell 599, elapsed: 0.0009489059448242188
ell 598, elapsed: 0.0008840560913085938
ell 592, elapsed: 0.0015709400177001953
ell 591, elapsed: 0.0009171962738037109
ell 590, elapsed: 0.0009431838989257812
ell 589, elapsed: 0.0008790493011474609
ell 588, elapsed: 0.0008611679077148438
ell 582, elapsed: 0.0016188621520996094
ell 581, elapsed: 0.0009160041809082031
ell 580, elapsed: 0.0009050369262695312
ell 579, elapsed: 0.0009469985961914062
ell 578, elapsed: 0.0009191036224365234
ell 572, elapsed: 0.0015599727630615234
ell 571, elapsed: 0.0009150505065917969
ell 570, elapsed: 0.0008909702301025391
ell 569, elapsed: 0.0008778572082519531
ell 568, elapsed: 0.0008671283721923828
ell 562, elapsed: 0.001641988754272461
ell 561, elapsed: 0.0009260177612304688
ell 560, elapsed: 0.0009241104125976562
ell 559, elapsed: 0.0009198188781738281
ell 558, elapsed: 0.0009150505065917969
ell 552, elapsed: 0.001867055892944336
ell 551, elapsed: 0.0009310245513916016
ell 550, elapsed: 0.0009179115295410156
ell 549, elapsed: 0.0009119510650634766
ell 548, elapsed: 0.0009150505065917969
ell 542, elapsed: 0.0019948482513427734
ell 541, elapsed: 0.000885009765625
ell 540, elapsed: 0.0009829998016357422
ell 539, elapsed: 0.0009310245513916016
ell 538, elapsed: 0.0009200572967529297
ell 532, elapsed: 0.0019559860229492188
ell 531, elapsed: 0.0008139610290527344
ell 530, elapsed: 0.0008170604705810547
ell 529, elapsed: 0.0008330345153808594
ell 528, elapsed: 0.0008208751678466797
ell 522, elapsed: 0.0014841556549072266
ell 521, elapsed: 0.0009009838104248047
ell 520, elapsed: 0.0010380744934082031
ell 519, elapsed: 0.0009591579437255859
ell 518, elapsed: 0.0009450912475585938
ell 512, elapsed: 0.0016551017761230469
ell 511, elapsed: 0.0009999275207519531
ell 510, elapsed: 0.0009229183197021484
ell 509, elapsed: 0.0008399486541748047
ell 508, elapsed: 0.0008840560913085938
ell 502, elapsed: 0.0016269683837890625
ell 501, elapsed: 0.0008950233459472656
ell 500, elapsed: 0.0009019374847412109
ell 499, elapsed: 0.0008318424224853516
ell 498, elapsed: 0.0009450912475585938
ell 492, elapsed: 0.0015969276428222656
ell 491, elapsed: 0.000982046127319336
ell 490, elapsed: 0.0009710788726806641
ell 489, elapsed: 0.0009469985961914062
ell 488, elapsed: 0.0009188652038574219
ell 482, elapsed: 0.001764059066772461
ell 481, elapsed: 0.0009009838104248047
ell 480, elapsed: 0.0008969306945800781
ell 479, elapsed: 0.0008800029754638672
ell 478, elapsed: 0.0008840560913085938
ell 472, elapsed: 0.001605987548828125
ell 471, elapsed: 0.0008687973022460938
ell 470, elapsed: 0.0008740425109863281
ell 469, elapsed: 0.0008630752563476562
ell 468, elapsed: 0.0008699893951416016
ell 462, elapsed: 0.0016260147094726562
ell 461, elapsed: 0.0008711814880371094
ell 460, elapsed: 0.0008609294891357422
ell 459, elapsed: 0.0008709430694580078
ell 458, elapsed: 0.0008900165557861328
ell 452, elapsed: 0.0015978813171386719
ell 451, elapsed: 0.0008840560913085938
ell 450, elapsed: 0.0008530616760253906
ell 449, elapsed: 0.0009179115295410156
ell 448, elapsed: 0.0008919239044189453
ell 442, elapsed: 0.002248048782348633
ell 441, elapsed: 0.0008871555328369141
ell 440, elapsed: 0.0008900165557861328
ell 439, elapsed: 0.0009660720825195312
ell 438, elapsed: 0.0009608268737792969
ell 432, elapsed: 0.0018880367279052734
ell 431, elapsed: 0.0008749961853027344
ell 430, elapsed: 0.0009250640869140625
ell 429, elapsed: 0.0009310245513916016
ell 428, elapsed: 0.0008809566497802734
ell 422, elapsed: 0.0014491081237792969
ell 421, elapsed: 0.0008590221405029297
ell 420, elapsed: 0.0009150505065917969
ell 419, elapsed: 0.0009019374847412109
ell 418, elapsed: 0.0008890628814697266
ell 412, elapsed: 0.0014331340789794922
ell 411, elapsed: 0.0008420944213867188
ell 410, elapsed: 0.0008330345153808594
ell 409, elapsed: 0.0008890628814697266
ell 408, elapsed: 0.0008521080017089844
ell 402, elapsed: 0.001519918441772461
ell 401, elapsed: 0.0008928775787353516
ell 400, elapsed: 0.0008988380432128906
ell 399, elapsed: 0.0008320808410644531
ell 398, elapsed: 0.0008680820465087891
ell 392, elapsed: 0.0017168521881103516
ell 391, elapsed: 0.0008540153503417969
ell 390, elapsed: 0.0009059906005859375
ell 389, elapsed: 0.0008828639984130859
ell 388, elapsed: 0.0008800029754638672
ell 382, elapsed: 0.0015938282012939453
ell 381, elapsed: 0.0008649826049804688
ell 380, elapsed: 0.0008718967437744141
ell 379, elapsed: 0.0009098052978515625
ell 378, elapsed: 0.0008900165557861328
ell 372, elapsed: 0.0017139911651611328
ell 371, elapsed: 0.0008509159088134766
ell 370, elapsed: 0.0008389949798583984
ell 369, elapsed: 0.0008969306945800781
ell 368, elapsed: 0.0008981227874755859
ell 362, elapsed: 0.0015819072723388672
ell 361, elapsed: 0.0008671283721923828
ell 360, elapsed: 0.0008699893951416016
ell 359, elapsed: 0.0009090900421142578
ell 358, elapsed: 0.000865936279296875
ell 352, elapsed: 0.0018029212951660156
ell 351, elapsed: 0.0007901191711425781
ell 350, elapsed: 0.0008668899536132812
ell 349, elapsed: 0.000820159912109375
ell 348, elapsed: 0.0008590221405029297
ell 342, elapsed: 0.001500844955444336
ell 341, elapsed: 0.0008800029754638672
ell 340, elapsed: 0.0009369850158691406
ell 339, elapsed: 0.0008320808410644531
ell 338, elapsed: 0.0008311271667480469
ell 332, elapsed: 0.017544984817504883
ell 331, elapsed: 0.0008549690246582031
ell 330, elapsed: 0.0008339881896972656
ell 329, elapsed: 0.0008289813995361328
ell 328, elapsed: 0.0008230209350585938
ell 322, elapsed: 0.001772165298461914
ell 321, elapsed: 0.0008101463317871094
ell 320, elapsed: 0.0008120536804199219
ell 319, elapsed: 0.0008189678192138672
ell 318, elapsed: 0.0008130073547363281
ell 312, elapsed: 0.0015268325805664062
ell 311, elapsed: 0.0007989406585693359
ell 310, elapsed: 0.0008339881896972656
ell 309, elapsed: 0.0008068084716796875
ell 308, elapsed: 0.0008230209350585938
ell 302, elapsed: 0.0015060901641845703
ell 301, elapsed: 0.0008101463317871094
ell 300, elapsed: 0.0008029937744140625
ell 299, elapsed: 0.0008170604705810547
ell 298, elapsed: 0.0008099079132080078
ell 292, elapsed: 0.0018069744110107422
ell 291, elapsed: 0.0007970333099365234
ell 290, elapsed: 0.0008218288421630859
ell 289, elapsed: 0.0008101463317871094
ell 288, elapsed: 0.0008301734924316406
ell 282, elapsed: 0.001722097396850586
ell 281, elapsed: 0.0007510185241699219
ell 280, elapsed: 0.0007970333099365234
ell 279, elapsed: 0.0008471012115478516
ell 278, elapsed: 0.0008020401000976562
ell 272, elapsed: 0.001834869384765625
ell 271, elapsed: 0.0008208751678466797
ell 270, elapsed: 0.0008020401000976562
ell 269, elapsed: 0.0008008480072021484
ell 268, elapsed: 0.0008220672607421875
ell 262, elapsed: 0.0015339851379394531
ell 261, elapsed: 0.0008180141448974609
ell 260, elapsed: 0.0008008480072021484
ell 259, elapsed: 0.000820159912109375
ell 258, elapsed: 0.0007607936859130859
ell 252, elapsed: 0.001477956771850586
ell 251, elapsed: 0.0008101463317871094
ell 250, elapsed: 0.0008502006530761719
ell 249, elapsed: 0.0007970333099365234
ell 248, elapsed: 0.0008318424224853516
ell 242, elapsed: 0.0018420219421386719
ell 241, elapsed: 0.0013289451599121094
ell 240, elapsed: 0.0014069080352783203
ell 239, elapsed: 0.0013508796691894531
ell 238, elapsed: 0.0013442039489746094
ell 232, elapsed: 0.002398967742919922
ell 231, elapsed: 0.0012829303741455078
ell 230, elapsed: 0.0013239383697509766
ell 229, elapsed: 0.0012660026550292969
ell 228, elapsed: 0.001268148422241211
ell 222, elapsed: 0.0023398399353027344
ell 221, elapsed: 0.0012710094451904297
ell 220, elapsed: 0.0013380050659179688
ell 219, elapsed: 0.0012600421905517578
ell 218, elapsed: 0.001107931137084961
ell 212, elapsed: 0.0015759468078613281
ell 211, elapsed: 0.0008299350738525391
ell 210, elapsed: 0.0008249282836914062
ell 209, elapsed: 0.0008280277252197266
ell 208, elapsed: 0.0008389949798583984
ell 202, elapsed: 0.0015230178833007812
ell 201, elapsed: 0.0008139610290527344
ell 200, elapsed: 0.000823974609375
ell 199, elapsed: 0.0008099079132080078
ell 198, elapsed: 0.0008139610290527344
ell 192, elapsed: 0.0014939308166503906
ell 191, elapsed: 0.0008370876312255859
ell 190, elapsed: 0.0008230209350585938
ell 189, elapsed: 0.0008268356323242188
ell 188, elapsed: 0.0008208751678466797
ell 182, elapsed: 0.001589059829711914
ell 181, elapsed: 0.0008199214935302734
ell 180, elapsed: 0.0008180141448974609
ell 179, elapsed: 0.0008249282836914062
ell 178, elapsed: 0.0008151531219482422
ell 172, elapsed: 0.0018470287322998047
ell 171, elapsed: 0.0008180141448974609
ell 170, elapsed: 0.000843048095703125
ell 169, elapsed: 0.0008389949798583984
ell 168, elapsed: 0.0008289813995361328
ell 162, elapsed: 0.001542806625366211
ell 161, elapsed: 0.0008099079132080078
ell 160, elapsed: 0.0008428096771240234
ell 159, elapsed: 0.0008361339569091797
ell 158, elapsed: 0.0008370876312255859
ell 152, elapsed: 0.0015649795532226562
ell 151, elapsed: 0.0008361339569091797
ell 150, elapsed: 0.000823974609375
ell 149, elapsed: 0.0008230209350585938
ell 148, elapsed: 0.0008220672607421875
ell 142, elapsed: 0.0015730857849121094
ell 141, elapsed: 0.0008180141448974609
ell 140, elapsed: 0.000823974609375
ell 139, elapsed: 0.0007948875427246094
ell 138, elapsed: 0.0008220672607421875
ell 132, elapsed: 0.0015540122985839844
ell 131, elapsed: 0.0008220672607421875
ell 130, elapsed: 0.0008139610290527344
ell 129, elapsed: 0.0008358955383300781
ell 128, elapsed: 0.0007948875427246094
ell 122, elapsed: 0.0015239715576171875
ell 121, elapsed: 0.0008120536804199219
ell 120, elapsed: 0.0008280277252197266
ell 119, elapsed: 0.0008089542388916016
ell 118, elapsed: 0.0008199214935302734
ell 112, elapsed: 0.0015110969543457031
ell 111, elapsed: 0.000823974609375
ell 110, elapsed: 0.0008111000061035156
ell 109, elapsed: 0.0008208751678466797
ell 108, elapsed: 0.0008370876312255859
ell 102, elapsed: 0.001528024673461914
ell 101, elapsed: 0.0034449100494384766
ell 100, elapsed: 0.0031189918518066406
ell 99, elapsed: 0.003139019012451172
ell 98, elapsed: 0.003203153610229492
ell 92, elapsed: 0.006214141845703125
ell 91, elapsed: 0.0034461021423339844
ell 90, elapsed: 0.00347900390625
ell 89, elapsed: 0.003155946731567383
ell 88, elapsed: 0.003192901611328125
ell 82, elapsed: 0.006267070770263672
ell 81, elapsed: 0.0031731128692626953
ell 80, elapsed: 0.0032129287719726562
ell 79, elapsed: 0.003209829330444336
ell 78, elapsed: 0.003239870071411133
ell 72, elapsed: 0.0060498714447021484
ell 71, elapsed: 0.003522157669067383
ell 70, elapsed: 0.003240823745727539
ell 69, elapsed: 0.0032358169555664062
ell 68, elapsed: 0.0035431385040283203
ell 62, elapsed: 0.006208896636962891
ell 61, elapsed: 0.0032498836517333984
ell 60, elapsed: 0.0032269954681396484
ell 59, elapsed: 0.0032100677490234375
ell 58, elapsed: 0.003194093704223633
ell 52, elapsed: 0.005793094635009766
ell 51, elapsed: 0.003134012222290039
ell 50, elapsed: 0.003248929977416992
ell 49, elapsed: 0.0032651424407958984
ell 48, elapsed: 0.003209829330444336
ell 42, elapsed: 0.005852937698364258
ell 41, elapsed: 0.003843069076538086
ell 40, elapsed: 0.003710031509399414
ell 39, elapsed: 0.0032470226287841797
ell 38, elapsed: 0.003793001174926758
ell 32, elapsed: 0.00598907470703125
ell 31, elapsed: 0.0037720203399658203
ell 30, elapsed: 0.0032088756561279297
ell 29, elapsed: 0.0034170150756835938
ell 28, elapsed: 0.0033910274505615234
ell 22, elapsed: 0.005891084671020508
ell 21, elapsed: 0.0034329891204833984
ell 20, elapsed: 0.0031719207763671875
ell 19, elapsed: 0.0032019615173339844
ell 18, elapsed: 0.003451108932495117
ell 12, elapsed: 0.006359100341796875
ell 11, elapsed: 0.003103971481323242
ell 10, elapsed: 0.0037980079650878906
ell 9, elapsed: 0.0033299922943115234
ell 8, elapsed: 0.0032150745391845703
  0.872742 seconds (66.75 k allocations: 12.139 MiB)
elapsed: 0.0039920806884765625
step:          0.068944 sec (0 allocations: 0 byte, 0.0% gc time)
swapping:      0.000784 sec (0 allocations: 0 byte, 0.0% gc time)
calc_Mellell!: 0.038041 sec (0 allocations: 0 byte, 0.0% gc time)
  t0 :  0.011319 sec (0 allocations: 0 byte, 0.0% gc time)
  tm2 : 0.071547 sec (0 allocations: 0 byte, 0.0% gc time)
  tm2s: 0.008636 sec (0 allocations: 0 byte, 0.0% gc time)
  tm4 : 0.176798 sec (0 allocations: 0 byte, 0.0% gc time)
  tp2 : 0.0 sec (0 allocations: 0 byte, 0.0% gc time)
  tp2s: 0.0 sec (0 allocations: 0 byte, 0.0% gc time)
  tp4 : 0.0 sec (0 allocations: 0 byte, 0.0% gc time)
calc_wtdll!:   0.536837 sec (49.2 k allocations: 11.133 MB, 0.0% gc time)
calc_wljj!:    0.03795 sec (69 allocations: 1.078 KB, 0.0% gc time)
mult_prefac!:  0.0 sec (0 allocations: 0 byte, 0.0% gc time)
convert:       0.0 sec (0 allocations: 0 byte, 0.0% gc time)
write:         0.052731 sec (0 allocations: 0 byte, 0.0% gc time)
test_rand_2f1: 0.0 sec (0 allocations: 0 byte, 0.0% gc time)
Closing outfile out/MlCache/MlCache.bin...   0.000010 seconds
xi, l=0, nu=0:   0.469976 seconds (551.85 k allocations: 26.842 MiB, 3.42% gc time)
xi, l=0, nu=-2:  0.002604 seconds (144 allocations: 149.562 KiB)
Created 'out/xi.tsv'.
  q=1.1, R=0.6:	  0.735486 seconds (291.08 k allocations: 38.895 MiB, 1.86% gc time)
  q=1.1, R=0.7:	  0.868733 seconds (304.75 k allocations: 40.996 MiB, 1.12% gc time)
  q=1.1, R=0.8:	  0.950167 seconds (299.14 k allocations: 40.132 MiB, 0.80% gc time)
  q=1.1, R=0.9:	  1.040267 seconds (293.57 k allocations: 39.286 MiB, 0.75% gc time)
  q=1.1, R=0.998:	 21.258898 seconds (10.67 M allocations: 823.453 MiB, 0.24% gc time)
  q=1.1, R=1.0:	  0.004132 seconds (10.24 k allocations: 768.375 KiB)

ℓ = 1000
Δℓ = 4
ΔℓRg1 = -4
N = 4096
q = 1.1
kmin = 1.0e-5
kmax = 1000.0
χ0 = 0.001
RR = RR.tsv
ℓmax = ℓmax.bin
f21 = f21.bin
kmin = 1.0e-5
kmax = 1000.0
dlrec    = 4
dlrecRg1 = -4
Output size: 1573632 bytes = 0.0014655590057373047 GiB
Output size: 786816 bytes = 0.0007327795028686523 GiB
Reading 'out/F21EllCache'...   0.001292 seconds (268 allocations: 533.531 KiB)
ellmax: 1002
lmaxcache: 1000
fell[:,1,1] = Complex{Float64}[1.7262928128202118e-224 - 4.2281979352226944e-240im, 1.7282693092099662e-224 - 4.233038955177176e-240im]
ell 1002, elapsed: 0.00014400482177734375
ell 1001, elapsed: 0.0008108615875244141
ell 1000, elapsed: 0.0008029937744140625
ell 999, elapsed: 0.006225109100341797
ell 998, elapsed: 0.007298946380615234
ell 44, elapsed: 0.6548948287963867
ell 43, elapsed: 0.0073969364166259766
ell 42, elapsed: 0.005383968353271484
ell 41, elapsed: 0.00534510612487793
ell 40, elapsed: 0.005486965179443359
  0.703364 seconds (4.55 k allocations: 320.359 KiB)
elapsed: 0.007212162017822266
step:          0.650693 sec (0 allocations: 0 byte, 0.0% gc time)
swapping:      0.000625 sec (0 allocations: 0 byte, 0.0% gc time)
calc_Mellell!: 0.001351 sec (0 allocations: 0 byte, 0.0% gc time)
  t0 :  0.000482 sec (0 allocations: 0 byte, 0.0% gc time)
  tm2 : 0.01111 sec (0 allocations: 0 byte, 0.0% gc time)
  tm2s: 0.000296 sec (0 allocations: 0 byte, 0.0% gc time)
  tm4 : 0.029598 sec (0 allocations: 0 byte, 0.0% gc time)
  tp2 : 0.0 sec (0 allocations: 0 byte, 0.0% gc time)
  tp2s: 0.0 sec (0 allocations: 0 byte, 0.0% gc time)
  tp4 : 0.0 sec (0 allocations: 0 byte, 0.0% gc time)
calc_wtdll!:   0.041706 sec (480 allocations: 52.5 KB, 0.0% gc time)
calc_wljj!:    0.001425 sec (1 allocations: 16 byte, 0.0% gc time)
mult_prefac!:  0.0 sec (0 allocations: 0 byte, 0.0% gc time)
convert:       0.0 sec (0 allocations: 0 byte, 0.0% gc time)
write:         0.000975 sec (0 allocations: 0 byte, 0.0% gc time)
test_rand_2f1: 0.0 sec (0 allocations: 0 byte, 0.0% gc time)
Closing outfile out/MlCache/MlCache.bin...   0.001366 seconds
  0.489147 seconds (54 allocations: 67.203 KiB)
make_phi():   0.009942 seconds (80 allocations: 276.297 KiB)
  0.003171 seconds (108 allocations: 5.812 KiB)
tskip:       1.0e-6 sec (0 allocations: 0 byte, 0.0% gc time)
tread:       0.000746 sec (19 allocations: 1.312 KB, 0.0% gc time)
tmultphi:    0.000362 sec (0 allocations: 0 byte, 0.0% gc time)
tbrfft:      0.001229 sec (96 allocations: 4.5 KB, 0.0% gc time)
tmultprefac: 0.000916 sec (0 allocations: 0 byte, 0.0% gc time)
toutfunc:    0.000113 sec (0 allocations: 0 byte, 0.0% gc time)
Created 'out/wl42_jj00.tsv'.
Created 'out/wl42_jj02.tsv'.
   Testing TwoFAST tests passed 
