Julia Version 1.5.0-DEV.0
Commit 13d1bd4689 (2019-12-31 18:18 UTC)
Platform Info:
  OS: Linux (x86_64-pc-linux-gnu)
  CPU: Intel(R) Xeon(R) Silver 4114 CPU @ 2.20GHz
  WORD_SIZE: 64
  LIBM: libopenlibm
  LLVM: libLLVM-8.0.1 (ORCJIT, skylake)
Environment:
  JULIA_DEPOT_PATH = ::/usr/local/share/julia

 Resolving package versions...
 Installed FFTW_jll ───────── v3.3.9+3
 Installed IntelOpenMP_jll ── v2018.0.3+0
 Installed Reexport ───────── v0.2.0
 Installed IncGammaBeta ───── v0.1.0
 Installed AbstractFFTs ───── v0.5.0
 Installed FFTW ───────────── v1.2.0
 Installed BinDeps ────────── v1.0.0
 Installed BinaryProvider ─── v0.5.8
 Installed MKL_jll ────────── v2019.0.117+0
 Installed SpecialFunctions ─ v0.8.0
 Installed URIParser ──────── v0.4.0
 Installed AbstractAlgebra ── v0.7.1
 Installed Nemo ───────────── v0.15.1
 Installed TwoFAST ────────── v0.1.0
  Updating `~/.julia/environments/v1.5/Project.toml`
  [0dd23c3e] + TwoFAST v0.1.0
  Updating `~/.julia/environments/v1.5/Manifest.toml`
  [c3fe647b] + AbstractAlgebra v0.7.1
  [621f4979] + AbstractFFTs v0.5.0
  [9e28174c] + BinDeps v1.0.0
  [b99e7846] + BinaryProvider v0.5.8
  [7a1cc6ca] + FFTW v1.2.0
  [f5851436] + FFTW_jll v3.3.9+3
  [5087d2c0] + IncGammaBeta v0.1.0
  [1d5cc7b8] + IntelOpenMP_jll v2018.0.3+0
  [856f044c] + MKL_jll v2019.0.117+0
  [2edaba10] + Nemo v0.15.1
  [189a3867] + Reexport v0.2.0
  [276daf66] + SpecialFunctions v0.8.0
  [0dd23c3e] + TwoFAST v0.1.0
  [30578b45] + URIParser v0.4.0
  [2a0f44e3] + Base64 
  [ade2ca70] + Dates 
  [8bb1440f] + DelimitedFiles 
  [8ba89e20] + Distributed 
  [b77e0a4c] + InteractiveUtils 
  [76f85450] + LibGit2 
  [8f399da3] + Libdl 
  [37e2e46d] + LinearAlgebra 
  [56ddb016] + Logging 
  [d6f4376e] + Markdown 
  [a63ad114] + Mmap 
  [44cfe95a] + Pkg 
  [de0858da] + Printf 
  [3fa0cd96] + REPL 
  [9a3f8284] + Random 
  [ea8e919c] + SHA 
  [9e88b42a] + Serialization 
  [6462fe0b] + Sockets 
  [2f01184e] + SparseArrays 
  [8dfed614] + Test 
  [cf7118a7] + UUIDs 
  [4ec0a83e] + Unicode 
  Building FFTW ────────────→ `~/.julia/packages/FFTW/qqcBj/deps/build.log`
  Updating `/tmp/jl_PouIKB/Project.toml`
 [no changes]
  Updating `/tmp/jl_PouIKB/Manifest.toml`
 [no changes]
  Building SpecialFunctions → `~/.julia/packages/SpecialFunctions/ne2iw/deps/build.log`
  Updating `/tmp/jl_MEqL8g/Project.toml`
 [no changes]
  Updating `/tmp/jl_MEqL8g/Manifest.toml`
 [no changes]
  Building Nemo ────────────→ `~/.julia/packages/Nemo/qzx0m/deps/build.log`
  Updating `/tmp/jl_XMgqpu/Project.toml`
 [no changes]
  Updating `/tmp/jl_XMgqpu/Manifest.toml`
 [no changes]
   Testing TwoFAST
 Installed Dierckx ─ v0.4.1
  Updating `/tmp/jl_OFTN3n/Project.toml`
  [39dd38d3] + Dierckx v0.4.1
  Updating `/tmp/jl_OFTN3n/Manifest.toml`
  [39dd38d3] + Dierckx v0.4.1
  Building Dierckx → `~/.julia/packages/Dierckx/9SY4A/deps/build.log`
  Updating `/tmp/jl_mUiH4c/Project.toml`
 [no changes]
  Updating `/tmp/jl_mUiH4c/Manifest.toml`
 [no changes]
Running sandbox
Status `/tmp/jl_OFTN3n/Project.toml`
  [39dd38d3] Dierckx v0.4.1
  [7a1cc6ca] FFTW v1.2.0
  [5087d2c0] IncGammaBeta v0.1.0
  [2edaba10] Nemo v0.15.1
  [276daf66] SpecialFunctions v0.8.0
  [0dd23c3e] TwoFAST v0.1.0
  [8bb1440f] DelimitedFiles 
  [37e2e46d] LinearAlgebra 
  [56ddb016] Logging 
  [8dfed614] Test 

Welcome to Nemo version 0.15.1

Nemo comes with absolutely no warranty whatsoever


Welcome to Nemo version 0.15.1

Nemo comes with absolutely no warranty whatsoever

Testing ξ(r), ℓ=0, ν=-1 ... passed
Testing ξ(r), ℓ=0, ν=0 ... passed
Testing ξ(r), ℓ=0, ν=1 ... passed
Testing ξ(r), ℓ=0, ν=2 ... passed
Testing ξ(r), ℓ=0, ν=3 ... passed
Testing ξ(r), ℓ=1, ν=0 ... passed
Testing ξ(r), ℓ=1, ν=1 ... passed
Testing ξ(r), ℓ=1, ν=2 ... passed
Testing ξ(r), ℓ=1, ν=3 ... passed
Testing ξ(r), ℓ=2, ν=-1 ... passed
Testing ξ(r), ℓ=2, ν=0 ... passed
Testing ξ(r), ℓ=2, ν=1 ... passed
Testing ξ(r), ℓ=2, ν=2 ... passed
Testing ξ(r), ℓ=2, ν=3 ... passed
Testing ξ(r), ℓ=3, ν=-1 ... passed
Testing ξ(r), ℓ=3, ν=0 ... passed
Testing ξ(r), ℓ=3, ν=1 ... passed
Testing ξ(r), ℓ=3, ν=2 ... passed
Testing ξ(r), ℓ=3, ν=3 ... passed
Testing ξ(r), ℓ=4, ν=-1 ... passed
Testing ξ(r), ℓ=4, ν=0 ... passed
Testing ξ(r), ℓ=4, ν=1 ... passed
Testing ξ(r), ℓ=4, ν=2 ... passed
Testing ξ(r), ℓ=4, ν=3 ... passed
Testing ξ(r) ... passed
Testing ξ′(r) ... passed
Testing ξ″(r) ... passed
Calculating fmax: 
  dlrec    = 4
  dlrecRg1 = -4
  q=1.1, R=1.1:	  4.698470 seconds (1.20 M allocations: 67.954 MiB, 1.14% gc time)

  4.753482 seconds (1.22 M allocations: 69.064 MiB, 1.13% gc time)
ℓ = 1202
Δℓ = 4
ΔℓRg1 = -4
N = 1600
q = 1.1
kmin = 1.0e-5
kmax = 100000.00000000004
χ0 = 0.023029999999999995
RR = RR.tsv
ℓmax = ℓmax.bin
f21 = f21.bin
kmin = 1.0e-5
kmax = 100000.0
dlrec    = 4
dlrecRg1 = -4
Output size: 5741568 bytes = 0.005347251892089844 GiB
Output size: 51264 bytes = 4.774332046508789e-5 GiB
Reading 'out/F21EllCache'...   0.583831 seconds (318.67 k allocations: 16.395 MiB)
ellmax: 1202
lmaxcache: 1202
fell[:,1,1] = Complex{Float64}[3.9583795592771634e-52 - 9.695233714158177e-68im, 3.990121772925759e-52 - 9.772979714843386e-68im]
ell 1202, elapsed: 9.393692016601562e-5
ell 1201, elapsed: 2.2912609577178955
ell 1200, elapsed: 0.000576019287109375
ell 1199, elapsed: 0.0005080699920654297
ell 1198, elapsed: 0.00047087669372558594
ell 1002, elapsed: 0.009927988052368164
ell 1001, elapsed: 0.0005190372467041016
ell 1000, elapsed: 0.0004849433898925781
ell 999, elapsed: 0.0004990100860595703
ell 998, elapsed: 0.0004968643188476562
ell 902, elapsed: 0.005097150802612305
ell 901, elapsed: 0.0005259513854980469
ell 900, elapsed: 0.0005021095275878906
ell 899, elapsed: 0.0004899501800537109
ell 898, elapsed: 0.0004830360412597656
ell 802, elapsed: 0.004904985427856445
ell 801, elapsed: 0.0004990100860595703
ell 800, elapsed: 0.00047206878662109375
ell 799, elapsed: 0.00047206878662109375
ell 798, elapsed: 0.00047087669372558594
ell 702, elapsed: 0.004846096038818359
ell 701, elapsed: 0.0004918575286865234
ell 700, elapsed: 0.00047206878662109375
ell 699, elapsed: 0.0004661083221435547
ell 698, elapsed: 0.0004680156707763672
ell 602, elapsed: 0.0050580501556396484
ell 601, elapsed: 0.0007748603820800781
ell 600, elapsed: 0.0005540847778320312
ell 599, elapsed: 0.00047397613525390625
ell 598, elapsed: 0.0004639625549316406
ell 502, elapsed: 0.00479888916015625
ell 501, elapsed: 0.0004699230194091797
ell 500, elapsed: 0.0005791187286376953
ell 499, elapsed: 0.00046515464782714844
ell 498, elapsed: 0.0004699230194091797
ell 402, elapsed: 0.004971027374267578
ell 401, elapsed: 0.0004889965057373047
ell 400, elapsed: 0.0004780292510986328
ell 399, elapsed: 0.0004730224609375
ell 398, elapsed: 0.0004749298095703125
ell 302, elapsed: 0.004857063293457031
ell 301, elapsed: 0.0004839897155761719
ell 300, elapsed: 0.00047397613525390625
ell 299, elapsed: 0.000476837158203125
ell 298, elapsed: 0.00047397613525390625
ell 202, elapsed: 0.005033016204833984
ell 201, elapsed: 0.0004961490631103516
ell 200, elapsed: 0.000492095947265625
ell 199, elapsed: 0.00048089027404785156
ell 198, elapsed: 0.0004680156707763672
ell 152, elapsed: 0.002562999725341797
ell 151, elapsed: 0.0004930496215820312
ell 150, elapsed: 0.0004589557647705078
ell 149, elapsed: 0.0004601478576660156
ell 148, elapsed: 0.0004611015319824219
ell 127, elapsed: 0.0015289783477783203
ell 126, elapsed: 0.0004668235778808594
ell 125, elapsed: 0.0004680156707763672
ell 124, elapsed: 0.0004611015319824219
ell 123, elapsed: 0.00046896934509277344
ell 114, elapsed: 0.0008780956268310547
ell 113, elapsed: 0.0004858970642089844
ell 112, elapsed: 0.0005631446838378906
ell 111, elapsed: 0.0004830360412597656
ell 110, elapsed: 0.00047397613525390625
ell 102, elapsed: 0.0009360313415527344
ell 101, elapsed: 0.0004661083221435547
ell 100, elapsed: 0.00047087669372558594
ell 99, elapsed: 0.00055694580078125
ell 98, elapsed: 0.0005321502685546875
ell 97, elapsed: 0.0005629062652587891
ell 96, elapsed: 0.0006971359252929688
ell 95, elapsed: 0.0005359649658203125
ell 94, elapsed: 0.0006849765777587891
ell 93, elapsed: 0.0005159378051757812
ell 92, elapsed: 0.0006949901580810547
ell 91, elapsed: 0.0005028247833251953
ell 90, elapsed: 0.0005810260772705078
ell 89, elapsed: 0.0005090236663818359
ell 88, elapsed: 0.0006239414215087891
ell 87, elapsed: 0.00057220458984375
ell 86, elapsed: 0.0006461143493652344
ell 85, elapsed: 0.0005550384521484375
ell 84, elapsed: 0.0006029605865478516
ell 83, elapsed: 0.0005021095275878906
ell 82, elapsed: 0.0005950927734375
ell 81, elapsed: 0.0005578994750976562
ell 80, elapsed: 0.0008158683776855469
ell 79, elapsed: 0.000637054443359375
ell 78, elapsed: 0.0006299018859863281
ell 77, elapsed: 0.0004899501800537109
ell 76, elapsed: 0.0005860328674316406
ell 75, elapsed: 0.0005030632019042969
ell 74, elapsed: 0.0005950927734375
ell 73, elapsed: 0.0005710124969482422
ell 72, elapsed: 0.0006971359252929688
ell 71, elapsed: 0.0005090236663818359
ell 70, elapsed: 0.0006618499755859375
ell 69, elapsed: 0.0005362033843994141
ell 68, elapsed: 0.0005929470062255859
ell 67, elapsed: 0.0005002021789550781
ell 66, elapsed: 0.0006949901580810547
ell 65, elapsed: 0.0005190372467041016
ell 64, elapsed: 0.0005981922149658203
ell 63, elapsed: 0.0005068778991699219
ell 62, elapsed: 0.0005850791931152344
ell 61, elapsed: 0.0005028247833251953
ell 60, elapsed: 0.0007579326629638672
ell 59, elapsed: 0.0005450248718261719
ell 58, elapsed: 0.0005800724029541016
ell 57, elapsed: 0.0004990100860595703
ell 56, elapsed: 0.0005710124969482422
ell 55, elapsed: 0.00048613548278808594
ell 54, elapsed: 0.0005898475646972656
ell 53, elapsed: 0.0005829334259033203
ell 52, elapsed: 0.0006289482116699219
ell 51, elapsed: 0.0005078315734863281
ell 50, elapsed: 0.0005931854248046875
ell 49, elapsed: 0.0005140304565429688
ell 48, elapsed: 0.000598907470703125
ell 47, elapsed: 0.0005140304565429688
ell 46, elapsed: 0.0006639957427978516
ell 45, elapsed: 0.0005471706390380859
ell 44, elapsed: 0.0006020069122314453
ell 43, elapsed: 0.0004978179931640625
ell 42, elapsed: 0.0005910396575927734
ell 41, elapsed: 0.0005130767822265625
ell 40, elapsed: 0.0006201267242431641
ell 39, elapsed: 0.0005600452423095703
ell 38, elapsed: 0.0005671977996826172
ell 37, elapsed: 0.0004961490631103516
ell 36, elapsed: 0.0005960464477539062
ell 35, elapsed: 0.0004930496215820312
ell 34, elapsed: 0.0005669593811035156
ell 33, elapsed: 0.0006201267242431641
ell 32, elapsed: 0.0006508827209472656
ell 31, elapsed: 0.0004909038543701172
ell 30, elapsed: 0.0008862018585205078
ell 29, elapsed: 0.0006890296936035156
ell 28, elapsed: 0.0006971359252929688
ell 27, elapsed: 0.0005710124969482422
ell 26, elapsed: 0.0006771087646484375
ell 25, elapsed: 0.0005130767822265625
ell 24, elapsed: 0.000598907470703125
ell 23, elapsed: 0.000514984130859375
ell 22, elapsed: 0.0005891323089599609
ell 21, elapsed: 0.0005099773406982422
ell 20, elapsed: 0.0006058216094970703
ell 19, elapsed: 0.00049591064453125
ell 18, elapsed: 0.0005910396575927734
ell 17, elapsed: 0.00051116943359375
ell 16, elapsed: 0.0005888938903808594
ell 15, elapsed: 0.0005128383636474609
ell 14, elapsed: 0.0006039142608642578
ell 13, elapsed: 0.0004940032958984375
ell 12, elapsed: 0.0005919933319091797
ell 11, elapsed: 0.0005090236663818359
ell 10, elapsed: 0.0005981922149658203
ell 9, elapsed: 0.0005078315734863281
ell 8, elapsed: 0.0005950927734375
ell 7, elapsed: 0.0005981922149658203
ell 6, elapsed: 0.000598907470703125
ell 5, elapsed: 0.0004918575286865234
ell 4, elapsed: 0.0006000995635986328
ell 3, elapsed: 0.0004889965057373047
ell 2, elapsed: 0.0005810260772705078
ell 1, elapsed: 0.0004909038543701172
ell 0, elapsed: 0.0006868839263916016
  3.107162 seconds (1.75 M allocations: 85.477 MiB, 1.11% gc time)
elapsed: 0.0006082057952880859
step:          0.849375 sec (402.561 k allocations: 20.278 MB, 0.0% gc time)
swapping:      0.000588 sec (0 allocations: 0 byte, 0.0% gc time)
calc_Mellell!: 0.536161 sec (296.399 k allocations: 14.958 MB, 0.0% gc time)
  t0 :  0.0 sec (0 allocations: 0 byte, 0.0% gc time)
  tm2 : 0.0 sec (0 allocations: 0 byte, 0.0% gc time)
  tm2s: 0.0 sec (0 allocations: 0 byte, 0.0% gc time)
  tm4 : 0.0 sec (0 allocations: 0 byte, 0.0% gc time)
  tp2 : 0.0 sec (0 allocations: 0 byte, 0.0% gc time)
  tp2s: 0.0 sec (0 allocations: 0 byte, 0.0% gc time)
  tp4 : 0.0 sec (0 allocations: 0 byte, 0.0% gc time)
calc_wtdll!:   1.029052 sec (525.859 k allocations: 26.376 MB, 3.34% gc time)
calc_wljj!:    0.003272 sec (6 allocations: 96 byte, 0.0% gc time)
mult_prefac!:  0.0 sec (0 allocations: 0 byte, 0.0% gc time)
convert:       0.0 sec (0 allocations: 0 byte, 0.0% gc time)
write:         0.005652 sec (0 allocations: 0 byte, 0.0% gc time)
test_rand_2f1: 0.0 sec (0 allocations: 0 byte, 0.0% gc time)
Closing outfile out/Ml21-cache.bin...   0.000171 seconds
  1.006358 seconds (8.66 k allocations: 420.969 KiB)
make_phi():   0.012676 seconds (8.20 k allocations: 238.016 KiB)
  0.215072 seconds (121.69 k allocations: 5.901 MiB)
tskip:       2.2e-5 sec (0 allocations: 0 byte, 0.0% gc time)
tread:       0.002492 sec (19 allocations: 2.172 KB, 0.0% gc time)
tmultphi:    0.041388 sec (26.022 k allocations: 1.338 MB, 0.0% gc time)
tbrfft:      0.004184 sec (896 allocations: 42.0 KB, 0.0% gc time)
tmultprefac: 0.003255 sec (0 allocations: 0 byte, 0.0% gc time)
toutfunc:    0.163567 sec (94.104 k allocations: 4.45 MB, 0.0% gc time)
Testing R=1.1 ... passed
Calculating fmax: 
  dlrec    = 4
  dlrecRg1 = -4
  q=1.1, R=1.0:	  0.001699 seconds (4.00 k allocations: 300.375 KiB)

  0.001974 seconds (4.04 k allocations: 335.062 KiB)
ℓ = 1202
Δℓ = 4
ΔℓRg1 = -4
N = 1600
q = 1.1
kmin = 1.0e-5
kmax = 100000.00000000004
χ0 = 0.023029999999999995
RR = RR.tsv
ℓmax = ℓmax.bin
f21 = f21.bin
kmin = 1.0e-5
kmax = 100000.0
dlrec    = 4
dlrecRg1 = -4
Output size: 61465536 bytes = 0.05724424123764038 GiB
Output size: 51264 bytes = 4.774332046508789e-5 GiB
Reading 'out/F21EllCache'...   0.001213 seconds (267 allocations: 84.656 KiB)
ellmax: 1202
lmaxcache: 1202
fell[:,1,1] = Complex{Float64}[809.6031528389767 - 1.9829558194077161e-13im, 0.0 + 0.0im]
ell 1202, elapsed: 2.5987625122070312e-5
ell 1201, elapsed: 0.0143280029296875
ell 1200, elapsed: 0.0005481243133544922
ell 1199, elapsed: 0.000370025634765625
ell 1198, elapsed: 0.00036597251892089844
ell 1197, elapsed: 0.00045013427734375
ell 1196, elapsed: 0.0006361007690429688
ell 1195, elapsed: 0.0006711483001708984
ell 1194, elapsed: 0.0005331039428710938
ell 1193, elapsed: 0.0007050037384033203
ell 1192, elapsed: 0.0004119873046875
ell 1191, elapsed: 0.0005209445953369141
ell 1190, elapsed: 0.0008189678192138672
ell 1189, elapsed: 0.0008630752563476562
ell 1188, elapsed: 0.0007419586181640625
ell 1187, elapsed: 0.0007631778717041016
ell 1186, elapsed: 0.0006201267242431641
ell 1185, elapsed: 0.0009338855743408203
ell 1184, elapsed: 0.00045108795166015625
ell 1183, elapsed: 0.0005729198455810547
ell 1182, elapsed: 0.0004749298095703125
ell 1181, elapsed: 0.0005719661712646484
ell 1180, elapsed: 0.00047087669372558594
ell 1179, elapsed: 0.0005600452423095703
ell 1178, elapsed: 0.0004730224609375
ell 1177, elapsed: 0.0004639625549316406
ell 1176, elapsed: 0.0003788471221923828
ell 1175, elapsed: 0.0004649162292480469
ell 1174, elapsed: 0.00037789344787597656
ell 1173, elapsed: 0.00044989585876464844
ell 1172, elapsed: 0.00037598609924316406
ell 1171, elapsed: 0.0006299018859863281
ell 1170, elapsed: 0.0005908012390136719
ell 1169, elapsed: 0.0004620552062988281
ell 1168, elapsed: 0.00038123130798339844
ell 1167, elapsed: 0.0006661415100097656
ell 1166, elapsed: 0.0005660057067871094
ell 1165, elapsed: 0.0005979537963867188
ell 1164, elapsed: 0.00038504600524902344
ell 1163, elapsed: 0.0006220340728759766
ell 1162, elapsed: 0.00038695335388183594
ell 1161, elapsed: 0.00046515464782714844
ell 1160, elapsed: 0.0003809928894042969
ell 1159, elapsed: 0.0004601478576660156
ell 1158, elapsed: 0.00037980079650878906
ell 1157, elapsed: 0.000453948974609375
ell 1156, elapsed: 0.0003809928894042969
ell 1155, elapsed: 0.0004630088806152344
ell 1154, elapsed: 0.0005590915679931641
ell 1153, elapsed: 0.0007429122924804688
ell 1152, elapsed: 0.00047016143798828125
ell 1151, elapsed: 0.0004620552062988281
ell 1150, elapsed: 0.00037598609924316406
ell 1149, elapsed: 0.0005910396575927734
ell 1148, elapsed: 0.0004899501800537109
ell 1147, elapsed: 0.0006201267242431641
ell 1146, elapsed: 0.0003910064697265625
ell 1145, elapsed: 0.00047397613525390625
ell 1144, elapsed: 0.0003809928894042969
ell 1143, elapsed: 0.00045490264892578125
ell 1142, elapsed: 0.0003790855407714844
ell 1141, elapsed: 0.00045299530029296875
ell 1140, elapsed: 0.0005631446838378906
ell 1139, elapsed: 0.0007481575012207031
ell 1138, elapsed: 0.0004019737243652344
ell 1137, elapsed: 0.00047397613525390625
ell 1136, elapsed: 0.0004849433898925781
ell 1135, elapsed: 0.0006401538848876953
ell 1134, elapsed: 0.0003840923309326172
ell 1133, elapsed: 0.0004901885986328125
ell 1132, elapsed: 0.0007328987121582031
ell 1131, elapsed: 0.0005350112915039062
ell 1130, elapsed: 0.0004930496215820312
ell 1129, elapsed: 0.0007290840148925781
ell 1128, elapsed: 0.00043392181396484375
ell 1127, elapsed: 0.0004761219024658203
ell 1126, elapsed: 0.00038909912109375
ell 1125, elapsed: 0.0005950927734375
ell 1124, elapsed: 0.000370025634765625
ell 1123, elapsed: 0.00044918060302734375
ell 1122, elapsed: 0.00036597251892089844
ell 1121, elapsed: 0.0004420280456542969
ell 1120, elapsed: 0.0003628730773925781
ell 1119, elapsed: 0.0004420280456542969
ell 1118, elapsed: 0.0003612041473388672
ell 1117, elapsed: 0.0004341602325439453
ell 1116, elapsed: 0.0004889965057373047
ell 1115, elapsed: 0.0004439353942871094
ell 1114, elapsed: 0.0003681182861328125
ell 1113, elapsed: 0.0004971027374267578
ell 1112, elapsed: 0.0004210472106933594
ell 1111, elapsed: 0.0004971027374267578
ell 1110, elapsed: 0.00041413307189941406
ell 1109, elapsed: 0.0006041526794433594
ell 1108, elapsed: 0.0005500316619873047
ell 1107, elapsed: 0.000492095947265625
ell 1106, elapsed: 0.0004940032958984375
ell 1105, elapsed: 0.0006399154663085938
ell 1104, elapsed: 0.0005462169647216797
ell 1103, elapsed: 0.0005631446838378906
ell 1102, elapsed: 0.0004749298095703125
ell 1101, elapsed: 0.0006639957427978516
ell 1100, elapsed: 0.0004949569702148438
ell 1099, elapsed: 0.0007169246673583984
ell 1098, elapsed: 0.0005249977111816406
ell 1097, elapsed: 0.0004611015319824219
ell 1096, elapsed: 0.0003769397735595703
ell 1095, elapsed: 0.0004680156707763672
ell 1094, elapsed: 0.00041103363037109375
ell 1093, elapsed: 0.0004801750183105469
ell 1092, elapsed: 0.0003838539123535156
ell 1091, elapsed: 0.0004870891571044922
ell 1090, elapsed: 0.0005240440368652344
ell 1089, elapsed: 0.000640869140625
ell 1088, elapsed: 0.00047707557678222656
ell 1087, elapsed: 0.0006690025329589844
ell 1086, elapsed: 0.00039196014404296875
ell 1085, elapsed: 0.0004649162292480469
ell 1084, elapsed: 0.00038695335388183594
ell 1083, elapsed: 0.0006780624389648438
ell 1082, elapsed: 0.0005161762237548828
ell 1081, elapsed: 0.0006461143493652344
ell 1080, elapsed: 0.0006608963012695312
ell 1079, elapsed: 0.0006570816040039062
ell 1078, elapsed: 0.00038886070251464844
ell 1077, elapsed: 0.0006010532379150391
ell 1076, elapsed: 0.0005130767822265625
ell 1075, elapsed: 0.0006301403045654297
ell 1074, elapsed: 0.0004780292510986328
ell 1073, elapsed: 0.0006000995635986328
ell 1072, elapsed: 0.0005741119384765625
ell 1071, elapsed: 0.000553131103515625
ell 1070, elapsed: 0.0005190372467041016
ell 1069, elapsed: 0.0005979537963867188
ell 1068, elapsed: 0.0003941059112548828
ell 1067, elapsed: 0.0004811286926269531
ell 1066, elapsed: 0.0007200241088867188
ell 1065, elapsed: 0.0005891323089599609
ell 1064, elapsed: 0.00038909912109375
ell 1063, elapsed: 0.0004830360412597656
ell 1062, elapsed: 0.0005238056182861328
ell 1061, elapsed: 0.0005750656127929688
ell 1060, elapsed: 0.0003809928894042969
ell 1059, elapsed: 0.0006430149078369141
ell 1058, elapsed: 0.0004820823669433594
ell 1057, elapsed: 0.0006380081176757812
ell 1056, elapsed: 0.00043487548828125
ell 1055, elapsed: 0.0006520748138427734
ell 1054, elapsed: 0.0003871917724609375
ell 1053, elapsed: 0.0004589557647705078
ell 1052, elapsed: 0.0005469322204589844
ell 1051, elapsed: 0.0006639957427978516
ell 1050, elapsed: 0.0004429817199707031
ell 1049, elapsed: 0.0004699230194091797
ell 1048, elapsed: 0.0005140304565429688
ell 1047, elapsed: 0.0006639957427978516
ell 1046, elapsed: 0.0003910064697265625
ell 1045, elapsed: 0.0005941390991210938
ell 1044, elapsed: 0.00038504600524902344
ell 1043, elapsed: 0.000469207763671875
ell 1042, elapsed: 0.0005500316619873047
ell 1041, elapsed: 0.0005500316619873047
ell 1040, elapsed: 0.00040411949157714844
ell 1039, elapsed: 0.0004818439483642578
ell 1038, elapsed: 0.00039005279541015625
ell 1037, elapsed: 0.0006940364837646484
ell 1036, elapsed: 0.0005259513854980469
ell 1035, elapsed: 0.0004839897155761719
ell 1034, elapsed: 0.0005419254302978516
ell 1033, elapsed: 0.0007338523864746094
ell 1032, elapsed: 0.0004940032958984375
ell 1031, elapsed: 0.0006930828094482422
ell 1030, elapsed: 0.0004749298095703125
ell 1029, elapsed: 0.0007169246673583984
ell 1028, elapsed: 0.0004329681396484375
ell 1027, elapsed: 0.0006098747253417969
ell 1026, elapsed: 0.0005240440368652344
ell 1025, elapsed: 0.0004858970642089844
ell 1024, elapsed: 0.0005888938903808594
ell 1023, elapsed: 0.0005741119384765625
ell 1022, elapsed: 0.0005509853363037109
ell 1021, elapsed: 0.0005428791046142578
ell 1020, elapsed: 0.0005021095275878906
ell 1019, elapsed: 0.0007259845733642578
ell 1018, elapsed: 0.0006158351898193359
ell 1017, elapsed: 0.0006229877471923828
ell 1016, elapsed: 0.0004668235778808594
ell 1015, elapsed: 0.0004630088806152344
ell 1014, elapsed: 0.0003871917724609375
ell 1013, elapsed: 0.0004730224609375
ell 1012, elapsed: 0.00039196014404296875
ell 1011, elapsed: 0.00046896934509277344
ell 1010, elapsed: 0.0003840923309326172
ell 1009, elapsed: 0.0006349086761474609
ell 1008, elapsed: 0.0004439353942871094
ell 1007, elapsed: 0.0006558895111083984
ell 1006, elapsed: 0.0005109310150146484
ell 1005, elapsed: 0.0006070137023925781
ell 1004, elapsed: 0.0003821849822998047
ell 1003, elapsed: 0.0004589557647705078
ell 1002, elapsed: 0.0005071163177490234
ell 1001, elapsed: 0.00048089027404785156
ell 1000, elapsed: 0.00038909912109375
ell 999, elapsed: 0.0004849433898925781
ell 998, elapsed: 0.0004990100860595703
ell 997, elapsed: 0.0007319450378417969
ell 996, elapsed: 0.0004830360412597656
ell 995, elapsed: 0.000759124755859375
ell 994, elapsed: 0.0004508495330810547
ell 993, elapsed: 0.0004730224609375
ell 992, elapsed: 0.0003859996795654297
ell 991, elapsed: 0.0004649162292480469
ell 990, elapsed: 0.00044083595275878906
ell 989, elapsed: 0.0006730556488037109
ell 988, elapsed: 0.000518798828125
ell 987, elapsed: 0.0004909038543701172
ell 986, elapsed: 0.0003819465637207031
ell 985, elapsed: 0.000576019287109375
ell 984, elapsed: 0.0006051063537597656
ell 983, elapsed: 0.0007290840148925781
ell 982, elapsed: 0.0004429817199707031
ell 981, elapsed: 0.0007920265197753906
ell 980, elapsed: 0.0005409717559814453
ell 979, elapsed: 0.0006279945373535156
ell 978, elapsed: 0.0003809928894042969
ell 977, elapsed: 0.00046181678771972656
ell 976, elapsed: 0.0003879070281982422
ell 975, elapsed: 0.0004661083221435547
ell 974, elapsed: 0.0003859996795654297
ell 973, elapsed: 0.0008180141448974609
ell 972, elapsed: 0.00045609474182128906
ell 971, elapsed: 0.0004870891571044922
ell 970, elapsed: 0.00046896934509277344
ell 969, elapsed: 0.0006680488586425781
ell 968, elapsed: 0.0005490779876708984
ell 967, elapsed: 0.0009000301361083984
ell 966, elapsed: 0.0005099773406982422
ell 965, elapsed: 0.0006468296051025391
ell 964, elapsed: 0.0006170272827148438
ell 963, elapsed: 0.0006830692291259766
ell 962, elapsed: 0.0005280971527099609
ell 961, elapsed: 0.0006661415100097656
ell 960, elapsed: 0.0005319118499755859
ell 959, elapsed: 0.0006721019744873047
ell 958, elapsed: 0.0004038810729980469
ell 957, elapsed: 0.0004661083221435547
ell 956, elapsed: 0.0003838539123535156
ell 955, elapsed: 0.0004940032958984375
ell 954, elapsed: 0.00047397613525390625
ell 953, elapsed: 0.00047516822814941406
ell 952, elapsed: 0.0004100799560546875
ell 951, elapsed: 0.0004971027374267578
ell 950, elapsed: 0.0004119873046875
ell 949, elapsed: 0.0004799365997314453
ell 948, elapsed: 0.0004031658172607422
ell 947, elapsed: 0.0004730224609375
ell 946, elapsed: 0.0004570484161376953
ell 945, elapsed: 0.00048613548278808594
ell 944, elapsed: 0.00039505958557128906
ell 943, elapsed: 0.00047516822814941406
ell 942, elapsed: 0.00039696693420410156
ell 941, elapsed: 0.0004761219024658203
ell 940, elapsed: 0.0004010200500488281
ell 939, elapsed: 0.00047779083251953125
ell 938, elapsed: 0.0004048347473144531
ell 937, elapsed: 0.0005459785461425781
ell 936, elapsed: 0.0004038810729980469
ell 935, elapsed: 0.00048089027404785156
ell 934, elapsed: 0.00040602684020996094
ell 933, elapsed: 0.0004811286926269531
ell 932, elapsed: 0.0004019737243652344
ell 931, elapsed: 0.0004749298095703125
ell 930, elapsed: 0.0003981590270996094
ell 929, elapsed: 0.0005228519439697266
ell 928, elapsed: 0.0004010200500488281
ell 927, elapsed: 0.00047397613525390625
ell 926, elapsed: 0.0004031658172607422
ell 925, elapsed: 0.0004799365997314453
ell 924, elapsed: 0.0003981590270996094
ell 923, elapsed: 0.00047206878662109375
ell 922, elapsed: 0.00039696693420410156
ell 921, elapsed: 0.00047588348388671875
ell 920, elapsed: 0.00041103363037109375
ell 919, elapsed: 0.00047397613525390625
ell 918, elapsed: 0.0004000663757324219
ell 917, elapsed: 0.0004730224609375
ell 916, elapsed: 0.0003948211669921875
ell 915, elapsed: 0.00047397613525390625
ell 914, elapsed: 0.0004019737243652344
ell 913, elapsed: 0.0004668235778808594
ell 912, elapsed: 0.00044798851013183594
ell 911, elapsed: 0.00047397613525390625
ell 910, elapsed: 0.000392913818359375
ell 909, elapsed: 0.0004630088806152344
ell 908, elapsed: 0.0003979206085205078
ell 907, elapsed: 0.0004761219024658203
ell 906, elapsed: 0.0003941059112548828
ell 905, elapsed: 0.0004699230194091797
ell 904, elapsed: 0.0003921985626220703
ell 903, elapsed: 0.0005409717559814453
ell 902, elapsed: 0.0004029273986816406
ell 901, elapsed: 0.00046896934509277344
ell 900, elapsed: 0.0003960132598876953
ell 899, elapsed: 0.0004780292510986328
ell 898, elapsed: 0.0003941059112548828
ell 897, elapsed: 0.0004620552062988281
ell 896, elapsed: 0.00039196014404296875
ell 895, elapsed: 0.0005300045013427734
ell 894, elapsed: 0.00039505958557128906
ell 893, elapsed: 0.0004730224609375
ell 892, elapsed: 0.00039315223693847656
ell 891, elapsed: 0.0004680156707763672
ell 890, elapsed: 0.00039196014404296875
ell 889, elapsed: 0.00047016143798828125
ell 888, elapsed: 0.0003941059112548828
ell 887, elapsed: 0.0004649162292480469
ell 886, elapsed: 0.0004570484161376953
ell 885, elapsed: 0.00047707557678222656
ell 884, elapsed: 0.0004000663757324219
ell 883, elapsed: 0.0004780292510986328
ell 882, elapsed: 0.0004050731658935547
ell 881, elapsed: 0.00047397613525390625
ell 880, elapsed: 0.0003979206085205078
ell 879, elapsed: 0.0004730224609375
ell 878, elapsed: 0.0004401206970214844
ell 877, elapsed: 0.0004730224609375
ell 876, elapsed: 0.0003941059112548828
ell 875, elapsed: 0.0004749298095703125
ell 874, elapsed: 0.00039386749267578125
ell 873, elapsed: 0.00046706199645996094
ell 872, elapsed: 0.0003998279571533203
ell 871, elapsed: 0.0004799365997314453
ell 870, elapsed: 0.0003981590270996094
ell 869, elapsed: 0.0005331039428710938
ell 868, elapsed: 0.0004019737243652344
ell 867, elapsed: 0.00046896934509277344
ell 866, elapsed: 0.00039386749267578125
ell 865, elapsed: 0.0004742145538330078
ell 864, elapsed: 0.00039505958557128906
ell 863, elapsed: 0.0004749298095703125
ell 862, elapsed: 0.0003948211669921875
ell 861, elapsed: 0.0005290508270263672
ell 860, elapsed: 0.00039887428283691406
ell 859, elapsed: 0.0004711151123046875
ell 858, elapsed: 0.00039505958557128906
ell 857, elapsed: 0.0004699230194091797
ell 856, elapsed: 0.00039696693420410156
ell 855, elapsed: 0.00048279762268066406
ell 854, elapsed: 0.0004000663757324219
ell 853, elapsed: 0.0004749298095703125
ell 852, elapsed: 0.00045299530029296875
ell 851, elapsed: 0.0004780292510986328
ell 850, elapsed: 0.00039505958557128906
ell 849, elapsed: 0.000469207763671875
ell 848, elapsed: 0.0003960132598876953
ell 847, elapsed: 0.0004711151123046875
ell 846, elapsed: 0.0003960132598876953
ell 845, elapsed: 0.0004730224609375
ell 844, elapsed: 0.0004429817199707031
ell 843, elapsed: 0.0004820823669433594
ell 842, elapsed: 0.00039505958557128906
ell 841, elapsed: 0.0004718303680419922
ell 840, elapsed: 0.00039505958557128906
ell 839, elapsed: 0.00046896934509277344
ell 838, elapsed: 0.00039696693420410156
ell 837, elapsed: 0.00046896934509277344
ell 836, elapsed: 0.00039505958557128906
ell 835, elapsed: 0.0005271434783935547
ell 834, elapsed: 0.0003972053527832031
ell 833, elapsed: 0.00047397613525390625
ell 832, elapsed: 0.0003941059112548828
ell 831, elapsed: 0.0004730224609375
ell 830, elapsed: 0.0004000663757324219
ell 829, elapsed: 0.00047397613525390625
ell 828, elapsed: 0.0003941059112548828
ell 827, elapsed: 0.0005309581756591797
ell 826, elapsed: 0.0004010200500488281
ell 825, elapsed: 0.0004711151123046875
ell 824, elapsed: 0.00039315223693847656
ell 823, elapsed: 0.00047588348388671875
ell 822, elapsed: 0.00039196014404296875
ell 821, elapsed: 0.00046896934509277344
ell 820, elapsed: 0.0003981590270996094
ell 819, elapsed: 0.00047206878662109375
ell 818, elapsed: 0.00045299530029296875
ell 817, elapsed: 0.0004849433898925781
ell 816, elapsed: 0.0003972053527832031
ell 815, elapsed: 0.0004668235778808594
ell 814, elapsed: 0.0005929470062255859
ell 813, elapsed: 0.0006349086761474609
ell 812, elapsed: 0.0004949569702148438
ell 811, elapsed: 0.0006659030914306641
ell 810, elapsed: 0.0004971027374267578
ell 809, elapsed: 0.0008509159088134766
ell 808, elapsed: 0.0005419254302978516
ell 807, elapsed: 0.0006861686706542969
ell 806, elapsed: 0.0005609989166259766
ell 805, elapsed: 0.0006711483001708984
ell 804, elapsed: 0.00039505958557128906
ell 803, elapsed: 0.000476837158203125
ell 802, elapsed: 0.0003960132598876953
ell 801, elapsed: 0.000537872314453125
ell 800, elapsed: 0.0003979206085205078
ell 799, elapsed: 0.0005950927734375
ell 798, elapsed: 0.000743865966796875
ell 797, elapsed: 0.0009758472442626953
ell 796, elapsed: 0.0005068778991699219
ell 795, elapsed: 0.0005779266357421875
ell 794, elapsed: 0.0005888938903808594
ell 793, elapsed: 0.0009129047393798828
ell 792, elapsed: 0.0004858970642089844
ell 791, elapsed: 0.0006890296936035156
ell 790, elapsed: 0.0005950927734375
ell 789, elapsed: 0.0007901191711425781
ell 788, elapsed: 0.0005459785461425781
ell 787, elapsed: 0.0016510486602783203
ell 786, elapsed: 0.0004980564117431641
ell 785, elapsed: 0.0006320476531982422
ell 784, elapsed: 0.0006349086761474609
ell 783, elapsed: 0.0007371902465820312
ell 782, elapsed: 0.0005259513854980469
ell 781, elapsed: 0.000701904296875
ell 780, elapsed: 0.0006368160247802734
ell 779, elapsed: 0.0007379055023193359
ell 778, elapsed: 0.0005300045013427734
ell 777, elapsed: 0.0007469654083251953
ell 776, elapsed: 0.00042510032653808594
ell 775, elapsed: 0.000576019287109375
ell 774, elapsed: 0.0005140304565429688
ell 773, elapsed: 0.0004680156707763672
ell 772, elapsed: 0.0005497932434082031
ell 771, elapsed: 0.0007281303405761719
ell 770, elapsed: 0.0005450248718261719
ell 769, elapsed: 0.0005910396575927734
ell 768, elapsed: 0.0006430149078369141
ell 767, elapsed: 0.0007469654083251953
ell 766, elapsed: 0.0005018711090087891
ell 765, elapsed: 0.0006070137023925781
ell 764, elapsed: 0.0007128715515136719
ell 763, elapsed: 0.0005831718444824219
ell 762, elapsed: 0.0005340576171875
ell 761, elapsed: 0.0006480216979980469
ell 760, elapsed: 0.0005800724029541016
ell 759, elapsed: 0.0007290840148925781
ell 758, elapsed: 0.0005850791931152344
ell 757, elapsed: 0.0006639957427978516
ell 756, elapsed: 0.0006110668182373047
ell 755, elapsed: 0.0007078647613525391
ell 754, elapsed: 0.0005941390991210938
ell 753, elapsed: 0.0007278919219970703
ell 752, elapsed: 0.0005979537963867188
ell 751, elapsed: 0.000659942626953125
ell 750, elapsed: 0.0006101131439208984
ell 749, elapsed: 0.0007269382476806641
ell 748, elapsed: 0.0005359649658203125
ell 747, elapsed: 0.0004780292510986328
ell 746, elapsed: 0.0006070137023925781
ell 745, elapsed: 0.0007810592651367188
ell 744, elapsed: 0.0007541179656982422
ell 743, elapsed: 0.0007750988006591797
ell 742, elapsed: 0.0006961822509765625
ell 741, elapsed: 0.000885009765625
ell 740, elapsed: 0.0006160736083984375
ell 739, elapsed: 0.0007300376892089844
ell 738, elapsed: 0.0005030632019042969
ell 737, elapsed: 0.0006110668182373047
ell 736, elapsed: 0.0005280971527099609
ell 735, elapsed: 0.0007641315460205078
ell 734, elapsed: 0.0005421638488769531
ell 733, elapsed: 0.00074005126953125
ell 732, elapsed: 0.0006039142608642578
ell 731, elapsed: 0.0005939006805419922
ell 730, elapsed: 0.0006110668182373047
ell 729, elapsed: 0.0016279220581054688
ell 728, elapsed: 0.0006558895111083984
ell 727, elapsed: 0.0006511211395263672
ell 726, elapsed: 0.0005400180816650391
ell 725, elapsed: 0.0009489059448242188
ell 724, elapsed: 0.0005249977111816406
ell 723, elapsed: 0.0004990100860595703
ell 722, elapsed: 0.0003960132598876953
ell 721, elapsed: 0.0004749298095703125
ell 720, elapsed: 0.0003859996795654297
ell 719, elapsed: 0.0004649162292480469
ell 718, elapsed: 0.00037980079650878906
ell 717, elapsed: 0.0007081031799316406
ell 716, elapsed: 0.0004391670227050781
ell 715, elapsed: 0.0004620552062988281
ell 714, elapsed: 0.0005631446838378906
ell 713, elapsed: 0.0007481575012207031
ell 712, elapsed: 0.0005400180816650391
ell 711, elapsed: 0.0006549358367919922
ell 710, elapsed: 0.0004990100860595703
ell 709, elapsed: 0.0006809234619140625
ell 708, elapsed: 0.0004410743713378906
ell 707, elapsed: 0.0004999637603759766
ell 706, elapsed: 0.0004010200500488281
ell 705, elapsed: 0.0006878376007080078
ell 704, elapsed: 0.0005249977111816406
ell 703, elapsed: 0.0007169246673583984
ell 702, elapsed: 0.0006711483001708984
ell 701, elapsed: 0.0007810592651367188
ell 700, elapsed: 0.0006330013275146484
ell 699, elapsed: 0.00080108642578125
ell 698, elapsed: 0.0004470348358154297
ell 697, elapsed: 0.0004811286926269531
ell 696, elapsed: 0.0004649162292480469
ell 695, elapsed: 0.0006608963012695312
ell 694, elapsed: 0.000392913818359375
ell 693, elapsed: 0.00047516822814941406
ell 692, elapsed: 0.0003910064697265625
ell 691, elapsed: 0.0005848407745361328
ell 690, elapsed: 0.0003921985626220703
ell 689, elapsed: 0.0005998611450195312
ell 688, elapsed: 0.0005099773406982422
ell 687, elapsed: 0.0006530284881591797
ell 686, elapsed: 0.0004830360412597656
ell 685, elapsed: 0.0005919933319091797
ell 684, elapsed: 0.0006139278411865234
ell 683, elapsed: 0.0006771087646484375
ell 682, elapsed: 0.0009131431579589844
ell 681, elapsed: 0.0008199214935302734
ell 680, elapsed: 0.001775979995727539
ell 679, elapsed: 0.0005090236663818359
ell 678, elapsed: 0.00039005279541015625
ell 677, elapsed: 0.0004792213439941406
ell 676, elapsed: 0.0005419254302978516
ell 675, elapsed: 0.0005688667297363281
ell 674, elapsed: 0.0006120204925537109
ell 673, elapsed: 0.0005979537963867188
ell 672, elapsed: 0.00039005279541015625
ell 671, elapsed: 0.0008940696716308594
ell 670, elapsed: 0.0005559921264648438
ell 669, elapsed: 0.0007379055023193359
ell 668, elapsed: 0.0005168914794921875
ell 667, elapsed: 0.0004801750183105469
ell 666, elapsed: 0.0011439323425292969
ell 665, elapsed: 0.0007238388061523438
ell 664, elapsed: 0.0005931854248046875
ell 663, elapsed: 0.0008480548858642578
ell 662, elapsed: 0.0004801750183105469
ell 661, elapsed: 0.0006220340728759766
ell 660, elapsed: 0.0008180141448974609
ell 659, elapsed: 0.0010578632354736328
ell 658, elapsed: 0.0006079673767089844
ell 657, elapsed: 0.0004889965057373047
ell 656, elapsed: 0.0005629062652587891
ell 655, elapsed: 0.0005970001220703125
ell 654, elapsed: 0.0006520748138427734
ell 653, elapsed: 0.0006129741668701172
ell 652, elapsed: 0.0005600452423095703
ell 651, elapsed: 0.0007169246673583984
ell 650, elapsed: 0.0005218982696533203
ell 649, elapsed: 0.0009429454803466797
ell 648, elapsed: 0.0008509159088134766
ell 647, elapsed: 0.0006480216979980469
ell 646, elapsed: 0.0005779266357421875
ell 645, elapsed: 0.0006310939788818359
ell 644, elapsed: 0.0006260871887207031
ell 643, elapsed: 0.0006079673767089844
ell 642, elapsed: 0.0005071163177490234
ell 641, elapsed: 0.0005838871002197266
ell 640, elapsed: 0.0003840923309326172
ell 639, elapsed: 0.0006628036499023438
ell 638, elapsed: 0.0006339550018310547
ell 637, elapsed: 0.0007710456848144531
ell 636, elapsed: 0.0006039142608642578
ell 635, elapsed: 0.0004870891571044922
ell 634, elapsed: 0.0003859996795654297
ell 633, elapsed: 0.0007491111755371094
ell 632, elapsed: 0.000453948974609375
ell 631, elapsed: 0.0005688667297363281
ell 630, elapsed: 0.000553131103515625
ell 629, elapsed: 0.0007100105285644531
ell 628, elapsed: 0.0006518363952636719
ell 627, elapsed: 0.00086212158203125
ell 626, elapsed: 0.0003838539123535156
ell 625, elapsed: 0.0008149147033691406
ell 624, elapsed: 0.0004949569702148438
ell 623, elapsed: 0.0006549358367919922
ell 622, elapsed: 0.0006089210510253906
ell 621, elapsed: 0.000701904296875
ell 620, elapsed: 0.000637054443359375
ell 619, elapsed: 0.00047707557678222656
ell 618, elapsed: 0.00038695335388183594
ell 617, elapsed: 0.0004608631134033203
ell 616, elapsed: 0.0003829002380371094
ell 615, elapsed: 0.0004661083221435547
ell 614, elapsed: 0.0020551681518554688
ell 613, elapsed: 0.0004940032958984375
ell 612, elapsed: 0.00038504600524902344
ell 611, elapsed: 0.0006330013275146484
ell 610, elapsed: 0.0003809928894042969
ell 609, elapsed: 0.0010750293731689453
ell 608, elapsed: 0.00043201446533203125
ell 607, elapsed: 0.0004038810729980469
ell 606, elapsed: 0.0006010532379150391
ell 605, elapsed: 0.000720977783203125
ell 604, elapsed: 0.0006101131439208984
ell 603, elapsed: 0.0006680488586425781
ell 602, elapsed: 0.0005550384521484375
ell 601, elapsed: 0.0008549690246582031
ell 600, elapsed: 0.0005290508270263672
ell 599, elapsed: 0.0004849433898925781
ell 598, elapsed: 0.0005340576171875
ell 597, elapsed: 0.0008699893951416016
ell 596, elapsed: 0.0004069805145263672
ell 595, elapsed: 0.0012080669403076172
ell 594, elapsed: 0.0005018711090087891
ell 593, elapsed: 0.0006909370422363281
ell 592, elapsed: 0.0005228519439697266
ell 591, elapsed: 0.0005950927734375
ell 590, elapsed: 0.0005099773406982422
ell 589, elapsed: 0.0006289482116699219
ell 588, elapsed: 0.0006148815155029297
ell 587, elapsed: 0.0006070137023925781
ell 586, elapsed: 0.0005290508270263672
ell 585, elapsed: 0.0008251667022705078
ell 584, elapsed: 0.00042891502380371094
ell 583, elapsed: 0.00061798095703125
ell 582, elapsed: 0.0006129741668701172
ell 581, elapsed: 0.0005629062652587891
ell 580, elapsed: 0.0005259513854980469
ell 579, elapsed: 0.0008800029754638672
ell 578, elapsed: 0.0005609989166259766
ell 577, elapsed: 0.0006029605865478516
ell 576, elapsed: 0.0005681514739990234
ell 575, elapsed: 0.0005879402160644531
ell 574, elapsed: 0.00055694580078125
ell 573, elapsed: 0.0006730556488037109
ell 572, elapsed: 0.000492095947265625
ell 571, elapsed: 0.0006449222564697266
ell 570, elapsed: 0.0004620552062988281
ell 569, elapsed: 0.0007460117340087891
ell 568, elapsed: 0.0006060600280761719
ell 567, elapsed: 0.0008599758148193359
ell 566, elapsed: 0.0004940032958984375
ell 565, elapsed: 0.0006570816040039062
ell 564, elapsed: 0.0005221366882324219
ell 563, elapsed: 0.0006430149078369141
ell 562, elapsed: 0.0006000995635986328
ell 561, elapsed: 0.0007488727569580078
ell 560, elapsed: 0.0005419254302978516
ell 559, elapsed: 0.0005540847778320312
ell 558, elapsed: 0.0006048679351806641
ell 557, elapsed: 0.0007259845733642578
ell 556, elapsed: 0.0006091594696044922
ell 555, elapsed: 0.0008499622344970703
ell 554, elapsed: 0.0005979537963867188
ell 553, elapsed: 0.0006377696990966797
ell 552, elapsed: 0.0004749298095703125
ell 551, elapsed: 0.0007381439208984375
ell 550, elapsed: 0.0004601478576660156
ell 549, elapsed: 0.000698089599609375
ell 548, elapsed: 0.0005071163177490234
ell 547, elapsed: 0.0006930828094482422
ell 546, elapsed: 0.0006139278411865234
ell 545, elapsed: 0.00055694580078125
ell 544, elapsed: 0.0005609989166259766
ell 543, elapsed: 0.0008709430694580078
ell 542, elapsed: 0.0005168914794921875
ell 541, elapsed: 0.0004909038543701172
ell 540, elapsed: 0.0005140304565429688
ell 539, elapsed: 0.0006990432739257812
ell 538, elapsed: 0.0006198883056640625
ell 537, elapsed: 0.0008599758148193359
ell 536, elapsed: 0.0004258155822753906
ell 535, elapsed: 0.000637054443359375
ell 534, elapsed: 0.0006051063537597656
ell 533, elapsed: 0.0007259845733642578
ell 532, elapsed: 0.0006070137023925781
ell 531, elapsed: 0.0008590221405029297
ell 530, elapsed: 0.0006098747253417969
ell 529, elapsed: 0.000621795654296875
ell 528, elapsed: 0.0004420280456542969
ell 527, elapsed: 0.0007178783416748047
ell 526, elapsed: 0.0004429817199707031
ell 525, elapsed: 0.0007829666137695312
ell 524, elapsed: 0.0005390644073486328
ell 523, elapsed: 0.0006151199340820312
ell 522, elapsed: 0.0005049705505371094
ell 521, elapsed: 0.0007090568542480469
ell 520, elapsed: 0.0005040168762207031
ell 519, elapsed: 0.0010619163513183594
ell 518, elapsed: 0.0005731582641601562
ell 517, elapsed: 0.0007259845733642578
ell 516, elapsed: 0.0006091594696044922
ell 515, elapsed: 0.0007200241088867188
ell 514, elapsed: 0.0009591579437255859
ell 513, elapsed: 0.0005960464477539062
ell 512, elapsed: 0.0004680156707763672
ell 511, elapsed: 0.00047516822814941406
ell 510, elapsed: 0.0003218650817871094
ell 509, elapsed: 0.0006058216094970703
ell 508, elapsed: 0.0005807876586914062
ell 507, elapsed: 0.0008339881896972656
ell 506, elapsed: 0.0006120204925537109
ell 505, elapsed: 0.0006339550018310547
ell 504, elapsed: 0.0005500316619873047
ell 503, elapsed: 0.0007388591766357422
ell 502, elapsed: 0.0008530616760253906
ell 501, elapsed: 0.0005857944488525391
ell 500, elapsed: 0.0005688667297363281
ell 499, elapsed: 0.0007140636444091797
ell 498, elapsed: 0.0006060600280761719
ell 497, elapsed: 0.0006611347198486328
ell 496, elapsed: 0.0007069110870361328
ell 495, elapsed: 0.0007290840148925781
ell 494, elapsed: 0.0006129741668701172
ell 493, elapsed: 0.0007278919219970703
ell 492, elapsed: 0.0006020069122314453
ell 491, elapsed: 0.0008478164672851562
ell 490, elapsed: 0.0006389617919921875
ell 489, elapsed: 0.0007390975952148438
ell 488, elapsed: 0.0006151199340820312
ell 487, elapsed: 0.0007231235504150391
ell 486, elapsed: 0.0006110668182373047
ell 485, elapsed: 0.0007388591766357422
ell 484, elapsed: 0.00061798095703125
ell 483, elapsed: 0.000720977783203125
ell 482, elapsed: 0.0006070137023925781
ell 481, elapsed: 0.0006558895111083984
ell 480, elapsed: 0.0003910064697265625
ell 479, elapsed: 0.0006968975067138672
ell 478, elapsed: 0.0006198883056640625
ell 477, elapsed: 0.0006060600280761719
ell 476, elapsed: 0.0004639625549316406
ell 475, elapsed: 0.0007481575012207031
ell 474, elapsed: 0.0006170272827148438
ell 473, elapsed: 0.0007610321044921875
ell 472, elapsed: 0.0006000995635986328
ell 471, elapsed: 0.0006630420684814453
ell 470, elapsed: 0.0003628730773925781
ell 469, elapsed: 0.0007319450378417969
ell 468, elapsed: 0.0005769729614257812
ell 467, elapsed: 0.0006010532379150391
ell 466, elapsed: 0.00040602684020996094
ell 465, elapsed: 0.0004811286926269531
ell 464, elapsed: 0.0003039836883544922
ell 463, elapsed: 0.0006051063537597656
ell 462, elapsed: 0.0004889965057373047
ell 461, elapsed: 0.0006880760192871094
ell 460, elapsed: 0.0007588863372802734
ell 459, elapsed: 0.0007569789886474609
ell 458, elapsed: 0.0005669593811035156
ell 457, elapsed: 0.00048089027404785156
ell 456, elapsed: 0.00039505958557128906
ell 455, elapsed: 0.00046706199645996094
ell 454, elapsed: 0.0003960132598876953
ell 453, elapsed: 0.000537872314453125
ell 452, elapsed: 0.0002980232238769531
ell 451, elapsed: 0.0003631114959716797
ell 450, elapsed: 0.00029587745666503906
ell 449, elapsed: 0.00038909912109375
ell 448, elapsed: 0.0002999305725097656
ell 447, elapsed: 0.00035691261291503906
ell 446, elapsed: 0.00029206275939941406
ell 445, elapsed: 0.00035500526428222656
ell 444, elapsed: 0.0002911090850830078
ell 443, elapsed: 0.0003540515899658203
ell 442, elapsed: 0.000331878662109375
ell 441, elapsed: 0.0003781318664550781
ell 440, elapsed: 0.0003039836883544922
ell 439, elapsed: 0.00036978721618652344
ell 438, elapsed: 0.00030303001403808594
ell 437, elapsed: 0.0003662109375
ell 436, elapsed: 0.00030803680419921875
ell 435, elapsed: 0.0003769397735595703
ell 434, elapsed: 0.000308990478515625
ell 433, elapsed: 0.00037288665771484375
ell 432, elapsed: 0.00030994415283203125
ell 431, elapsed: 0.0003829002380371094
ell 430, elapsed: 0.00029587745666503906
ell 429, elapsed: 0.0003590583801269531
ell 428, elapsed: 0.0002961158752441406
ell 427, elapsed: 0.00034809112548828125
ell 426, elapsed: 0.0002999305725097656
ell 425, elapsed: 0.0003731250762939453
ell 424, elapsed: 0.0002951622009277344
ell 423, elapsed: 0.0003540515899658203
ell 422, elapsed: 0.0002970695495605469
ell 421, elapsed: 0.0003528594970703125
ell 420, elapsed: 0.00032901763916015625
ell 419, elapsed: 0.00037407875061035156
ell 418, elapsed: 0.0004811286926269531
ell 417, elapsed: 0.0005090236663818359
ell 416, elapsed: 0.00031495094299316406
ell 415, elapsed: 0.0003819465637207031
ell 414, elapsed: 0.0003159046173095703
ell 413, elapsed: 0.0003838539123535156
ell 412, elapsed: 0.0003170967102050781
ell 411, elapsed: 0.0004031658172607422
ell 410, elapsed: 0.0003509521484375
ell 409, elapsed: 0.0003590583801269531
ell 408, elapsed: 0.00028204917907714844
ell 407, elapsed: 0.00033593177795410156
ell 406, elapsed: 0.00028204917907714844
ell 405, elapsed: 0.0003371238708496094
ell 404, elapsed: 0.0002818107604980469
ell 403, elapsed: 0.0003390312194824219
ell 402, elapsed: 0.0002830028533935547
ell 401, elapsed: 0.00033593177795410156
ell 400, elapsed: 0.0002830028533935547
ell 399, elapsed: 0.0004971027374267578
ell 398, elapsed: 0.0002930164337158203
ell 397, elapsed: 0.00034499168395996094
ell 396, elapsed: 0.0002830028533935547
ell 395, elapsed: 0.00034308433532714844
ell 394, elapsed: 0.000286102294921875
ell 393, elapsed: 0.00034880638122558594
ell 392, elapsed: 0.00028896331787109375
ell 391, elapsed: 0.0003399848937988281
ell 390, elapsed: 0.0002818107604980469
ell 389, elapsed: 0.0003371238708496094
ell 388, elapsed: 0.0002818107604980469
ell 387, elapsed: 0.0005660057067871094
ell 386, elapsed: 0.00039887428283691406
ell 385, elapsed: 0.0004661083221435547
ell 384, elapsed: 0.00038504600524902344
ell 383, elapsed: 0.00047397613525390625
ell 382, elapsed: 0.0004000663757324219
ell 381, elapsed: 0.0004639625549316406
ell 380, elapsed: 0.00039005279541015625
ell 379, elapsed: 0.000576019287109375
ell 378, elapsed: 0.0003960132598876953
ell 377, elapsed: 0.00046706199645996094
ell 376, elapsed: 0.00038504600524902344
ell 375, elapsed: 0.00045800209045410156
ell 374, elapsed: 0.0003788471221923828
ell 373, elapsed: 0.00045800209045410156
ell 372, elapsed: 0.00038814544677734375
ell 371, elapsed: 0.0004649162292480469
ell 370, elapsed: 0.0004868507385253906
ell 369, elapsed: 0.0004980564117431641
ell 368, elapsed: 0.0004019737243652344
ell 367, elapsed: 0.00047898292541503906
ell 366, elapsed: 0.00039196014404296875
ell 365, elapsed: 0.0004730224609375
ell 364, elapsed: 0.0003871917724609375
ell 363, elapsed: 0.0006809234619140625
ell 362, elapsed: 0.0006258487701416016
ell 361, elapsed: 0.0007359981536865234
ell 360, elapsed: 0.0004558563232421875
ell 359, elapsed: 0.0004730224609375
ell 358, elapsed: 0.00039005279541015625
ell 357, elapsed: 0.0004818439483642578
ell 356, elapsed: 0.0003960132598876953
ell 355, elapsed: 0.0006451606750488281
ell 354, elapsed: 0.0006101131439208984
ell 353, elapsed: 0.0006809234619140625
ell 352, elapsed: 0.0004730224609375
ell 351, elapsed: 0.0005679130554199219
ell 350, elapsed: 0.0005559921264648438
ell 349, elapsed: 0.0004711151123046875
ell 348, elapsed: 0.0003960132598876953
ell 347, elapsed: 0.00048089027404785156
ell 346, elapsed: 0.0003960132598876953
ell 345, elapsed: 0.0006577968597412109
ell 344, elapsed: 0.0005211830139160156
ell 343, elapsed: 0.0005941390991210938
ell 342, elapsed: 0.0005180835723876953
ell 341, elapsed: 0.0006809234619140625
ell 340, elapsed: 0.0004649162292480469
ell 339, elapsed: 0.000675201416015625
ell 338, elapsed: 0.0004439353942871094
ell 337, elapsed: 0.0004570484161376953
ell 336, elapsed: 0.0004780292510986328
ell 335, elapsed: 0.0007669925689697266
ell 334, elapsed: 0.0003979206085205078
ell 333, elapsed: 0.0004279613494873047
ell 332, elapsed: 0.0003020763397216797
ell 331, elapsed: 0.0003390312194824219
ell 330, elapsed: 0.0002810955047607422
ell 329, elapsed: 0.0003371238708496094
ell 328, elapsed: 0.00028395652770996094
ell 327, elapsed: 0.0003409385681152344
ell 326, elapsed: 0.00028204917907714844
ell 325, elapsed: 0.0003371238708496094
ell 324, elapsed: 0.000392913818359375
ell 323, elapsed: 0.0003879070281982422
ell 322, elapsed: 0.0003559589385986328
ell 321, elapsed: 0.00048089027404785156
ell 320, elapsed: 0.00038886070251464844
ell 319, elapsed: 0.0004379749298095703
ell 318, elapsed: 0.00029087066650390625
ell 317, elapsed: 0.0003509521484375
ell 316, elapsed: 0.0002899169921875
ell 315, elapsed: 0.0003521442413330078
ell 314, elapsed: 0.0003330707550048828
ell 313, elapsed: 0.0003650188446044922
ell 312, elapsed: 0.00030112266540527344
ell 311, elapsed: 0.00036597251892089844
ell 310, elapsed: 0.00030303001403808594
ell 309, elapsed: 0.00036406517028808594
ell 308, elapsed: 0.0003390312194824219
ell 307, elapsed: 0.00036907196044921875
ell 306, elapsed: 0.0003039836883544922
ell 305, elapsed: 0.00036597251892089844
ell 304, elapsed: 0.0002989768981933594
ell 303, elapsed: 0.0004088878631591797
ell 302, elapsed: 0.0003020763397216797
ell 301, elapsed: 0.0003578662872314453
ell 300, elapsed: 0.0003058910369873047
ell 299, elapsed: 0.0003781318664550781
ell 298, elapsed: 0.0003991127014160156
ell 297, elapsed: 0.0006439685821533203
ell 296, elapsed: 0.0005040168762207031
ell 295, elapsed: 0.0004949569702148438
ell 294, elapsed: 0.00039196014404296875
ell 293, elapsed: 0.0006730556488037109
ell 292, elapsed: 0.0006310939788818359
ell 291, elapsed: 0.0007600784301757812
ell 290, elapsed: 0.0006210803985595703
ell 289, elapsed: 0.0007510185241699219
ell 288, elapsed: 0.0006229877471923828
ell 287, elapsed: 0.0007359981536865234
ell 286, elapsed: 0.0006129741668701172
ell 285, elapsed: 0.0007309913635253906
ell 284, elapsed: 0.0006060600280761719
ell 283, elapsed: 0.0006909370422363281
ell 282, elapsed: 0.00039386749267578125
ell 281, elapsed: 0.0004830360412597656
ell 280, elapsed: 0.0005500316619873047
ell 279, elapsed: 0.0007231235504150391
ell 278, elapsed: 0.0006101131439208984
ell 277, elapsed: 0.0007541179656982422
ell 276, elapsed: 0.0004980564117431641
ell 275, elapsed: 0.00048804283142089844
ell 274, elapsed: 0.00038695335388183594
ell 273, elapsed: 0.0005939006805419922
ell 272, elapsed: 0.0005180835723876953
ell 271, elapsed: 0.0004909038543701172
ell 270, elapsed: 0.0003960132598876953
ell 269, elapsed: 0.0006110668182373047
ell 268, elapsed: 0.0005130767822265625
ell 267, elapsed: 0.0004661083221435547
ell 266, elapsed: 0.0003662109375
ell 265, elapsed: 0.0004680156707763672
ell 264, elapsed: 0.00039196014404296875
ell 263, elapsed: 0.00061798095703125
ell 262, elapsed: 0.0004928112030029297
ell 261, elapsed: 0.00047588348388671875
ell 260, elapsed: 0.0005650520324707031
ell 259, elapsed: 0.0007359981536865234
ell 258, elapsed: 0.0004940032958984375
ell 257, elapsed: 0.00047588348388671875
ell 256, elapsed: 0.0003979206085205078
ell 255, elapsed: 0.0006539821624755859
ell 254, elapsed: 0.0006239414215087891
ell 253, elapsed: 0.0005669593811035156
ell 252, elapsed: 0.000392913818359375
ell 251, elapsed: 0.0004811286926269531
ell 250, elapsed: 0.00039887428283691406
ell 249, elapsed: 0.00047707557678222656
ell 248, elapsed: 0.0003960132598876953
ell 247, elapsed: 0.0005021095275878906
ell 246, elapsed: 0.00039196014404296875
ell 245, elapsed: 0.0004749298095703125
ell 244, elapsed: 0.0003871917724609375
ell 243, elapsed: 0.00047898292541503906
ell 242, elapsed: 0.00038504600524902344
ell 241, elapsed: 0.0004749298095703125
ell 240, elapsed: 0.00038909912109375
ell 239, elapsed: 0.00046896934509277344
ell 238, elapsed: 0.0004010200500488281
ell 237, elapsed: 0.0004749298095703125
ell 236, elapsed: 0.00047087669372558594
ell 235, elapsed: 0.0007219314575195312
ell 234, elapsed: 0.0006101131439208984
ell 233, elapsed: 0.0005509853363037109
ell 232, elapsed: 0.0004730224609375
ell 231, elapsed: 0.0007169246673583984
ell 230, elapsed: 0.0006110668182373047
ell 229, elapsed: 0.0007491111755371094
ell 228, elapsed: 0.0004858970642089844
ell 227, elapsed: 0.00046706199645996094
ell 226, elapsed: 0.0006608963012695312
ell 225, elapsed: 0.00048804283142089844
ell 224, elapsed: 0.0005540847778320312
ell 223, elapsed: 0.0005481243133544922
ell 222, elapsed: 0.0005230903625488281
ell 221, elapsed: 0.0007410049438476562
ell 220, elapsed: 0.0004999637603759766
ell 219, elapsed: 0.0007691383361816406
ell 218, elapsed: 0.0003840923309326172
ell 217, elapsed: 0.0004820823669433594
ell 216, elapsed: 0.0003910064697265625
ell 215, elapsed: 0.0006639957427978516
ell 214, elapsed: 0.0004620552062988281
ell 213, elapsed: 0.0004749298095703125
ell 212, elapsed: 0.000946044921875
ell 211, elapsed: 0.0006840229034423828
ell 210, elapsed: 0.0004482269287109375
ell 209, elapsed: 0.0004489421844482422
ell 208, elapsed: 0.0005271434783935547
ell 207, elapsed: 0.0007109642028808594
ell 206, elapsed: 0.0008301734924316406
ell 205, elapsed: 0.0006699562072753906
ell 204, elapsed: 0.00038909912109375
ell 203, elapsed: 0.00047016143798828125
ell 202, elapsed: 0.0004570484161376953
ell 201, elapsed: 0.0006401538848876953
ell 200, elapsed: 0.0005869865417480469
ell 199, elapsed: 0.007395029067993164
ell 198, elapsed: 0.0004551410675048828
ell 197, elapsed: 0.0007112026214599609
ell 196, elapsed: 0.0005879402160644531
ell 195, elapsed: 0.0005550384521484375
ell 194, elapsed: 0.0005450248718261719
ell 193, elapsed: 0.0005681514739990234
ell 192, elapsed: 0.0003859996795654297
ell 191, elapsed: 0.000843048095703125
ell 190, elapsed: 0.0003998279571533203
ell 189, elapsed: 0.00067901611328125
ell 188, elapsed: 0.00036597251892089844
ell 187, elapsed: 0.00035119056701660156
ell 186, elapsed: 0.0002808570861816406
ell 185, elapsed: 0.0003380775451660156
ell 184, elapsed: 0.00028204917907714844
ell 183, elapsed: 0.0003380775451660156
ell 182, elapsed: 0.00038123130798339844
ell 181, elapsed: 0.0003600120544433594
ell 180, elapsed: 0.00029087066650390625
ell 179, elapsed: 0.0003609657287597656
ell 178, elapsed: 0.00029397010803222656
ell 177, elapsed: 0.00035309791564941406
ell 176, elapsed: 0.00029087066650390625
ell 175, elapsed: 0.00035691261291503906
ell 174, elapsed: 0.0002911090850830078
ell 173, elapsed: 0.0003590583801269531
ell 172, elapsed: 0.00029087066650390625
ell 171, elapsed: 0.0003809928894042969
ell 170, elapsed: 0.0003228187561035156
ell 169, elapsed: 0.00045299530029296875
ell 168, elapsed: 0.0003249645233154297
ell 167, elapsed: 0.0003688335418701172
ell 166, elapsed: 0.00031304359436035156
ell 165, elapsed: 0.00036978721618652344
ell 164, elapsed: 0.0003039836883544922
ell 163, elapsed: 0.00037217140197753906
ell 162, elapsed: 0.00038313865661621094
ell 161, elapsed: 0.0004820823669433594
ell 160, elapsed: 0.0003039836883544922
ell 159, elapsed: 0.0003600120544433594
ell 158, elapsed: 0.0003559589385986328
ell 157, elapsed: 0.0003750324249267578
ell 156, elapsed: 0.000308990478515625
ell 155, elapsed: 0.00038504600524902344
ell 154, elapsed: 0.0003190040588378906
ell 153, elapsed: 0.0003800392150878906
ell 152, elapsed: 0.00031304359436035156
ell 151, elapsed: 0.0003781318664550781
ell 150, elapsed: 0.00034999847412109375
ell 149, elapsed: 0.0005388259887695312
ell 148, elapsed: 0.00040411949157714844
ell 147, elapsed: 0.0003750324249267578
ell 146, elapsed: 0.0003070831298828125
ell 145, elapsed: 0.00037288665771484375
ell 144, elapsed: 0.0003211498260498047
ell 143, elapsed: 0.0004031658172607422
ell 142, elapsed: 0.0003910064697265625
ell 141, elapsed: 0.0005800724029541016
ell 140, elapsed: 0.0003809928894042969
ell 139, elapsed: 0.0005638599395751953
ell 138, elapsed: 0.0004909038543701172
ell 137, elapsed: 0.00034999847412109375
ell 136, elapsed: 0.0002830028533935547
ell 135, elapsed: 0.00034308433532714844
ell 134, elapsed: 0.00028395652770996094
ell 133, elapsed: 0.0003428459167480469
ell 132, elapsed: 0.00028204917907714844
ell 131, elapsed: 0.00047206878662109375
ell 130, elapsed: 0.0002999305725097656
ell 129, elapsed: 0.0003631114959716797
ell 128, elapsed: 0.0002989768981933594
ell 127, elapsed: 0.0003590583801269531
ell 126, elapsed: 0.0004019737243652344
ell 125, elapsed: 0.0005381107330322266
ell 124, elapsed: 0.0003018379211425781
ell 123, elapsed: 0.00036787986755371094
ell 122, elapsed: 0.0002989768981933594
ell 121, elapsed: 0.0003991127014160156
ell 120, elapsed: 0.0002999305725097656
ell 119, elapsed: 0.00036215782165527344
ell 118, elapsed: 0.0002980232238769531
ell 117, elapsed: 0.0003540515899658203
ell 116, elapsed: 0.0003070831298828125
ell 115, elapsed: 0.00038504600524902344
ell 114, elapsed: 0.00031304359436035156
ell 113, elapsed: 0.000370025634765625
ell 112, elapsed: 0.00030303001403808594
ell 111, elapsed: 0.00036215782165527344
ell 110, elapsed: 0.00033402442932128906
ell 109, elapsed: 0.0003809928894042969
ell 108, elapsed: 0.0002970695495605469
ell 107, elapsed: 0.0003600120544433594
ell 106, elapsed: 0.0002980232238769531
ell 105, elapsed: 0.00047707557678222656
ell 104, elapsed: 0.00044918060302734375
ell 103, elapsed: 0.0003800392150878906
ell 102, elapsed: 0.0002989768981933594
ell 101, elapsed: 0.0003609657287597656
ell 100, elapsed: 0.00032401084899902344
ell 99, elapsed: 0.0003650188446044922
ell 98, elapsed: 0.0002961158752441406
ell 97, elapsed: 0.0003578662872314453
ell 96, elapsed: 0.0002980232238769531
ell 95, elapsed: 0.00035500526428222656
ell 94, elapsed: 0.00029587745666503906
ell 93, elapsed: 0.0003600120544433594
ell 92, elapsed: 0.0002989768981933594
ell 91, elapsed: 0.0003612041473388672
ell 90, elapsed: 0.0002999305725097656
ell 89, elapsed: 0.0003829002380371094
ell 88, elapsed: 0.0002970695495605469
ell 87, elapsed: 0.0004260540008544922
ell 86, elapsed: 0.00033402442932128906
ell 85, elapsed: 0.0006649494171142578
ell 84, elapsed: 0.0005609989166259766
ell 83, elapsed: 0.0006380081176757812
ell 82, elapsed: 0.0005390644073486328
ell 81, elapsed: 0.0006089210510253906
ell 80, elapsed: 0.00040984153747558594
ell 79, elapsed: 0.0005929470062255859
ell 78, elapsed: 0.0005888938903808594
ell 77, elapsed: 0.0005249977111816406
ell 76, elapsed: 0.0005362033843994141
ell 75, elapsed: 0.0006690025329589844
ell 74, elapsed: 0.00043892860412597656
ell 73, elapsed: 0.0006670951843261719
ell 72, elapsed: 0.00039887428283691406
ell 71, elapsed: 0.0004799365997314453
ell 70, elapsed: 0.00039887428283691406
ell 69, elapsed: 0.00047278404235839844
ell 68, elapsed: 0.0003941059112548828
ell 67, elapsed: 0.0006120204925537109
ell 66, elapsed: 0.0005819797515869141
ell 65, elapsed: 0.0006270408630371094
ell 64, elapsed: 0.0006039142608642578
ell 63, elapsed: 0.0006148815155029297
ell 62, elapsed: 0.0005018711090087891
ell 61, elapsed: 0.0008020401000976562
ell 60, elapsed: 0.0003590583801269531
ell 59, elapsed: 0.0004329681396484375
ell 58, elapsed: 0.00037217140197753906
ell 57, elapsed: 0.0006520748138427734
ell 56, elapsed: 0.00047087669372558594
ell 55, elapsed: 0.0006868839263916016
ell 54, elapsed: 0.0005919933319091797
ell 53, elapsed: 0.0006220340728759766
ell 52, elapsed: 0.0005168914794921875
ell 51, elapsed: 0.0004611015319824219
ell 50, elapsed: 0.00038695335388183594
ell 49, elapsed: 0.0004589557647705078
ell 48, elapsed: 0.0003838539123535156
ell 47, elapsed: 0.0004680156707763672
ell 46, elapsed: 0.0005781650543212891
ell 45, elapsed: 0.00047588348388671875
ell 44, elapsed: 0.0003910064697265625
ell 43, elapsed: 0.0004730224609375
ell 42, elapsed: 0.0003859996795654297
ell 41, elapsed: 0.0006330013275146484
ell 40, elapsed: 0.0004620552062988281
ell 39, elapsed: 0.0007908344268798828
ell 38, elapsed: 0.0004069805145263672
ell 37, elapsed: 0.0004830360412597656
ell 36, elapsed: 0.0003910064697265625
ell 35, elapsed: 0.0004801750183105469
ell 34, elapsed: 0.0003941059112548828
ell 33, elapsed: 0.00047779083251953125
ell 32, elapsed: 0.00038504600524902344
ell 31, elapsed: 0.00046896934509277344
ell 30, elapsed: 0.0005400180816650391
ell 29, elapsed: 0.000476837158203125
ell 28, elapsed: 0.00039386749267578125
ell 27, elapsed: 0.0004730224609375
ell 26, elapsed: 0.0004520416259765625
ell 25, elapsed: 0.0007297992706298828
ell 24, elapsed: 0.0005421638488769531
ell 23, elapsed: 0.0006399154663085938
ell 22, elapsed: 0.0005650520324707031
ell 21, elapsed: 0.0005640983581542969
ell 20, elapsed: 0.00039315223693847656
ell 19, elapsed: 0.00047206878662109375
ell 18, elapsed: 0.000392913818359375
ell 17, elapsed: 0.00047206878662109375
ell 16, elapsed: 0.0003960132598876953
ell 15, elapsed: 0.0006260871887207031
ell 14, elapsed: 0.00048804283142089844
ell 13, elapsed: 0.0007379055023193359
ell 12, elapsed: 0.0006158351898193359
ell 11, elapsed: 0.0007281303405761719
ell 10, elapsed: 0.00046706199645996094
ell 9, elapsed: 0.0008978843688964844
ell 8, elapsed: 0.0003941059112548828
ell 7, elapsed: 0.00048089027404785156
ell 6, elapsed: 0.00039315223693847656
ell 5, elapsed: 0.0004870891571044922
ell 4, elapsed: 0.0003979206085205078
ell 3, elapsed: 0.0004830360412597656
ell 2, elapsed: 0.0005409717559814453
ell 1, elapsed: 0.0006170272827148438
ell 0, elapsed: 0.00061798095703125
  0.686765 seconds (41.19 k allocations: 2.939 MiB)
elapsed: 0.0008671283721923828
step:          0.070905 sec (0 allocations: 0 byte, 0.0% gc time)
swapping:      0.000941 sec (0 allocations: 0 byte, 0.0% gc time)
calc_Mellell!: 0.011341 sec (0 allocations: 0 byte, 0.0% gc time)
  t0 :  0.003026 sec (0 allocations: 0 byte, 0.0% gc time)
  tm2 : 0.107238 sec (0 allocations: 0 byte, 0.0% gc time)
  tm2s: 0.002299 sec (0 allocations: 0 byte, 0.0% gc time)
  tm4 : 0.278125 sec (0 allocations: 0 byte, 0.0% gc time)
  tp2 : 0.0 sec (0 allocations: 0 byte, 0.0% gc time)
  tp2s: 0.0 sec (0 allocations: 0 byte, 0.0% gc time)
  tp4 : 0.0 sec (0 allocations: 0 byte, 0.0% gc time)
calc_wtdll!:   0.408706 sec (9.87 k allocations: 1.043 MB, 0.0% gc time)
calc_wljj!:    0.044747 sec (689 allocations: 10.766 KB, 0.0% gc time)
mult_prefac!:  0.0 sec (0 allocations: 0 byte, 0.0% gc time)
convert:       0.0 sec (0 allocations: 0 byte, 0.0% gc time)
write:         0.062534 sec (0 allocations: 0 byte, 0.0% gc time)
test_rand_2f1: 0.0 sec (0 allocations: 0 byte, 0.0% gc time)
Closing outfile out/Ml21-cache.bin...   0.032113 seconds
  0.000335 seconds (52 allocations: 28.297 KiB)
make_phi():   0.002393 seconds (8.20 k allocations: 238.016 KiB)
  0.186012 seconds (146.69 k allocations: 3.629 MiB)
tskip:       0.000894 sec (0 allocations: 0 byte, 0.0% gc time)
tread:       0.025238 sec (19 allocations: 10.688 KB, 0.0% gc time)
tmultphi:    0.013864 sec (0 allocations: 0 byte, 0.0% gc time)
tbrfft:      0.047542 sec (9.592 k allocations: 449.625 KB, 0.0% gc time)
tmultprefac: 0.0412 sec (0 allocations: 0 byte, 0.0% gc time)
toutfunc:    0.055266 sec (129.905 k allocations: 2.421 MB, 0.0% gc time)
Testing R=1.0 ... passed
Calculating fmax: 
  dlrec    = 4
  dlrecRg1 = -4
  q=1.1, R=0.9:	  0.476120 seconds (116.47 k allocations: 15.614 MiB)

  0.476427 seconds (116.50 k allocations: 15.647 MiB)
ℓ = 1202
Δℓ = 4
ΔℓRg1 = -4
N = 1600
q = 1.1
kmin = 1.0e-5
kmax = 100000.00000000004
χ0 = 0.023029999999999995
RR = RR.tsv
ℓmax = ℓmax.bin
f21 = f21.bin
kmin = 1.0e-5
kmax = 100000.0
dlrec    = 4
dlrecRg1 = -4
Output size: 5741568 bytes = 0.005347251892089844 GiB
Output size: 51264 bytes = 4.774332046508789e-5 GiB
Reading 'out/F21EllCache'...   0.001086 seconds (267 allocations: 84.656 KiB)
ellmax: 1202
lmaxcache: 1202
fell[:,1,1] = Complex{Float64}[1.3482014726274674e-57 - 3.302141236118086e-73im, 1.357860004724329e-57 - 3.3257978169518355e-73im]
ell 1202, elapsed: 2.288818359375e-5
ell 1201, elapsed: 0.0005280971527099609
ell 1200, elapsed: 0.0005960464477539062
ell 1199, elapsed: 0.0005228519439697266
ell 1198, elapsed: 0.0005390644073486328
ell 1002, elapsed: 0.009914875030517578
ell 1001, elapsed: 0.00045299530029296875
ell 1000, elapsed: 0.0005440711975097656
ell 999, elapsed: 0.0005228519439697266
ell 998, elapsed: 0.0004630088806152344
ell 902, elapsed: 0.005070209503173828
ell 901, elapsed: 0.0004699230194091797
ell 900, elapsed: 0.0005469322204589844
ell 899, elapsed: 0.00042510032653808594
ell 898, elapsed: 0.0005497932434082031
ell 802, elapsed: 0.00528407096862793
ell 801, elapsed: 0.0005011558532714844
ell 800, elapsed: 0.0005750656127929688
ell 799, elapsed: 0.0005750656127929688
ell 798, elapsed: 0.0005629062652587891
ell 702, elapsed: 0.0055310726165771484
ell 701, elapsed: 0.0005159378051757812
ell 700, elapsed: 0.00047397613525390625
ell 699, elapsed: 0.00049591064453125
ell 698, elapsed: 0.0004889965057373047
ell 602, elapsed: 0.005602121353149414
ell 601, elapsed: 0.0003669261932373047
ell 600, elapsed: 0.00044798851013183594
ell 599, elapsed: 0.0005679130554199219
ell 598, elapsed: 0.000614166259765625
ell 502, elapsed: 0.005465984344482422
ell 501, elapsed: 0.0005249977111816406
ell 500, elapsed: 0.0005450248718261719
ell 499, elapsed: 0.0003619194030761719
ell 498, elapsed: 0.0004780292510986328
ell 402, elapsed: 0.0054399967193603516
ell 401, elapsed: 0.00037407875061035156
ell 400, elapsed: 0.0003619194030761719
ell 399, elapsed: 0.0003612041473388672
ell 398, elapsed: 0.0003578662872314453
ell 302, elapsed: 0.00525212287902832
ell 301, elapsed: 0.000537872314453125
ell 300, elapsed: 0.0005707740783691406
ell 299, elapsed: 0.0004470348358154297
ell 298, elapsed: 0.0003559589385986328
ell 202, elapsed: 0.005335092544555664
ell 201, elapsed: 0.0003771781921386719
ell 200, elapsed: 0.0004699230194091797
ell 199, elapsed: 0.0005650520324707031
ell 198, elapsed: 0.0005059242248535156
ell 152, elapsed: 0.0028579235076904297
ell 151, elapsed: 0.00038909912109375
ell 150, elapsed: 0.00036597251892089844
ell 149, elapsed: 0.0004439353942871094
ell 148, elapsed: 0.0005450248718261719
ell 127, elapsed: 0.001600027084350586
ell 126, elapsed: 0.0003669261932373047
ell 125, elapsed: 0.0004470348358154297
ell 124, elapsed: 0.0005388259887695312
ell 123, elapsed: 0.0005309581756591797
ell 114, elapsed: 0.0012459754943847656
ell 113, elapsed: 0.00047087669372558594
ell 112, elapsed: 0.0005841255187988281
ell 111, elapsed: 0.0005710124969482422
ell 110, elapsed: 0.0004680156707763672
ell 102, elapsed: 0.0011310577392578125
ell 101, elapsed: 0.0005040168762207031
ell 100, elapsed: 0.0005879402160644531
ell 99, elapsed: 0.0005791187286376953
ell 98, elapsed: 0.0005011558532714844
ell 97, elapsed: 0.00041604042053222656
ell 96, elapsed: 0.0006799697875976562
ell 95, elapsed: 0.0005269050598144531
ell 94, elapsed: 0.0007431507110595703
ell 93, elapsed: 0.0006468296051025391
ell 92, elapsed: 0.0006589889526367188
ell 91, elapsed: 0.0006058216094970703
ell 90, elapsed: 0.00080108642578125
ell 89, elapsed: 0.000614166259765625
ell 88, elapsed: 0.0007770061492919922
ell 87, elapsed: 0.0005559921264648438
ell 86, elapsed: 0.0005738735198974609
ell 85, elapsed: 0.0006508827209472656
ell 84, elapsed: 0.0006020069122314453
ell 83, elapsed: 0.0005669593811035156
ell 82, elapsed: 0.0007548332214355469
ell 81, elapsed: 0.0006411075592041016
ell 80, elapsed: 0.0007581710815429688
ell 79, elapsed: 0.0006301403045654297
ell 78, elapsed: 0.0007569789886474609
ell 77, elapsed: 0.0005710124969482422
ell 76, elapsed: 0.0006971359252929688
ell 75, elapsed: 0.0006220340728759766
ell 74, elapsed: 0.0007290840148925781
ell 73, elapsed: 0.0006110668182373047
ell 72, elapsed: 0.0007719993591308594
ell 71, elapsed: 0.0006110668182373047
ell 70, elapsed: 0.0007410049438476562
ell 69, elapsed: 0.000614166259765625
ell 68, elapsed: 0.0007479190826416016
ell 67, elapsed: 0.0005431175231933594
ell 66, elapsed: 0.0007638931274414062
ell 65, elapsed: 0.0005011558532714844
ell 64, elapsed: 0.0006570816040039062
ell 63, elapsed: 0.000614166259765625
ell 62, elapsed: 0.0006160736083984375
ell 61, elapsed: 0.0005409717559814453
ell 60, elapsed: 0.0007619857788085938
ell 59, elapsed: 0.0004971027374267578
ell 58, elapsed: 0.0006098747253417969
ell 57, elapsed: 0.0006101131439208984
ell 56, elapsed: 0.0007429122924804688
ell 55, elapsed: 0.0006120204925537109
ell 54, elapsed: 0.0007641315460205078
ell 53, elapsed: 0.0006270408630371094
ell 52, elapsed: 0.0007369518280029297
ell 51, elapsed: 0.0006191730499267578
ell 50, elapsed: 0.0007519721984863281
ell 49, elapsed: 0.0006389617919921875
ell 48, elapsed: 0.0007650852203369141
ell 47, elapsed: 0.0006320476531982422
ell 46, elapsed: 0.0007479190826416016
ell 45, elapsed: 0.0006170272827148438
ell 44, elapsed: 0.0005791187286376953
ell 43, elapsed: 0.0005199909210205078
ell 42, elapsed: 0.0007469654083251953
ell 41, elapsed: 0.0006220340728759766
ell 40, elapsed: 0.0006330013275146484
ell 39, elapsed: 0.0004010200500488281
ell 38, elapsed: 0.0006289482116699219
ell 37, elapsed: 0.0005910396575927734
ell 36, elapsed: 0.0005948543548583984
ell 35, elapsed: 0.0005478858947753906
ell 34, elapsed: 0.0006659030914306641
ell 33, elapsed: 0.0005919933319091797
ell 32, elapsed: 0.0006008148193359375
ell 31, elapsed: 0.0003972053527832031
ell 30, elapsed: 0.0006151199340820312
ell 29, elapsed: 0.0005209445953369141
ell 28, elapsed: 0.0006339550018310547
ell 27, elapsed: 0.0006091594696044922
ell 26, elapsed: 0.0006070137023925781
ell 25, elapsed: 0.0004601478576660156
ell 24, elapsed: 0.0006899833679199219
ell 23, elapsed: 0.00048089027404785156
ell 22, elapsed: 0.0007221698760986328
ell 21, elapsed: 0.0004889965057373047
ell 20, elapsed: 0.0004780292510986328
ell 19, elapsed: 0.0005500316619873047
ell 18, elapsed: 0.0005750656127929688
ell 17, elapsed: 0.000514984130859375
ell 16, elapsed: 0.0007309913635253906
ell 15, elapsed: 0.0006098747253417969
ell 14, elapsed: 0.0007319450378417969
ell 13, elapsed: 0.00055694580078125
ell 12, elapsed: 0.0007460117340087891
ell 11, elapsed: 0.0005259513854980469
ell 10, elapsed: 0.0006999969482421875
ell 9, elapsed: 0.0005249977111816406
ell 8, elapsed: 0.0006818771362304688
ell 7, elapsed: 0.0006310939788818359
ell 6, elapsed: 0.0007579326629638672
ell 5, elapsed: 0.0006239414215087891
ell 4, elapsed: 0.0007441043853759766
ell 3, elapsed: 0.0006248950958251953
ell 2, elapsed: 0.00074005126953125
ell 1, elapsed: 0.0006160736083984375
ell 0, elapsed: 0.0008540153503417969
  0.157337 seconds (10.83 k allocations: 697.938 KiB)
elapsed: 0.0005769729614257812
step:          0.061642 sec (0 allocations: 0 byte, 0.0% gc time)
swapping:      0.000587 sec (0 allocations: 0 byte, 0.0% gc time)
calc_Mellell!: 0.001883 sec (0 allocations: 0 byte, 0.0% gc time)
  t0 :  0.000552 sec (0 allocations: 0 byte, 0.0% gc time)
  tm2 : 0.01721 sec (0 allocations: 0 byte, 0.0% gc time)
  tm2s: 0.000425 sec (0 allocations: 0 byte, 0.0% gc time)
  tm4 : 0.047608 sec (0 allocations: 0 byte, 0.0% gc time)
  tp2 : 0.0 sec (0 allocations: 0 byte, 0.0% gc time)
  tp2s: 0.0 sec (0 allocations: 0 byte, 0.0% gc time)
  tp4 : 0.0 sec (0 allocations: 0 byte, 0.0% gc time)
calc_wtdll!:   0.066444 sec (1.344 k allocations: 147.0 KB, 0.0% gc time)
calc_wljj!:    0.005336 sec (6 allocations: 96 byte, 0.0% gc time)
mult_prefac!:  0.0 sec (0 allocations: 0 byte, 0.0% gc time)
convert:       0.0 sec (0 allocations: 0 byte, 0.0% gc time)
write:         0.007182 sec (0 allocations: 0 byte, 0.0% gc time)
test_rand_2f1: 0.0 sec (0 allocations: 0 byte, 0.0% gc time)
Closing outfile out/Ml21-cache.bin...   0.003889 seconds
  0.000258 seconds (52 allocations: 28.297 KiB)
make_phi():   0.002934 seconds (8.20 k allocations: 238.016 KiB)
  0.017436 seconds (12.10 k allocations: 322.000 KiB)
tskip:       2.4e-5 sec (0 allocations: 0 byte, 0.0% gc time)
tread:       0.002693 sec (19 allocations: 2.172 KB, 0.0% gc time)
tmultphi:    0.001192 sec (0 allocations: 0 byte, 0.0% gc time)
tbrfft:      0.004197 sec (896 allocations: 42.0 KB, 0.0% gc time)
tmultprefac: 0.003551 sec (0 allocations: 0 byte, 0.0% gc time)
toutfunc:    0.005824 sec (10.528 k allocations: 206.5 KB, 0.0% gc time)
Testing R=0.9 ... passed
Calculating fmax: 
  dlrec    = 4
  dlrecRg1 = -4
  q=1.1, R=0.8:	  0.363083 seconds (113.61 k allocations: 15.166 MiB)

  0.363340 seconds (113.65 k allocations: 15.200 MiB)
ℓ = 1202
Δℓ = 4
ΔℓRg1 = -4
N = 1600
q = 1.1
kmin = 1.0e-5
kmax = 100000.00000000004
χ0 = 0.023029999999999995
RR = RR.tsv
ℓmax = ℓmax.bin
f21 = f21.bin
kmin = 1.0e-5
kmax = 100000.0
dlrec    = 4
dlrecRg1 = -4
Output size: 5741568 bytes = 0.005347251892089844 GiB
Output size: 51264 bytes = 4.774332046508789e-5 GiB
Reading 'out/F21EllCache'...   0.001241 seconds (267 allocations: 84.656 KiB)
ellmax: 1202
lmaxcache: 1202
fell[:,1,1] = Complex{Float64}[7.519068145690986e-120 - 1.8416405474382574e-135im, 7.541664537386155e-120 - 1.847175067190611e-135im]
ell 1202, elapsed: 1.9073486328125e-5
ell 1201, elapsed: 0.0005791187286376953
ell 1200, elapsed: 0.0006220340728759766
ell 1199, elapsed: 0.0006260871887207031
ell 1198, elapsed: 0.0006139278411865234
ell 1002, elapsed: 0.010796070098876953
ell 1001, elapsed: 0.0005161762237548828
ell 1000, elapsed: 0.0005080699920654297
ell 999, elapsed: 0.0005030632019042969
ell 998, elapsed: 0.0004591941833496094
ell 902, elapsed: 0.004998922348022461
ell 901, elapsed: 0.0005519390106201172
ell 900, elapsed: 0.0005578994750976562
ell 899, elapsed: 0.0005600452423095703
ell 898, elapsed: 0.0006830692291259766
ell 802, elapsed: 0.005750894546508789
ell 801, elapsed: 0.0005140304565429688
ell 800, elapsed: 0.0005559921264648438
ell 799, elapsed: 0.0005130767822265625
ell 798, elapsed: 0.0006718635559082031
ell 702, elapsed: 0.00527501106262207
ell 701, elapsed: 0.000537872314453125
ell 700, elapsed: 0.000553131103515625
ell 699, elapsed: 0.0005481243133544922
ell 698, elapsed: 0.0006699562072753906
ell 602, elapsed: 0.005467891693115234
ell 601, elapsed: 0.00038504600524902344
ell 600, elapsed: 0.0004820823669433594
ell 599, elapsed: 0.000476837158203125
ell 598, elapsed: 0.0004968643188476562
ell 502, elapsed: 0.0054399967193603516
ell 501, elapsed: 0.0004401206970214844
ell 500, elapsed: 0.0005638599395751953
ell 499, elapsed: 0.0005178451538085938
ell 498, elapsed: 0.00048613548278808594
ell 402, elapsed: 0.005515098571777344
ell 401, elapsed: 0.0005037784576416016
ell 400, elapsed: 0.0005118846893310547
ell 399, elapsed: 0.0004730224609375
ell 398, elapsed: 0.0004820823669433594
ell 302, elapsed: 0.005072832107543945
ell 301, elapsed: 0.0003788471221923828
ell 300, elapsed: 0.00034499168395996094
ell 299, elapsed: 0.0003418922424316406
ell 298, elapsed: 0.0003368854522705078
ell 202, elapsed: 0.005211830139160156
ell 201, elapsed: 0.0004410743713378906
ell 200, elapsed: 0.0005829334259033203
ell 199, elapsed: 0.0005688667297363281
ell 198, elapsed: 0.0005629062652587891
ell 152, elapsed: 0.0027849674224853516
ell 151, elapsed: 0.0004639625549316406
ell 150, elapsed: 0.0005559921264648438
ell 149, elapsed: 0.0005509853363037109
ell 148, elapsed: 0.0005521774291992188
ell 127, elapsed: 0.0018360614776611328
ell 126, elapsed: 0.00048804283142089844
ell 125, elapsed: 0.0005519390106201172
ell 124, elapsed: 0.0005490779876708984
ell 123, elapsed: 0.0005509853363037109
ell 114, elapsed: 0.0010848045349121094
ell 113, elapsed: 0.0003781318664550781
ell 112, elapsed: 0.0004558563232421875
ell 111, elapsed: 0.0005080699920654297
ell 110, elapsed: 0.0004379749298095703
ell 102, elapsed: 0.0010428428649902344
ell 101, elapsed: 0.000431060791015625
ell 100, elapsed: 0.0006070137023925781
ell 99, elapsed: 0.000431060791015625
ell 98, elapsed: 0.00035381317138671875
ell 97, elapsed: 0.0005218982696533203
ell 96, elapsed: 0.0007948875427246094
ell 95, elapsed: 0.00057220458984375
ell 94, elapsed: 0.0006539821624755859
ell 93, elapsed: 0.00041294097900390625
ell 92, elapsed: 0.0006310939788818359
ell 91, elapsed: 0.0005002021789550781
ell 90, elapsed: 0.0004870891571044922
ell 89, elapsed: 0.0005600452423095703
ell 88, elapsed: 0.0005970001220703125
ell 87, elapsed: 0.0004820823669433594
ell 86, elapsed: 0.0006802082061767578
ell 85, elapsed: 0.0005609989166259766
ell 84, elapsed: 0.000576019287109375
ell 83, elapsed: 0.0005018711090087891
ell 82, elapsed: 0.0006401538848876953
ell 81, elapsed: 0.0004029273986816406
ell 80, elapsed: 0.0006749629974365234
ell 79, elapsed: 0.0006339550018310547
ell 78, elapsed: 0.0007450580596923828
ell 77, elapsed: 0.0004699230194091797
ell 76, elapsed: 0.0006999969482421875
ell 75, elapsed: 0.0006170272827148438
ell 74, elapsed: 0.0007581710815429688
ell 73, elapsed: 0.0005199909210205078
ell 72, elapsed: 0.0006740093231201172
ell 71, elapsed: 0.0004911422729492188
ell 70, elapsed: 0.0006630420684814453
ell 69, elapsed: 0.0006098747253417969
ell 68, elapsed: 0.0007891654968261719
ell 67, elapsed: 0.0006120204925537109
ell 66, elapsed: 0.0006728172302246094
ell 65, elapsed: 0.0005631446838378906
ell 64, elapsed: 0.0007340908050537109
ell 63, elapsed: 0.0006189346313476562
ell 62, elapsed: 0.0007698535919189453
ell 61, elapsed: 0.0006160736083984375
ell 60, elapsed: 0.0006430149078369141
ell 59, elapsed: 0.0004980564117431641
ell 58, elapsed: 0.0007398128509521484
ell 57, elapsed: 0.0005090236663818359
ell 56, elapsed: 0.0004999637603759766
ell 55, elapsed: 0.00051116943359375
ell 54, elapsed: 0.0007431507110595703
ell 53, elapsed: 0.0006220340728759766
ell 52, elapsed: 0.0007419586181640625
ell 51, elapsed: 0.0005040168762207031
ell 50, elapsed: 0.0007100105285644531
ell 49, elapsed: 0.0006170272827148438
ell 48, elapsed: 0.0007281303405761719
ell 47, elapsed: 0.000514984130859375
ell 46, elapsed: 0.0006778240203857422
ell 45, elapsed: 0.0004909038543701172
ell 44, elapsed: 0.0007970333099365234
ell 43, elapsed: 0.00047206878662109375
ell 42, elapsed: 0.0006499290466308594
ell 41, elapsed: 0.0004849433898925781
ell 40, elapsed: 0.0006740093231201172
ell 39, elapsed: 0.0004990100860595703
ell 38, elapsed: 0.000492095947265625
ell 37, elapsed: 0.00041794776916503906
ell 36, elapsed: 0.0006651878356933594
ell 35, elapsed: 0.0005209445953369141
ell 34, elapsed: 0.0006690025329589844
ell 33, elapsed: 0.0006098747253417969
ell 32, elapsed: 0.0006380081176757812
ell 31, elapsed: 0.0005750656127929688
ell 30, elapsed: 0.0005869865417480469
ell 29, elapsed: 0.0005879402160644531
ell 28, elapsed: 0.0005769729614257812
ell 27, elapsed: 0.0005359649658203125
ell 26, elapsed: 0.0006439685821533203
ell 25, elapsed: 0.00043201446533203125
ell 24, elapsed: 0.0005011558532714844
ell 23, elapsed: 0.000392913818359375
ell 22, elapsed: 0.0006339550018310547
ell 21, elapsed: 0.0006279945373535156
ell 20, elapsed: 0.0007340908050537109
ell 19, elapsed: 0.0006248950958251953
ell 18, elapsed: 0.0006411075592041016
ell 17, elapsed: 0.0004658699035644531
ell 16, elapsed: 0.0007460117340087891
ell 15, elapsed: 0.0004730224609375
ell 14, elapsed: 0.0006010532379150391
ell 13, elapsed: 0.0005381107330322266
[...]
ell 788, elapsed: 0.0007441043853759766
ell 782, elapsed: 0.0011470317840576172
ell 781, elapsed: 0.0006241798400878906
ell 780, elapsed: 0.0006258487701416016
ell 779, elapsed: 0.0006229877471923828
ell 778, elapsed: 0.0008199214935302734
ell 772, elapsed: 0.0012049674987792969
ell 771, elapsed: 0.0006749629974365234
ell 770, elapsed: 0.0006780624389648438
ell 769, elapsed: 0.0006709098815917969
ell 768, elapsed: 0.0006890296936035156
ell 762, elapsed: 0.0012481212615966797
ell 761, elapsed: 0.0006761550903320312
ell 760, elapsed: 0.0006699562072753906
ell 759, elapsed: 0.000659942626953125
ell 758, elapsed: 0.0006771087646484375
ell 752, elapsed: 0.0011861324310302734
ell 751, elapsed: 0.0006399154663085938
ell 750, elapsed: 0.0006389617919921875
ell 749, elapsed: 0.0006380081176757812
ell 748, elapsed: 0.0006670951843261719
ell 742, elapsed: 0.0011610984802246094
ell 741, elapsed: 0.000637054443359375
ell 740, elapsed: 0.0006399154663085938
ell 739, elapsed: 0.0006339550018310547
ell 738, elapsed: 0.0006802082061767578
ell 732, elapsed: 0.001180887222290039
ell 731, elapsed: 0.0006451606750488281
ell 730, elapsed: 0.0006420612335205078
ell 729, elapsed: 0.0006330013275146484
ell 728, elapsed: 0.0006971359252929688
ell 722, elapsed: 0.0011990070343017578
ell 721, elapsed: 0.0006451606750488281
ell 720, elapsed: 0.0006401538848876953
ell 719, elapsed: 0.0006358623504638672
ell 718, elapsed: 0.0006999969482421875
ell 712, elapsed: 0.0011889934539794922
ell 711, elapsed: 0.0006411075592041016
ell 710, elapsed: 0.0006392002105712891
ell 709, elapsed: 0.0006389617919921875
ell 708, elapsed: 0.0006940364837646484
ell 702, elapsed: 0.001165151596069336
ell 701, elapsed: 0.0006330013275146484
ell 700, elapsed: 0.0006420612335205078
ell 699, elapsed: 0.0006318092346191406
ell 698, elapsed: 0.0006821155548095703
ell 692, elapsed: 0.0011909008026123047
ell 691, elapsed: 0.0006592273712158203
ell 690, elapsed: 0.0006668567657470703
ell 689, elapsed: 0.0006580352783203125
ell 688, elapsed: 0.0006890296936035156
ell 682, elapsed: 0.001188039779663086
ell 681, elapsed: 0.0006639957427978516
ell 680, elapsed: 0.0006661415100097656
ell 679, elapsed: 0.0006542205810546875
ell 678, elapsed: 0.0006921291351318359
ell 672, elapsed: 0.0011830329895019531
ell 671, elapsed: 0.0006690025329589844
ell 670, elapsed: 0.0006701946258544922
ell 669, elapsed: 0.0006568431854248047
ell 668, elapsed: 0.0006859302520751953
ell 662, elapsed: 0.0011801719665527344
ell 661, elapsed: 0.0007491111755371094
ell 660, elapsed: 0.0009720325469970703
ell 659, elapsed: 0.0009989738464355469
ell 658, elapsed: 0.0009760856628417969
ell 652, elapsed: 0.0018541812896728516
ell 651, elapsed: 0.0010612010955810547
ell 650, elapsed: 0.0009679794311523438
ell 649, elapsed: 0.0009679794311523438
ell 648, elapsed: 0.0009698867797851562
ell 642, elapsed: 0.0017468929290771484
ell 641, elapsed: 0.0009050369262695312
ell 640, elapsed: 0.0009160041809082031
ell 639, elapsed: 0.0009219646453857422
ell 638, elapsed: 0.0009150505065917969
ell 632, elapsed: 0.0019578933715820312
ell 631, elapsed: 0.0011150836944580078
ell 630, elapsed: 0.0008399486541748047
ell 629, elapsed: 0.0009241104125976562
ell 628, elapsed: 0.000926971435546875
ell 622, elapsed: 0.0023140907287597656
ell 621, elapsed: 0.0009238719940185547
ell 620, elapsed: 0.0009191036224365234
ell 619, elapsed: 0.0014290809631347656
ell 618, elapsed: 0.00092315673828125
ell 612, elapsed: 0.0017249584197998047
ell 611, elapsed: 0.0014469623565673828
ell 610, elapsed: 0.00092315673828125
ell 609, elapsed: 0.0009229183197021484
ell 608, elapsed: 0.0009250640869140625
ell 602, elapsed: 0.0017631053924560547
ell 601, elapsed: 0.0009279251098632812
ell 600, elapsed: 0.0014529228210449219
ell 599, elapsed: 0.0009338855743408203
ell 598, elapsed: 0.0009241104125976562
ell 592, elapsed: 0.0023059844970703125
ell 591, elapsed: 0.0008568763732910156
ell 590, elapsed: 0.000904083251953125
ell 589, elapsed: 0.0009140968322753906
ell 588, elapsed: 0.0014178752899169922
ell 582, elapsed: 0.0019259452819824219
ell 581, elapsed: 0.0014379024505615234
ell 580, elapsed: 0.0009140968322753906
ell 579, elapsed: 0.0009081363677978516
ell 578, elapsed: 0.0009050369262695312
ell 572, elapsed: 0.0022618770599365234
ell 571, elapsed: 0.0009160041809082031
ell 570, elapsed: 0.0009100437164306641
ell 569, elapsed: 0.0014369487762451172
ell 568, elapsed: 0.000926971435546875
ell 562, elapsed: 0.002270936965942383
ell 561, elapsed: 0.0009329319000244141
ell 560, elapsed: 0.0009238719940185547
ell 559, elapsed: 0.0009248256683349609
ell 558, elapsed: 0.001447916030883789
ell 552, elapsed: 0.0017440319061279297
ell 551, elapsed: 0.0009260177612304688
ell 550, elapsed: 0.0014460086822509766
ell 549, elapsed: 0.0009272098541259766
ell 548, elapsed: 0.0009210109710693359
ell 542, elapsed: 0.002271890640258789
ell 541, elapsed: 0.00092315673828125
ell 540, elapsed: 0.0008671283721923828
ell 539, elapsed: 0.0014040470123291016
ell 538, elapsed: 0.0008230209350585938
ell 532, elapsed: 0.0020470619201660156
ell 531, elapsed: 0.0014281272888183594
ell 530, elapsed: 0.0008270740509033203
ell 529, elapsed: 0.0008101463317871094
ell 528, elapsed: 0.0008091926574707031
ell 522, elapsed: 0.0023071765899658203
ell 521, elapsed: 0.0007710456848144531
ell 520, elapsed: 0.0008211135864257812
ell 519, elapsed: 0.0014050006866455078
ell 518, elapsed: 0.0007929801940917969
ell 512, elapsed: 0.0016820430755615234
ell 511, elapsed: 0.0013680458068847656
ell 510, elapsed: 0.0008220672607421875
ell 509, elapsed: 0.0008168220520019531
ell 508, elapsed: 0.0008289813995361328
ell 502, elapsed: 0.0019860267639160156
ell 501, elapsed: 0.0007879734039306641
ell 500, elapsed: 0.0010821819305419922
ell 499, elapsed: 0.0012938976287841797
ell 498, elapsed: 0.0006799697875976562
ell 492, elapsed: 0.0015480518341064453
ell 491, elapsed: 0.0013148784637451172
ell 490, elapsed: 0.001077890396118164
ell 489, elapsed: 0.0010731220245361328
ell 488, elapsed: 0.0008080005645751953
ell 482, elapsed: 0.0020208358764648438
ell 481, elapsed: 0.00080108642578125
ell 480, elapsed: 0.0008118152618408203
ell 479, elapsed: 0.0013170242309570312
ell 478, elapsed: 0.0007960796356201172
ell 472, elapsed: 0.0015361309051513672
ell 471, elapsed: 0.0013430118560791016
ell 470, elapsed: 0.0008280277252197266
ell 469, elapsed: 0.0008199214935302734
ell 468, elapsed: 0.0007889270782470703
ell 462, elapsed: 0.002001047134399414
ell 461, elapsed: 0.00080108642578125
ell 460, elapsed: 0.0008029937744140625
ell 459, elapsed: 0.0008039474487304688
ell 458, elapsed: 0.0008509159088134766
ell 452, elapsed: 0.0015380382537841797
ell 451, elapsed: 0.0008080005645751953
ell 450, elapsed: 0.0008001327514648438
ell 449, elapsed: 0.0007688999176025391
ell 448, elapsed: 0.0007979869842529297
ell 442, elapsed: 0.0014641284942626953
ell 441, elapsed: 0.0007801055908203125
ell 440, elapsed: 0.0008561611175537109
ell 439, elapsed: 0.0008208751678466797
ell 438, elapsed: 0.0008070468902587891
ell 432, elapsed: 0.001528024673461914
ell 431, elapsed: 0.0007910728454589844
ell 430, elapsed: 0.0007479190826416016
ell 429, elapsed: 0.0007550716400146484
ell 428, elapsed: 0.0007638931274414062
ell 422, elapsed: 0.0014920234680175781
ell 421, elapsed: 0.0008089542388916016
ell 420, elapsed: 0.0007948875427246094
ell 419, elapsed: 0.0007898807525634766
ell 418, elapsed: 0.0008101463317871094
ell 412, elapsed: 0.0016179084777832031
ell 411, elapsed: 0.0008230209350585938
ell 410, elapsed: 0.0008170604705810547
ell 409, elapsed: 0.0049419403076171875
ell 408, elapsed: 0.0008289813995361328
ell 402, elapsed: 0.0015349388122558594
ell 401, elapsed: 0.0008060932159423828
ell 400, elapsed: 0.0008111000061035156
ell 399, elapsed: 0.0008170604705810547
ell 398, elapsed: 0.0008060932159423828
ell 392, elapsed: 0.001516103744506836
ell 391, elapsed: 0.0008130073547363281
ell 390, elapsed: 0.0008001327514648438
ell 389, elapsed: 0.0008280277252197266
ell 388, elapsed: 0.0008099079132080078
ell 382, elapsed: 0.0015339851379394531
ell 381, elapsed: 0.0008120536804199219
ell 380, elapsed: 0.0008192062377929688
ell 379, elapsed: 0.0008089542388916016
ell 378, elapsed: 0.012952089309692383
ell 372, elapsed: 0.0014679431915283203
ell 371, elapsed: 0.0007760524749755859
ell 370, elapsed: 0.0007529258728027344
ell 369, elapsed: 0.0007648468017578125
ell 368, elapsed: 0.00078582763671875
ell 362, elapsed: 0.0015311241149902344
ell 361, elapsed: 0.0008380413055419922
ell 360, elapsed: 0.0008409023284912109
ell 359, elapsed: 0.0008130073547363281
ell 358, elapsed: 0.0008358955383300781
ell 352, elapsed: 0.0016109943389892578
ell 351, elapsed: 0.0008358955383300781
ell 350, elapsed: 0.0008158683776855469
ell 349, elapsed: 0.0008149147033691406
ell 348, elapsed: 0.0008149147033691406
ell 342, elapsed: 0.0176849365234375
ell 341, elapsed: 0.0008461475372314453
ell 340, elapsed: 0.0008258819580078125
ell 339, elapsed: 0.0008158683776855469
ell 338, elapsed: 0.0008108615875244141
ell 332, elapsed: 0.0017881393432617188
ell 331, elapsed: 0.0008649826049804688
ell 330, elapsed: 0.0008900165557861328
ell 329, elapsed: 0.0008771419525146484
ell 328, elapsed: 0.0008649826049804688
ell 322, elapsed: 0.0015859603881835938
ell 321, elapsed: 0.0008590221405029297
ell 320, elapsed: 0.000885009765625
ell 319, elapsed: 0.0008680820465087891
ell 318, elapsed: 0.0009028911590576172
ell 312, elapsed: 0.001605987548828125
ell 311, elapsed: 0.0008628368377685547
ell 310, elapsed: 0.0008862018585205078
ell 309, elapsed: 0.0008800029754638672
ell 308, elapsed: 0.0008671283721923828
ell 302, elapsed: 0.0016341209411621094
ell 301, elapsed: 0.0008780956268310547
ell 300, elapsed: 0.0008840560913085938
ell 299, elapsed: 0.0008749961853027344
ell 298, elapsed: 0.0008821487426757812
ell 292, elapsed: 0.0016160011291503906
ell 291, elapsed: 0.000885009765625
ell 290, elapsed: 0.0008709430694580078
ell 289, elapsed: 0.0008809566497802734
ell 288, elapsed: 0.0008780956268310547
ell 282, elapsed: 0.0015931129455566406
ell 281, elapsed: 0.0008800029754638672
ell 280, elapsed: 0.0008490085601806641
ell 279, elapsed: 0.0008771419525146484
ell 278, elapsed: 0.0008718967437744141
ell 272, elapsed: 0.0016369819641113281
ell 271, elapsed: 0.0008940696716308594
ell 270, elapsed: 0.0008859634399414062
ell 269, elapsed: 0.0008790493011474609
ell 268, elapsed: 0.0008728504180908203
ell 262, elapsed: 0.001628875732421875
ell 261, elapsed: 0.0008790493011474609
ell 260, elapsed: 0.0008628368377685547
ell 259, elapsed: 0.0008869171142578125
ell 258, elapsed: 0.0008840560913085938
ell 252, elapsed: 0.0016231536865234375
ell 251, elapsed: 0.0008981227874755859
ell 250, elapsed: 0.0008859634399414062
ell 249, elapsed: 0.0008690357208251953
ell 248, elapsed: 0.000865936279296875
ell 242, elapsed: 0.0016210079193115234
ell 241, elapsed: 0.0008878707885742188
ell 240, elapsed: 0.0008859634399414062
ell 239, elapsed: 0.0008790493011474609
ell 238, elapsed: 0.000865936279296875
ell 232, elapsed: 0.0016171932220458984
ell 231, elapsed: 0.0008769035339355469
ell 230, elapsed: 0.0008699893951416016
ell 229, elapsed: 0.000865936279296875
ell 228, elapsed: 0.0008628368377685547
ell 222, elapsed: 0.0016140937805175781
ell 221, elapsed: 0.0008709430694580078
ell 220, elapsed: 0.0008380413055419922
ell 219, elapsed: 0.0008590221405029297
ell 218, elapsed: 0.0008568763732910156
ell 212, elapsed: 0.0018029212951660156
ell 211, elapsed: 0.0008420944213867188
ell 210, elapsed: 0.000823974609375
ell 209, elapsed: 0.0008609294891357422
ell 208, elapsed: 0.0008199214935302734
ell 202, elapsed: 0.0018792152404785156
ell 201, elapsed: 0.0007579326629638672
ell 200, elapsed: 0.00080108642578125
ell 199, elapsed: 0.0007758140563964844
ell 198, elapsed: 0.0007510185241699219
ell 192, elapsed: 0.0013821125030517578
ell 191, elapsed: 0.0007479190826416016
ell 190, elapsed: 0.0007498264312744141
ell 189, elapsed: 0.0008428096771240234
ell 188, elapsed: 0.0008089542388916016
ell 182, elapsed: 0.0015709400177001953
ell 181, elapsed: 0.0008170604705810547
ell 180, elapsed: 0.0008320808410644531
ell 179, elapsed: 0.0008018016815185547
ell 178, elapsed: 0.0008399486541748047
ell 172, elapsed: 0.0015769004821777344
ell 171, elapsed: 0.0008380413055419922
ell 170, elapsed: 0.0008120536804199219
ell 169, elapsed: 0.0008280277252197266
ell 168, elapsed: 0.0008161067962646484
ell 162, elapsed: 0.0015110969543457031
ell 161, elapsed: 0.0008108615875244141
ell 160, elapsed: 0.0007882118225097656
ell 159, elapsed: 0.0008261203765869141
ell 158, elapsed: 0.0008411407470703125
ell 152, elapsed: 0.0017600059509277344
ell 151, elapsed: 0.0007669925689697266
ell 150, elapsed: 0.0008070468902587891
ell 149, elapsed: 0.000823974609375
ell 148, elapsed: 0.0007939338684082031
ell 142, elapsed: 0.0018889904022216797
ell 141, elapsed: 0.0007882118225097656
ell 140, elapsed: 0.0008070468902587891
ell 139, elapsed: 0.0008139610290527344
ell 138, elapsed: 0.0008099079132080078
ell 132, elapsed: 0.0016090869903564453
ell 131, elapsed: 0.0008170604705810547
ell 130, elapsed: 0.0008101463317871094
ell 129, elapsed: 0.0008139610290527344
ell 128, elapsed: 0.0008108615875244141
ell 122, elapsed: 0.0016689300537109375
ell 121, elapsed: 0.0008161067962646484
ell 120, elapsed: 0.0008130073547363281
ell 119, elapsed: 0.0008339881896972656
ell 118, elapsed: 0.001157999038696289
ell 112, elapsed: 0.0014889240264892578
ell 111, elapsed: 0.0008189678192138672
ell 110, elapsed: 0.0008790493011474609
ell 109, elapsed: 0.0008230209350585938
ell 108, elapsed: 0.000823974609375
ell 102, elapsed: 0.0015709400177001953
ell 101, elapsed: 0.0038099288940429688
ell 100, elapsed: 0.0034379959106445312
ell 99, elapsed: 0.0037078857421875
ell 98, elapsed: 0.0032410621643066406
ell 92, elapsed: 0.006099224090576172
ell 91, elapsed: 0.0031900405883789062
ell 90, elapsed: 0.003242969512939453
ell 89, elapsed: 0.003461122512817383
ell 88, elapsed: 0.0034470558166503906
ell 82, elapsed: 0.005863189697265625
ell 81, elapsed: 0.003197908401489258
ell 80, elapsed: 0.0032088756561279297
ell 79, elapsed: 0.0032320022583007812
ell 78, elapsed: 0.003289937973022461
ell 72, elapsed: 0.0059850215911865234
ell 71, elapsed: 0.0031909942626953125
ell 70, elapsed: 0.003242969512939453
ell 69, elapsed: 0.0032300949096679688
ell 68, elapsed: 0.004268169403076172
ell 62, elapsed: 0.006680965423583984
ell 61, elapsed: 0.003425121307373047
ell 60, elapsed: 0.0034830570220947266
ell 59, elapsed: 0.0032689571380615234
ell 58, elapsed: 0.0032579898834228516
ell 52, elapsed: 0.006072998046875
ell 51, elapsed: 0.0037260055541992188
ell 50, elapsed: 0.0032689571380615234
ell 49, elapsed: 0.003271818161010742
ell 48, elapsed: 0.0032699108123779297
ell 42, elapsed: 0.005903959274291992
ell 41, elapsed: 0.003223896026611328
ell 40, elapsed: 0.0032379627227783203
ell 39, elapsed: 0.0032410621643066406
ell 38, elapsed: 0.003233194351196289
ell 32, elapsed: 0.006123065948486328
ell 31, elapsed: 0.0032339096069335938
ell 30, elapsed: 0.0032279491424560547
ell 29, elapsed: 0.0032210350036621094
ell 28, elapsed: 0.0032548904418945312
ell 22, elapsed: 0.0061321258544921875
ell 21, elapsed: 0.003223896026611328
ell 20, elapsed: 0.004027128219604492
ell 19, elapsed: 0.003202199935913086
ell 18, elapsed: 0.004119873046875
ell 12, elapsed: 0.006203174591064453
ell 11, elapsed: 0.0035080909729003906
ell 10, elapsed: 0.003203868865966797
ell 9, elapsed: 0.0032508373260498047
ell 8, elapsed: 0.0034999847412109375
  0.841002 seconds (66.75 k allocations: 12.139 MiB)
elapsed: 0.004380941390991211
step:          0.068793 sec (0 allocations: 0 byte, 0.0% gc time)
swapping:      0.000757 sec (0 allocations: 0 byte, 0.0% gc time)
calc_Mellell!: 0.03648 sec (0 allocations: 0 byte, 0.0% gc time)
  t0 :  0.011307 sec (0 allocations: 0 byte, 0.0% gc time)
  tm2 : 0.073995 sec (0 allocations: 0 byte, 0.0% gc time)
  tm2s: 0.00931 sec (0 allocations: 0 byte, 0.0% gc time)
  tm4 : 0.195137 sec (0 allocations: 0 byte, 0.0% gc time)
  tp2 : 0.0 sec (0 allocations: 0 byte, 0.0% gc time)
  tp2s: 0.0 sec (0 allocations: 0 byte, 0.0% gc time)
  tp4 : 0.0 sec (0 allocations: 0 byte, 0.0% gc time)
calc_wtdll!:   0.581095 sec (49.2 k allocations: 11.133 MB, 0.0% gc time)
calc_wljj!:    0.041514 sec (69 allocations: 1.078 KB, 0.0% gc time)
mult_prefac!:  0.0 sec (0 allocations: 0 byte, 0.0% gc time)
convert:       0.0 sec (0 allocations: 0 byte, 0.0% gc time)
write:         0.036467 sec (0 allocations: 0 byte, 0.0% gc time)
test_rand_2f1: 0.0 sec (0 allocations: 0 byte, 0.0% gc time)
Closing outfile out/MlCache/MlCache.bin...   0.000011 seconds
xi, l=0, nu=0:   0.441745 seconds (551.85 k allocations: 26.842 MiB, 2.94% gc time)
xi, l=0, nu=-2:  0.002867 seconds (144 allocations: 149.562 KiB)
Created 'out/xi.tsv'.
  q=1.1, R=0.6:	  0.733980 seconds (291.08 k allocations: 38.895 MiB, 1.74% gc time)
  q=1.1, R=0.7:	  0.863924 seconds (304.75 k allocations: 40.996 MiB, 1.17% gc time)
  q=1.1, R=0.8:	  0.853608 seconds (299.14 k allocations: 40.132 MiB, 0.92% gc time)
  q=1.1, R=0.9:	  1.024460 seconds (293.57 k allocations: 39.286 MiB, 4.36% gc time)
  q=1.1, R=0.998:	 21.776047 seconds (10.67 M allocations: 823.453 MiB, 0.34% gc time)
  q=1.1, R=1.0:	  0.004563 seconds (10.24 k allocations: 768.375 KiB)

ℓ = 1000
Δℓ = 4
ΔℓRg1 = -4
N = 4096
q = 1.1
kmin = 1.0e-5
kmax = 1000.0
χ0 = 0.001
RR = RR.tsv
ℓmax = ℓmax.bin
f21 = f21.bin
kmin = 1.0e-5
kmax = 1000.0
dlrec    = 4
dlrecRg1 = -4
Output size: 1573632 bytes = 0.0014655590057373047 GiB
Output size: 786816 bytes = 0.0007327795028686523 GiB
Reading 'out/F21EllCache'...   0.001611 seconds (268 allocations: 533.531 KiB)
ellmax: 1002
lmaxcache: 1000
fell[:,1,1] = Complex{Float64}[1.7262928128202118e-224 - 4.2281979352226944e-240im, 1.7282693092099662e-224 - 4.233038955177176e-240im]
ell 1002, elapsed: 8.511543273925781e-5
ell 1001, elapsed: 0.0014481544494628906
ell 1000, elapsed: 0.001168966293334961
ell 999, elapsed: 0.007498979568481445
ell 998, elapsed: 0.00695490837097168
ell 44, elapsed: 0.7148020267486572
ell 43, elapsed: 0.006259918212890625
ell 42, elapsed: 0.006166934967041016
ell 41, elapsed: 0.006146907806396484
ell 40, elapsed: 0.006212949752807617
  0.765122 seconds (4.55 k allocations: 320.031 KiB)
elapsed: 0.007319927215576172
step:          0.710111 sec (0 allocations: 0 byte, 0.0% gc time)
swapping:      0.000501 sec (0 allocations: 0 byte, 0.0% gc time)
calc_Mellell!: 0.001415 sec (0 allocations: 0 byte, 0.0% gc time)
  t0 :  0.00093 sec (0 allocations: 0 byte, 0.0% gc time)
  tm2 : 0.011769 sec (0 allocations: 0 byte, 0.0% gc time)
  tm2s: 0.000787 sec (0 allocations: 0 byte, 0.0% gc time)
  tm4 : 0.032597 sec (0 allocations: 0 byte, 0.0% gc time)
  tp2 : 0.0 sec (0 allocations: 0 byte, 0.0% gc time)
  tp2s: 0.0 sec (0 allocations: 0 byte, 0.0% gc time)
  tp4 : 0.0 sec (0 allocations: 0 byte, 0.0% gc time)
calc_wtdll!:   0.04637 sec (480 allocations: 52.5 KB, 0.0% gc time)
calc_wljj!:    0.001491 sec (1 allocations: 16 byte, 0.0% gc time)
mult_prefac!:  0.0 sec (0 allocations: 0 byte, 0.0% gc time)
convert:       0.0 sec (0 allocations: 0 byte, 0.0% gc time)
write:         0.001039 sec (0 allocations: 0 byte, 0.0% gc time)
test_rand_2f1: 0.0 sec (0 allocations: 0 byte, 0.0% gc time)
Closing outfile out/MlCache/MlCache.bin...   0.000989 seconds
  0.476262 seconds (54 allocations: 67.203 KiB)
make_phi():   0.009386 seconds (80 allocations: 276.297 KiB)
  0.003689 seconds (108 allocations: 5.812 KiB)
tskip:       1.0e-6 sec (0 allocations: 0 byte, 0.0% gc time)
tread:       0.000635 sec (19 allocations: 1.312 KB, 0.0% gc time)
tmultphi:    0.000399 sec (0 allocations: 0 byte, 0.0% gc time)
tbrfft:      0.001373 sec (96 allocations: 4.5 KB, 0.0% gc time)
tmultprefac: 0.001138 sec (0 allocations: 0 byte, 0.0% gc time)
toutfunc:    0.000274 sec (0 allocations: 0 byte, 0.0% gc time)
Created 'out/wl42_jj00.tsv'.
Created 'out/wl42_jj02.tsv'.
   Testing TwoFAST tests passed 
