Julia Version 1.5.0-DEV.3
Commit 53ba0cc3c7 (2020-01-02 23:13 UTC)
Platform Info:
  OS: Linux (x86_64-pc-linux-gnu)
  CPU: Intel(R) Xeon(R) Silver 4114 CPU @ 2.20GHz
  WORD_SIZE: 64
  LIBM: libopenlibm
  LLVM: libLLVM-8.0.1 (ORCJIT, skylake)
Environment:
  JULIA_DEPOT_PATH = ::/usr/local/share/julia

 Resolving package versions...
 Installed Reexport ───────── v0.2.0
 Installed MKL_jll ────────── v2019.0.117+0
 Installed URIParser ──────── v0.4.0
 Installed FFTW ───────────── v1.2.0
 Installed BinaryProvider ─── v0.5.8
 Installed AbstractFFTs ───── v0.5.0
 Installed AbstractAlgebra ── v0.7.1
 Installed BinDeps ────────── v1.0.0
 Installed Nemo ───────────── v0.15.1
 Installed SpecialFunctions ─ v0.8.0
 Installed IntelOpenMP_jll ── v2018.0.3+0
 Installed IncGammaBeta ───── v0.1.0
 Installed FFTW_jll ───────── v3.3.9+3
 Installed TwoFAST ────────── v0.1.0
  Updating `~/.julia/environments/v1.5/Project.toml`
  [0dd23c3e] + TwoFAST v0.1.0
  Updating `~/.julia/environments/v1.5/Manifest.toml`
  [c3fe647b] + AbstractAlgebra v0.7.1
  [621f4979] + AbstractFFTs v0.5.0
  [9e28174c] + BinDeps v1.0.0
  [b99e7846] + BinaryProvider v0.5.8
  [7a1cc6ca] + FFTW v1.2.0
  [f5851436] + FFTW_jll v3.3.9+3
  [5087d2c0] + IncGammaBeta v0.1.0
  [1d5cc7b8] + IntelOpenMP_jll v2018.0.3+0
  [856f044c] + MKL_jll v2019.0.117+0
  [2edaba10] + Nemo v0.15.1
  [189a3867] + Reexport v0.2.0
  [276daf66] + SpecialFunctions v0.8.0
  [0dd23c3e] + TwoFAST v0.1.0
  [30578b45] + URIParser v0.4.0
  [2a0f44e3] + Base64 
  [ade2ca70] + Dates 
  [8bb1440f] + DelimitedFiles 
  [8ba89e20] + Distributed 
  [b77e0a4c] + InteractiveUtils 
  [76f85450] + LibGit2 
  [8f399da3] + Libdl 
  [37e2e46d] + LinearAlgebra 
  [56ddb016] + Logging 
  [d6f4376e] + Markdown 
  [a63ad114] + Mmap 
  [44cfe95a] + Pkg 
  [de0858da] + Printf 
  [3fa0cd96] + REPL 
  [9a3f8284] + Random 
  [ea8e919c] + SHA 
  [9e88b42a] + Serialization 
  [6462fe0b] + Sockets 
  [2f01184e] + SparseArrays 
  [8dfed614] + Test 
  [cf7118a7] + UUIDs 
  [4ec0a83e] + Unicode 
  Building FFTW ────────────→ `~/.julia/packages/FFTW/qqcBj/deps/build.log`
  Updating `/tmp/jl_21ISm6/Project.toml`
 [no changes]
  Updating `/tmp/jl_21ISm6/Manifest.toml`
 [no changes]
  Building Nemo ────────────→ `~/.julia/packages/Nemo/qzx0m/deps/build.log`
  Updating `/tmp/jl_xDpixx/Project.toml`
 [no changes]
  Updating `/tmp/jl_xDpixx/Manifest.toml`
 [no changes]
  Building SpecialFunctions → `~/.julia/packages/SpecialFunctions/ne2iw/deps/build.log`
  Updating `/tmp/jl_YSrNRX/Project.toml`
 [no changes]
  Updating `/tmp/jl_YSrNRX/Manifest.toml`
 [no changes]
   Testing TwoFAST
 Installed Dierckx ─ v0.4.1
  Updating `/tmp/jl_xskERK/Project.toml`
  [39dd38d3] + Dierckx v0.4.1
  Updating `/tmp/jl_xskERK/Manifest.toml`
  [39dd38d3] + Dierckx v0.4.1
  Building Dierckx → `~/.julia/packages/Dierckx/9SY4A/deps/build.log`
  Updating `/tmp/jl_vx1fQm/Project.toml`
 [no changes]
  Updating `/tmp/jl_vx1fQm/Manifest.toml`
 [no changes]
Running sandbox
Status `/tmp/jl_xskERK/Project.toml`
  [39dd38d3] Dierckx v0.4.1
  [7a1cc6ca] FFTW v1.2.0
  [5087d2c0] IncGammaBeta v0.1.0
  [2edaba10] Nemo v0.15.1
  [276daf66] SpecialFunctions v0.8.0
  [0dd23c3e] TwoFAST v0.1.0
  [8bb1440f] DelimitedFiles 
  [37e2e46d] LinearAlgebra 
  [56ddb016] Logging 
  [8dfed614] Test 

Welcome to Nemo version 0.15.1

Nemo comes with absolutely no warranty whatsoever


Welcome to Nemo version 0.15.1

Nemo comes with absolutely no warranty whatsoever

Testing ξ(r), ℓ=0, ν=-1 ... passed
Testing ξ(r), ℓ=0, ν=0 ... passed
Testing ξ(r), ℓ=0, ν=1 ... passed
Testing ξ(r), ℓ=0, ν=2 ... passed
Testing ξ(r), ℓ=0, ν=3 ... passed
Testing ξ(r), ℓ=1, ν=0 ... passed
Testing ξ(r), ℓ=1, ν=1 ... passed
Testing ξ(r), ℓ=1, ν=2 ... passed
Testing ξ(r), ℓ=1, ν=3 ... passed
Testing ξ(r), ℓ=2, ν=-1 ... passed
Testing ξ(r), ℓ=2, ν=0 ... passed
Testing ξ(r), ℓ=2, ν=1 ... passed
Testing ξ(r), ℓ=2, ν=2 ... passed
Testing ξ(r), ℓ=2, ν=3 ... passed
Testing ξ(r), ℓ=3, ν=-1 ... passed
Testing ξ(r), ℓ=3, ν=0 ... passed
Testing ξ(r), ℓ=3, ν=1 ... passed
Testing ξ(r), ℓ=3, ν=2 ... passed
Testing ξ(r), ℓ=3, ν=3 ... passed
Testing ξ(r), ℓ=4, ν=-1 ... passed
Testing ξ(r), ℓ=4, ν=0 ... passed
Testing ξ(r), ℓ=4, ν=1 ... passed
Testing ξ(r), ℓ=4, ν=2 ... passed
Testing ξ(r), ℓ=4, ν=3 ... passed
Testing ξ(r) ... passed
Testing ξ′(r) ... passed
Testing ξ″(r) ... passed
Calculating fmax: 
  dlrec    = 4
  dlrecRg1 = -4
  q=1.1, R=1.1:	  4.564876 seconds (1.20 M allocations: 68.016 MiB, 1.48% gc time)

  4.668554 seconds (1.22 M allocations: 69.126 MiB, 1.44% gc time)
ℓ = 1202
Δℓ = 4
ΔℓRg1 = -4
N = 1600
q = 1.1
kmin = 1.0e-5
kmax = 100000.00000000004
χ0 = 0.023029999999999995
RR = RR.tsv
ℓmax = ℓmax.bin
f21 = f21.bin
kmin = 1.0e-5
kmax = 100000.0
dlrec    = 4
dlrecRg1 = -4
Output size: 5741568 bytes = 0.005347251892089844 GiB
Output size: 51264 bytes = 4.774332046508789e-5 GiB
Reading 'out/F21EllCache'...   0.487718 seconds (318.67 k allocations: 16.379 MiB)
ellmax: 1202
lmaxcache: 1202
fell[:,1,1] = Complex{Float64}[3.9583795592771634e-52 - 9.695233714158177e-68im, 3.990121772925759e-52 - 9.772979714843386e-68im]
ell 1202, elapsed: 9.608268737792969e-5
ell 1201, elapsed: 2.317784070968628
ell 1200, elapsed: 0.0005068778991699219
ell 1199, elapsed: 0.00046896934509277344
ell 1198, elapsed: 0.0004699230194091797
ell 1002, elapsed: 0.009690999984741211
ell 1001, elapsed: 0.0005049705505371094
ell 1000, elapsed: 0.0004918575286865234
ell 999, elapsed: 0.0004909038543701172
ell 998, elapsed: 0.00047397613525390625
ell 902, elapsed: 0.0048220157623291016
ell 901, elapsed: 0.0005071163177490234
ell 900, elapsed: 0.0005600452423095703
ell 899, elapsed: 0.0004620552062988281
ell 898, elapsed: 0.00045609474182128906
ell 802, elapsed: 0.005074977874755859
ell 801, elapsed: 0.0005159378051757812
ell 800, elapsed: 0.0005040168762207031
ell 799, elapsed: 0.0005090236663818359
ell 798, elapsed: 0.0004899501800537109
ell 702, elapsed: 0.004923105239868164
ell 701, elapsed: 0.0005059242248535156
ell 700, elapsed: 0.00049591064453125
ell 699, elapsed: 0.0004849433898925781
ell 698, elapsed: 0.00048089027404785156
ell 602, elapsed: 0.005136013031005859
ell 601, elapsed: 0.0005118846893310547
ell 600, elapsed: 0.0005519390106201172
ell 599, elapsed: 0.0005369186401367188
ell 598, elapsed: 0.0005290508270263672
ell 502, elapsed: 0.004954099655151367
ell 501, elapsed: 0.0004930496215820312
ell 500, elapsed: 0.00048804283142089844
ell 499, elapsed: 0.0004909038543701172
ell 498, elapsed: 0.0004870891571044922
ell 402, elapsed: 0.005249977111816406
ell 401, elapsed: 0.0005130767822265625
ell 400, elapsed: 0.00047588348388671875
ell 399, elapsed: 0.00047397613525390625
ell 398, elapsed: 0.0004839897155761719
ell 302, elapsed: 0.004942178726196289
ell 301, elapsed: 0.0004990100860595703
ell 300, elapsed: 0.0004849433898925781
ell 299, elapsed: 0.0005860328674316406
ell 298, elapsed: 0.0004870891571044922
ell 202, elapsed: 0.004751920700073242
ell 201, elapsed: 0.0004911422729492188
ell 200, elapsed: 0.00047588348388671875
ell 199, elapsed: 0.00047588348388671875
ell 198, elapsed: 0.0004761219024658203
ell 152, elapsed: 0.0026960372924804688
ell 151, elapsed: 0.0005040168762207031
ell 150, elapsed: 0.0004889965057373047
ell 149, elapsed: 0.0004980564117431641
ell 148, elapsed: 0.0004818439483642578
ell 127, elapsed: 0.0015528202056884766
ell 126, elapsed: 0.00048422813415527344
ell 125, elapsed: 0.00047707557678222656
ell 124, elapsed: 0.0004799365997314453
ell 123, elapsed: 0.0005037784576416016
ell 114, elapsed: 0.0009059906005859375
ell 113, elapsed: 0.0004899501800537109
ell 112, elapsed: 0.0005390644073486328
ell 111, elapsed: 0.0005519390106201172
ell 110, elapsed: 0.0004780292510986328
ell 102, elapsed: 0.0011420249938964844
ell 101, elapsed: 0.0004818439483642578
ell 100, elapsed: 0.0004749298095703125
ell 99, elapsed: 0.0005221366882324219
ell 98, elapsed: 0.0005328655242919922
ell 97, elapsed: 0.0005240440368652344
ell 96, elapsed: 0.0006380081176757812
ell 95, elapsed: 0.0006918907165527344
ell 94, elapsed: 0.0006909370422363281
ell 93, elapsed: 0.0005741119384765625
ell 92, elapsed: 0.0006089210510253906
ell 91, elapsed: 0.000514984130859375
ell 90, elapsed: 0.0006549358367919922
ell 89, elapsed: 0.0006470680236816406
ell 88, elapsed: 0.0006060600280761719
ell 87, elapsed: 0.0005118846893310547
ell 86, elapsed: 0.0006060600280761719
ell 85, elapsed: 0.0005059242248535156
ell 84, elapsed: 0.0005991458892822266
ell 83, elapsed: 0.0006070137023925781
ell 82, elapsed: 0.0006051063537597656
ell 81, elapsed: 0.0005118846893310547
ell 80, elapsed: 0.0005929470062255859
ell 79, elapsed: 0.0005309581756591797
ell 78, elapsed: 0.0006709098815917969
ell 77, elapsed: 0.0005090236663818359
ell 76, elapsed: 0.0006949901580810547
ell 75, elapsed: 0.0005259513854980469
ell 74, elapsed: 0.0006041526794433594
ell 73, elapsed: 0.0005049705505371094
ell 72, elapsed: 0.0005888938903808594
ell 71, elapsed: 0.0005059242248535156
ell 70, elapsed: 0.0005900859832763672
ell 69, elapsed: 0.0006060600280761719
ell 68, elapsed: 0.0005970001220703125
ell 67, elapsed: 0.0005130767822265625
ell 66, elapsed: 0.0005970001220703125
ell 65, elapsed: 0.0005130767822265625
ell 64, elapsed: 0.0006029605865478516
ell 63, elapsed: 0.0006041526794433594
ell 62, elapsed: 0.000598907470703125
ell 61, elapsed: 0.0005121231079101562
ell 60, elapsed: 0.0006539821624755859
ell 59, elapsed: 0.0005490779876708984
ell 58, elapsed: 0.0006840229034423828
ell 57, elapsed: 0.0005419254302978516
ell 56, elapsed: 0.0007798671722412109
ell 55, elapsed: 0.0005369186401367188
ell 54, elapsed: 0.0005979537963867188
ell 53, elapsed: 0.000514984130859375
ell 52, elapsed: 0.0005979537963867188
ell 51, elapsed: 0.000514984130859375
ell 50, elapsed: 0.0006768703460693359
ell 49, elapsed: 0.0004711151123046875
ell 48, elapsed: 0.0005288124084472656
ell 47, elapsed: 0.0004658699035644531
ell 46, elapsed: 0.0005300045013427734
ell 45, elapsed: 0.0004649162292480469
ell 44, elapsed: 0.0005249977111816406
ell 43, elapsed: 0.000469207763671875
ell 42, elapsed: 0.0006771087646484375
ell 41, elapsed: 0.0005090236663818359
ell 40, elapsed: 0.0005929470062255859
ell 39, elapsed: 0.0005030632019042969
ell 38, elapsed: 0.0005960464477539062
ell 37, elapsed: 0.0005631446838378906
ell 36, elapsed: 0.0007369518280029297
ell 35, elapsed: 0.0005159378051757812
ell 34, elapsed: 0.0005960464477539062
ell 33, elapsed: 0.0005087852478027344
ell 32, elapsed: 0.0006000995635986328
ell 31, elapsed: 0.0005190372467041016
ell 30, elapsed: 0.0006060600280761719
ell 29, elapsed: 0.0006091594696044922
ell 28, elapsed: 0.0006189346313476562
ell 27, elapsed: 0.0005090236663818359
ell 26, elapsed: 0.0005919933319091797
ell 25, elapsed: 0.0005121231079101562
ell 24, elapsed: 0.0005929470062255859
ell 23, elapsed: 0.0005040168762207031
ell 22, elapsed: 0.0006868839263916016
ell 21, elapsed: 0.0005140304565429688
ell 20, elapsed: 0.0005919933319091797
ell 19, elapsed: 0.0005161762237548828
ell 18, elapsed: 0.0006000995635986328
ell 17, elapsed: 0.000514984130859375
ell 16, elapsed: 0.0007710456848144531
ell 15, elapsed: 0.0005810260772705078
ell 14, elapsed: 0.0006470680236816406
ell 13, elapsed: 0.0005059242248535156
ell 12, elapsed: 0.0005948543548583984
ell 11, elapsed: 0.0005080699920654297
ell 10, elapsed: 0.0006000995635986328
ell 9, elapsed: 0.0005190372467041016
ell 8, elapsed: 0.000621795654296875
ell 7, elapsed: 0.0005960464477539062
ell 6, elapsed: 0.0006670951843261719
ell 5, elapsed: 0.0005490779876708984
ell 4, elapsed: 0.0006878376007080078
ell 3, elapsed: 0.0007240772247314453
ell 2, elapsed: 0.0007100105285644531
ell 1, elapsed: 0.0006060600280761719
ell 0, elapsed: 0.0006999969482421875
  3.146499 seconds (1.75 M allocations: 85.477 MiB, 1.66% gc time)
elapsed: 0.00074005126953125
step:          0.745678 sec (402.561 k allocations: 20.278 MB, 3.39% gc time)
swapping:      0.000535 sec (0 allocations: 0 byte, 0.0% gc time)
calc_Mellell!: 0.586152 sec (296.399 k allocations: 14.958 MB, 4.59% gc time)
  t0 :  0.0 sec (0 allocations: 0 byte, 0.0% gc time)
  tm2 : 0.0 sec (0 allocations: 0 byte, 0.0% gc time)
  tm2s: 0.0 sec (0 allocations: 0 byte, 0.0% gc time)
  tm4 : 0.0 sec (0 allocations: 0 byte, 0.0% gc time)
  tp2 : 0.0 sec (0 allocations: 0 byte, 0.0% gc time)
  tp2s: 0.0 sec (0 allocations: 0 byte, 0.0% gc time)
  tp4 : 0.0 sec (0 allocations: 0 byte, 0.0% gc time)
calc_wtdll!:   1.111191 sec (525.859 k allocations: 26.376 MB, 0.0% gc time)
calc_wljj!:    0.003477 sec (6 allocations: 96 byte, 0.0% gc time)
mult_prefac!:  0.0 sec (0 allocations: 0 byte, 0.0% gc time)
convert:       0.0 sec (0 allocations: 0 byte, 0.0% gc time)
write:         0.005453 sec (0 allocations: 0 byte, 0.0% gc time)
test_rand_2f1: 0.0 sec (0 allocations: 0 byte, 0.0% gc time)
Closing outfile out/Ml21-cache.bin...   0.000125 seconds
  1.084151 seconds (8.66 k allocations: 420.969 KiB)
make_phi():   0.015196 seconds (8.20 k allocations: 238.016 KiB)
  0.233786 seconds (121.70 k allocations: 5.903 MiB)
tskip:       3.1e-5 sec (0 allocations: 0 byte, 0.0% gc time)
tread:       0.003036 sec (19 allocations: 2.172 KB, 0.0% gc time)
tmultphi:    0.045426 sec (26.022 k allocations: 1.338 MB, 0.0% gc time)
tbrfft:      0.007299 sec (896 allocations: 42.0 KB, 0.0% gc time)
tmultprefac: 0.006135 sec (0 allocations: 0 byte, 0.0% gc time)
toutfunc:    0.171762 sec (94.108 k allocations: 4.452 MB, 0.0% gc time)
Testing R=1.1 ... passed
Calculating fmax: 
  dlrec    = 4
  dlrecRg1 = -4
  q=1.1, R=1.0:	  0.001748 seconds (4.00 k allocations: 300.375 KiB)

  0.001901 seconds (4.04 k allocations: 335.062 KiB)
ℓ = 1202
Δℓ = 4
ΔℓRg1 = -4
N = 1600
q = 1.1
kmin = 1.0e-5
kmax = 100000.00000000004
χ0 = 0.023029999999999995
RR = RR.tsv
ℓmax = ℓmax.bin
f21 = f21.bin
kmin = 1.0e-5
kmax = 100000.0
dlrec    = 4
dlrecRg1 = -4
Output size: 61465536 bytes = 0.05724424123764038 GiB
Output size: 51264 bytes = 4.774332046508789e-5 GiB
Reading 'out/F21EllCache'...   0.000998 seconds (267 allocations: 84.656 KiB)
ellmax: 1202
lmaxcache: 1202
fell[:,1,1] = Complex{Float64}[809.6031528389767 - 1.9829558194077161e-13im, 0.0 + 0.0im]
ell 1202, elapsed: 2.3126602172851562e-5
ell 1201, elapsed: 0.015739917755126953
ell 1200, elapsed: 0.00037980079650878906
ell 1199, elapsed: 0.0003750324249267578
ell 1198, elapsed: 0.00037097930908203125
ell 1197, elapsed: 0.000514984130859375
ell 1196, elapsed: 0.0006039142608642578
ell 1195, elapsed: 0.0005941390991210938
ell 1194, elapsed: 0.0005528926849365234
ell 1193, elapsed: 0.0004980564117431641
ell 1192, elapsed: 0.0004100799560546875
ell 1191, elapsed: 0.0004889965057373047
ell 1190, elapsed: 0.0005228519439697266
ell 1189, elapsed: 0.0006289482116699219
ell 1188, elapsed: 0.00041103363037109375
ell 1187, elapsed: 0.0004940032958984375
ell 1186, elapsed: 0.0004100799560546875
ell 1185, elapsed: 0.0004918575286865234
ell 1184, elapsed: 0.0004100799560546875
ell 1183, elapsed: 0.0004839897155761719
ell 1182, elapsed: 0.0004620552062988281
ell 1181, elapsed: 0.0004868507385253906
ell 1180, elapsed: 0.000514984130859375
ell 1179, elapsed: 0.0006251335144042969
ell 1178, elapsed: 0.0004069805145263672
ell 1177, elapsed: 0.0004949569702148438
ell 1176, elapsed: 0.00040602684020996094
ell 1175, elapsed: 0.0004839897155761719
ell 1174, elapsed: 0.0004239082336425781
ell 1173, elapsed: 0.0004668235778808594
ell 1172, elapsed: 0.0003840923309326172
ell 1171, elapsed: 0.0005910396575927734
ell 1170, elapsed: 0.000492095947265625
ell 1169, elapsed: 0.0004639625549316406
ell 1168, elapsed: 0.00038504600524902344
ell 1167, elapsed: 0.00045800209045410156
ell 1166, elapsed: 0.0008139610290527344
ell 1165, elapsed: 0.0004818439483642578
ell 1164, elapsed: 0.00038504600524902344
ell 1163, elapsed: 0.0004558563232421875
ell 1162, elapsed: 0.0003859996795654297
ell 1161, elapsed: 0.0004520416259765625
ell 1160, elapsed: 0.0003879070281982422
ell 1159, elapsed: 0.0004589557647705078
ell 1158, elapsed: 0.0006530284881591797
ell 1157, elapsed: 0.000514984130859375
ell 1156, elapsed: 0.0003829002380371094
ell 1155, elapsed: 0.0006051063537597656
ell 1154, elapsed: 0.0004780292510986328
ell 1153, elapsed: 0.0004532337188720703
ell 1152, elapsed: 0.00038695335388183594
ell 1151, elapsed: 0.0004489421844482422
ell 1150, elapsed: 0.0006129741668701172
ell 1149, elapsed: 0.0007359981536865234
ell 1148, elapsed: 0.0004620552062988281
ell 1147, elapsed: 0.00045680999755859375
ell 1146, elapsed: 0.00038313865661621094
ell 1145, elapsed: 0.00045680999755859375
ell 1144, elapsed: 0.00038313865661621094
ell 1143, elapsed: 0.0005469322204589844
ell 1142, elapsed: 0.0005040168762207031
ell 1141, elapsed: 0.0006000995635986328
ell 1140, elapsed: 0.0003819465637207031
ell 1139, elapsed: 0.00046181678771972656
ell 1138, elapsed: 0.0003809928894042969
ell 1137, elapsed: 0.0004551410675048828
ell 1136, elapsed: 0.0004949569702148438
ell 1135, elapsed: 0.0006852149963378906
ell 1134, elapsed: 0.00038504600524902344
ell 1133, elapsed: 0.00045800209045410156
ell 1132, elapsed: 0.0003838539123535156
ell 1131, elapsed: 0.00045800209045410156
ell 1130, elapsed: 0.00038313865661621094
ell 1129, elapsed: 0.00045299530029296875
ell 1128, elapsed: 0.0004799365997314453
ell 1127, elapsed: 0.0006949901580810547
ell 1126, elapsed: 0.00038886070251464844
ell 1125, elapsed: 0.0004589557647705078
ell 1124, elapsed: 0.0003829002380371094
ell 1123, elapsed: 0.0005738735198974609
ell 1122, elapsed: 0.0005011558532714844
ell 1121, elapsed: 0.0006492137908935547
ell 1120, elapsed: 0.0006940364837646484
ell 1119, elapsed: 0.0005369186401367188
ell 1118, elapsed: 0.0005269050598144531
ell 1117, elapsed: 0.0005629062652587891
ell 1116, elapsed: 0.00038814544677734375
ell 1115, elapsed: 0.0005998611450195312
ell 1114, elapsed: 0.0004780292510986328
ell 1113, elapsed: 0.000453948974609375
ell 1112, elapsed: 0.00040602684020996094
ell 1111, elapsed: 0.0004661083221435547
ell 1110, elapsed: 0.00037980079650878906
ell 1109, elapsed: 0.0004520416259765625
ell 1108, elapsed: 0.00038313865661621094
ell 1107, elapsed: 0.00045180320739746094
ell 1106, elapsed: 0.0003809928894042969
ell 1105, elapsed: 0.0004558563232421875
ell 1104, elapsed: 0.0005500316619873047
ell 1103, elapsed: 0.0006089210510253906
ell 1102, elapsed: 0.0003821849822998047
ell 1101, elapsed: 0.0004520416259765625
ell 1100, elapsed: 0.00038313865661621094
ell 1099, elapsed: 0.00045299530029296875
ell 1098, elapsed: 0.0003809928894042969
ell 1097, elapsed: 0.000453948974609375
ell 1096, elapsed: 0.0006680488586425781
ell 1095, elapsed: 0.0005090236663818359
ell 1094, elapsed: 0.0003859996795654297
ell 1093, elapsed: 0.0006349086761474609
ell 1092, elapsed: 0.0005228519439697266
ell 1091, elapsed: 0.0006248950958251953
ell 1090, elapsed: 0.0005061626434326172
ell 1089, elapsed: 0.0008289813995361328
ell 1088, elapsed: 0.0004100799560546875
ell 1087, elapsed: 0.0006248950958251953
ell 1086, elapsed: 0.0005779266357421875
ell 1085, elapsed: 0.0006060600280761719
ell 1084, elapsed: 0.0005099773406982422
ell 1083, elapsed: 0.0005960464477539062
ell 1082, elapsed: 0.0005159378051757812
ell 1081, elapsed: 0.0005688667297363281
ell 1080, elapsed: 0.0003829002380371094
ell 1079, elapsed: 0.000453948974609375
ell 1078, elapsed: 0.0003840923309326172
ell 1077, elapsed: 0.0004489421844482422
ell 1076, elapsed: 0.00038695335388183594
ell 1075, elapsed: 0.00045609474182128906
ell 1074, elapsed: 0.00039505958557128906
ell 1073, elapsed: 0.00045680999755859375
ell 1072, elapsed: 0.0005288124084472656
ell 1071, elapsed: 0.0005578994750976562
ell 1070, elapsed: 0.00038909912109375
ell 1069, elapsed: 0.00045990943908691406
ell 1068, elapsed: 0.0003829002380371094
ell 1067, elapsed: 0.0005481243133544922
ell 1066, elapsed: 0.0005970001220703125
ell 1065, elapsed: 0.0004661083221435547
ell 1064, elapsed: 0.0003859996795654297
ell 1063, elapsed: 0.00045990943908691406
ell 1062, elapsed: 0.0003879070281982422
ell 1061, elapsed: 0.000457763671875
ell 1060, elapsed: 0.0005319118499755859
ell 1059, elapsed: 0.0006911754608154297
ell 1058, elapsed: 0.0003840923309326172
ell 1057, elapsed: 0.0004570484161376953
ell 1056, elapsed: 0.0003800392150878906
ell 1055, elapsed: 0.0004508495330810547
ell 1054, elapsed: 0.0003821849822998047
ell 1053, elapsed: 0.0006189346313476562
ell 1052, elapsed: 0.0004639625549316406
ell 1051, elapsed: 0.0006768703460693359
ell 1050, elapsed: 0.0005269050598144531
ell 1049, elapsed: 0.0006518363952636719
ell 1048, elapsed: 0.0003819465637207031
ell 1047, elapsed: 0.0005459785461425781
ell 1046, elapsed: 0.000598907470703125
ell 1045, elapsed: 0.0005369186401367188
ell 1044, elapsed: 0.0005929470062255859
ell 1043, elapsed: 0.0005640983581542969
ell 1042, elapsed: 0.0003800392150878906
ell 1041, elapsed: 0.0004570484161376953
ell 1040, elapsed: 0.0004730224609375
ell 1039, elapsed: 0.0006041526794433594
ell 1038, elapsed: 0.0003809928894042969
ell 1037, elapsed: 0.0004551410675048828
ell 1036, elapsed: 0.0004439353942871094
ell 1035, elapsed: 0.0006909370422363281
ell 1034, elapsed: 0.00042891502380371094
ell 1033, elapsed: 0.00061798095703125
ell 1032, elapsed: 0.0004589557647705078
ell 1031, elapsed: 0.00045680999755859375
ell 1030, elapsed: 0.00038504600524902344
ell 1029, elapsed: 0.0006520748138427734
ell 1028, elapsed: 0.0004930496215820312
ell 1027, elapsed: 0.0006449222564697266
ell 1026, elapsed: 0.0004420280456542969
ell 1025, elapsed: 0.0004551410675048828
ell 1024, elapsed: 0.0003879070281982422
ell 1023, elapsed: 0.000453948974609375
ell 1022, elapsed: 0.00037980079650878906
ell 1021, elapsed: 0.0005371570587158203
ell 1020, elapsed: 0.0003859996795654297
ell 1019, elapsed: 0.0004589557647705078
ell 1018, elapsed: 0.0003829002380371094
ell 1017, elapsed: 0.00045490264892578125
ell 1016, elapsed: 0.00045180320739746094
ell 1015, elapsed: 0.0007169246673583984
ell 1014, elapsed: 0.0004210472106933594
ell 1013, elapsed: 0.0005350112915039062
ell 1012, elapsed: 0.0005488395690917969
ell 1011, elapsed: 0.0007309913635253906
ell 1010, elapsed: 0.000614166259765625
ell 1009, elapsed: 0.0005459785461425781
ell 1008, elapsed: 0.0003838539123535156
ell 1007, elapsed: 0.0006320476531982422
ell 1006, elapsed: 0.0006589889526367188
ell 1005, elapsed: 0.0006000995635986328
ell 1004, elapsed: 0.0004730224609375
ell 1003, elapsed: 0.0006079673767089844
ell 1002, elapsed: 0.0003790855407714844
ell 1001, elapsed: 0.0005500316619873047
ell 1000, elapsed: 0.0006020069122314453
ell 999, elapsed: 0.0006148815155029297
ell 998, elapsed: 0.0003821849822998047
ell 997, elapsed: 0.00045800209045410156
ell 996, elapsed: 0.0003871917724609375
ell 995, elapsed: 0.00044417381286621094
ell 994, elapsed: 0.0003819465637207031
ell 993, elapsed: 0.00045013427734375
ell 992, elapsed: 0.00045299530029296875
ell 991, elapsed: 0.0007979869842529297
ell 990, elapsed: 0.0004420280456542969
ell 989, elapsed: 0.0004558563232421875
ell 988, elapsed: 0.0003821849822998047
ell 987, elapsed: 0.0005800724029541016
ell 986, elapsed: 0.0004968643188476562
ell 985, elapsed: 0.0004451274871826172
ell 984, elapsed: 0.0004668235778808594
ell 983, elapsed: 0.0004658699035644531
ell 982, elapsed: 0.00038313865661621094
ell 981, elapsed: 0.0004591941833496094
ell 980, elapsed: 0.00038504600524902344
ell 979, elapsed: 0.00045609474182128906
ell 978, elapsed: 0.0003809928894042969
ell 977, elapsed: 0.0006470680236816406
ell 976, elapsed: 0.0005218982696533203
ell 975, elapsed: 0.0004611015319824219
ell 974, elapsed: 0.0003809928894042969
ell 973, elapsed: 0.0005788803100585938
ell 972, elapsed: 0.0004918575286865234
ell 971, elapsed: 0.0005881786346435547
ell 970, elapsed: 0.00049591064453125
ell 969, elapsed: 0.00045800209045410156
ell 968, elapsed: 0.0004649162292480469
ell 967, elapsed: 0.0006520748138427734
ell 966, elapsed: 0.0004220008850097656
ell 965, elapsed: 0.0004508495330810547
ell 964, elapsed: 0.0004620552062988281
ell 963, elapsed: 0.0007040500640869141
ell 962, elapsed: 0.0005199909210205078
ell 961, elapsed: 0.0005500316619873047
ell 960, elapsed: 0.00038504600524902344
ell 959, elapsed: 0.0006101131439208984
ell 958, elapsed: 0.0006029605865478516
ell 957, elapsed: 0.0005290508270263672
ell 956, elapsed: 0.0003790855407714844
ell 955, elapsed: 0.00045108795166015625
ell 954, elapsed: 0.0003800392150878906
ell 953, elapsed: 0.0006041526794433594
ell 952, elapsed: 0.00047087669372558594
ell 951, elapsed: 0.000453948974609375
ell 950, elapsed: 0.0003800392150878906
ell 949, elapsed: 0.00045299530029296875
ell 948, elapsed: 0.0004420280456542969
ell 947, elapsed: 0.0006461143493652344
ell 946, elapsed: 0.0003809928894042969
ell 945, elapsed: 0.0005650520324707031
ell 944, elapsed: 0.0005190372467041016
ell 943, elapsed: 0.0006167888641357422
ell 942, elapsed: 0.0005559921264648438
ell 941, elapsed: 0.0007030963897705078
ell 940, elapsed: 0.0006070137023925781
ell 939, elapsed: 0.0006110668182373047
ell 938, elapsed: 0.0003879070281982422
ell 937, elapsed: 0.0005471706390380859
ell 936, elapsed: 0.0005230903625488281
ell 935, elapsed: 0.0004508495330810547
ell 934, elapsed: 0.0003790855407714844
ell 933, elapsed: 0.0005548000335693359
ell 932, elapsed: 0.0005080699920654297
ell 931, elapsed: 0.0004730224609375
ell 930, elapsed: 0.0003829002380371094
ell 929, elapsed: 0.00045299530029296875
ell 928, elapsed: 0.0003790855407714844
ell 927, elapsed: 0.00045299530029296875
ell 926, elapsed: 0.0003809928894042969
ell 925, elapsed: 0.0005819797515869141
ell 924, elapsed: 0.0006010532379150391
ell 923, elapsed: 0.0005459785461425781
ell 922, elapsed: 0.0003809928894042969
ell 921, elapsed: 0.00045013427734375
ell 920, elapsed: 0.0003788471221923828
ell 919, elapsed: 0.0005841255187988281
ell 918, elapsed: 0.0006008148193359375
ell 917, elapsed: 0.0006730556488037109
ell 916, elapsed: 0.0005090236663818359
ell 915, elapsed: 0.0004730224609375
ell 914, elapsed: 0.00038313865661621094
ell 913, elapsed: 0.00045299530029296875
ell 912, elapsed: 0.0003790855407714844
ell 911, elapsed: 0.0005748271942138672
ell 910, elapsed: 0.0004971027374267578
ell 909, elapsed: 0.0006518363952636719
ell 908, elapsed: 0.0004448890686035156
ell 907, elapsed: 0.00045299530029296875
ell 906, elapsed: 0.0003800392150878906
ell 905, elapsed: 0.000453948974609375
ell 904, elapsed: 0.0003800392150878906
ell 903, elapsed: 0.00045418739318847656
ell 902, elapsed: 0.0003800392150878906
ell 901, elapsed: 0.00045299530029296875
ell 900, elapsed: 0.0003821849822998047
ell 899, elapsed: 0.0006659030914306641
ell 898, elapsed: 0.0005528926849365234
ell 897, elapsed: 0.0006699562072753906
ell 896, elapsed: 0.0006017684936523438
ell 895, elapsed: 0.0005850791931152344
ell 894, elapsed: 0.00038886070251464844
ell 893, elapsed: 0.0006401538848876953
ell 892, elapsed: 0.0004858970642089844
ell 891, elapsed: 0.00045800209045410156
ell 890, elapsed: 0.0005071163177490234
ell 889, elapsed: 0.0006639957427978516
ell 888, elapsed: 0.0005979537963867188
ell 887, elapsed: 0.0005922317504882812
ell 886, elapsed: 0.00039577484130859375
ell 885, elapsed: 0.0005991458892822266
ell 884, elapsed: 0.0006170272827148438
ell 883, elapsed: 0.0006990432739257812
ell 882, elapsed: 0.0004429817199707031
ell 881, elapsed: 0.00045299530029296875
ell 880, elapsed: 0.0004818439483642578
ell 879, elapsed: 0.0006039142608642578
ell 878, elapsed: 0.0003809928894042969
ell 877, elapsed: 0.00044918060302734375
ell 876, elapsed: 0.0003800392150878906
ell 875, elapsed: 0.000453948974609375
ell 874, elapsed: 0.0003840923309326172
ell 873, elapsed: 0.0005750656127929688
ell 872, elapsed: 0.0005068778991699219
ell 871, elapsed: 0.0006549358367919922
ell 870, elapsed: 0.0004298686981201172
ell 869, elapsed: 0.0004551410675048828
ell 868, elapsed: 0.0003809928894042969
ell 867, elapsed: 0.0004601478576660156
ell 866, elapsed: 0.0003819465637207031
ell 865, elapsed: 0.00045990943908691406
ell 864, elapsed: 0.0003800392150878906
ell 863, elapsed: 0.00047707557678222656
ell 862, elapsed: 0.0004811286926269531
ell 861, elapsed: 0.00061798095703125
ell 860, elapsed: 0.0003809928894042969
ell 859, elapsed: 0.0004489421844482422
ell 858, elapsed: 0.0003809928894042969
ell 857, elapsed: 0.00045299530029296875
ell 856, elapsed: 0.0003840923309326172
ell 855, elapsed: 0.0004508495330810547
ell 854, elapsed: 0.0004889965057373047
ell 853, elapsed: 0.0006120204925537109
ell 852, elapsed: 0.00038504600524902344
ell 851, elapsed: 0.0004558563232421875
ell 850, elapsed: 0.00038504600524902344
ell 849, elapsed: 0.0004620552062988281
ell 848, elapsed: 0.0003829002380371094
ell 847, elapsed: 0.0006129741668701172
ell 846, elapsed: 0.0004870891571044922
ell 845, elapsed: 0.0004551410675048828
ell 844, elapsed: 0.0003809928894042969
ell 843, elapsed: 0.000453948974609375
ell 842, elapsed: 0.0003809928894042969
ell 841, elapsed: 0.00045490264892578125
ell 840, elapsed: 0.0003819465637207031
ell 839, elapsed: 0.00045800209045410156
ell 838, elapsed: 0.0003829002380371094
ell 837, elapsed: 0.0005629062652587891
ell 836, elapsed: 0.0005960464477539062
ell 835, elapsed: 0.0005331039428710938
ell 834, elapsed: 0.0003809928894042969
ell 833, elapsed: 0.00045418739318847656
ell 832, elapsed: 0.0003809928894042969
ell 831, elapsed: 0.0004551410675048828
ell 830, elapsed: 0.0003819465637207031
ell 829, elapsed: 0.00047397613525390625
ell 828, elapsed: 0.0003769397735595703
ell 827, elapsed: 0.0006000995635986328
ell 826, elapsed: 0.000579833984375
ell 825, elapsed: 0.0005888938903808594
ell 824, elapsed: 0.0003821849822998047
ell 823, elapsed: 0.0006361007690429688
ell 822, elapsed: 0.00045180320739746094
ell 821, elapsed: 0.000453948974609375
ell 820, elapsed: 0.0003821849822998047
ell 819, elapsed: 0.000453948974609375
ell 818, elapsed: 0.0004639625549316406
ell 817, elapsed: 0.0006260871887207031
ell 816, elapsed: 0.0003838539123535156
ell 815, elapsed: 0.0004520416259765625
ell 814, elapsed: 0.0004248619079589844
ell 813, elapsed: 0.000453948974609375
ell 812, elapsed: 0.0003809928894042969
ell 811, elapsed: 0.00045180320739746094
ell 810, elapsed: 0.0003809928894042969
ell 809, elapsed: 0.0004570484161376953
ell 808, elapsed: 0.0003819465637207031
ell 807, elapsed: 0.0005950927734375
ell 806, elapsed: 0.0004830360412597656
ell 805, elapsed: 0.00046181678771972656
ell 804, elapsed: 0.0003840923309326172
ell 803, elapsed: 0.00045490264892578125
ell 802, elapsed: 0.0003809928894042969
ell 801, elapsed: 0.00045108795166015625
ell 800, elapsed: 0.0003809928894042969
ell 799, elapsed: 0.000453948974609375
ell 798, elapsed: 0.0003809928894042969
ell 797, elapsed: 0.000453948974609375
ell 796, elapsed: 0.0004851818084716797
ell 795, elapsed: 0.0006151199340820312
ell 794, elapsed: 0.0003829002380371094
ell 793, elapsed: 0.00044989585876464844
ell 792, elapsed: 0.0003790855407714844
ell 791, elapsed: 0.000453948974609375
ell 790, elapsed: 0.0003800392150878906
ell 789, elapsed: 0.0004489421844482422
ell 788, elapsed: 0.00039696693420410156
ell 787, elapsed: 0.00045800209045410156
ell 786, elapsed: 0.00037980079650878906
ell 785, elapsed: 0.000453948974609375
ell 784, elapsed: 0.0003859996795654297
ell 783, elapsed: 0.000453948974609375
ell 782, elapsed: 0.00038504600524902344
ell 781, elapsed: 0.00045490264892578125
ell 780, elapsed: 0.0003819465637207031
ell 779, elapsed: 0.00047516822814941406
ell 778, elapsed: 0.0003829002380371094
ell 777, elapsed: 0.0004639625549316406
ell 776, elapsed: 0.0003800392150878906
ell 775, elapsed: 0.00045180320739746094
ell 774, elapsed: 0.00038313865661621094
ell 773, elapsed: 0.0004439353942871094
ell 772, elapsed: 0.00037980079650878906
ell 771, elapsed: 0.0006079673767089844
ell 770, elapsed: 0.0006110668182373047
ell 769, elapsed: 0.0005638599395751953
ell 768, elapsed: 0.0003829002380371094
ell 767, elapsed: 0.00045299530029296875
ell 766, elapsed: 0.00038313865661621094
ell 765, elapsed: 0.00045609474182128906
ell 764, elapsed: 0.0003840923309326172
ell 763, elapsed: 0.0006029605865478516
ell 762, elapsed: 0.0004699230194091797
ell 761, elapsed: 0.0004589557647705078
ell 760, elapsed: 0.0003821849822998047
ell 759, elapsed: 0.000453948974609375
ell 758, elapsed: 0.0003838539123535156
ell 757, elapsed: 0.00045609474182128906
ell 756, elapsed: 0.0003840923309326172
ell 755, elapsed: 0.0006442070007324219
ell 754, elapsed: 0.0004420280456542969
ell 753, elapsed: 0.0004570484161376953
ell 752, elapsed: 0.0003840923309326172
ell 751, elapsed: 0.00045418739318847656
ell 750, elapsed: 0.00038695335388183594
ell 749, elapsed: 0.000453948974609375
ell 748, elapsed: 0.0003829002380371094
ell 747, elapsed: 0.0004589557647705078
ell 746, elapsed: 0.0003840923309326172
ell 745, elapsed: 0.0004668235778808594
ell 744, elapsed: 0.00038504600524902344
ell 743, elapsed: 0.00045299530029296875
ell 742, elapsed: 0.0003819465637207031
ell 741, elapsed: 0.0004489421844482422
ell 740, elapsed: 0.0003840923309326172
ell 739, elapsed: 0.00045299530029296875
ell 738, elapsed: 0.0003859996795654297
ell 737, elapsed: 0.000598907470703125
ell 736, elapsed: 0.0004849433898925781
ell 735, elapsed: 0.0004601478576660156
ell 734, elapsed: 0.0005550384521484375
ell 733, elapsed: 0.0005331039428710938
ell 732, elapsed: 0.0003829002380371094
ell 731, elapsed: 0.000453948974609375
ell 730, elapsed: 0.0003840923309326172
ell 729, elapsed: 0.0004661083221435547
ell 728, elapsed: 0.0003809928894042969
ell 727, elapsed: 0.0006139278411865234
ell 726, elapsed: 0.00045800209045410156
ell 725, elapsed: 0.00045990943908691406
ell 724, elapsed: 0.0003840923309326172
ell 723, elapsed: 0.00045490264892578125
ell 722, elapsed: 0.0003840923309326172
ell 721, elapsed: 0.00045800209045410156
ell 720, elapsed: 0.0003960132598876953
ell 719, elapsed: 0.0005981922149658203
ell 718, elapsed: 0.0006010532379150391
ell 717, elapsed: 0.0007030963897705078
ell 716, elapsed: 0.0005090236663818359
ell 715, elapsed: 0.0006260871887207031
ell 714, elapsed: 0.0004611015319824219
ell 713, elapsed: 0.0004608631134033203
ell 712, elapsed: 0.00038695335388183594
ell 711, elapsed: 0.0004630088806152344
ell 710, elapsed: 0.0004799365997314453
ell 709, elapsed: 0.0006999969482421875
ell 708, elapsed: 0.00046706199645996094
ell 707, elapsed: 0.00045800209045410156
ell 706, elapsed: 0.0004630088806152344
ell 705, elapsed: 0.0006368160247802734
ell 704, elapsed: 0.0003859996795654297
ell 703, elapsed: 0.0004591941833496094
ell 702, elapsed: 0.0003838539123535156
ell 701, elapsed: 0.0004630088806152344
ell 700, elapsed: 0.00038313865661621094
ell 699, elapsed: 0.0005609989166259766
ell 698, elapsed: 0.0005331039428710938
ell 697, elapsed: 0.0004508495330810547
ell 696, elapsed: 0.00039005279541015625
ell 695, elapsed: 0.0004551410675048828
ell 694, elapsed: 0.0004780292510986328
ell 693, elapsed: 0.0006120204925537109
ell 692, elapsed: 0.0003840923309326172
ell 691, elapsed: 0.00045800209045410156
ell 690, elapsed: 0.0003809928894042969
ell 689, elapsed: 0.00045990943908691406
ell 688, elapsed: 0.0005240440368652344
ell 687, elapsed: 0.0005559921264648438
ell 686, elapsed: 0.00038313865661621094
ell 685, elapsed: 0.0004608631134033203
ell 684, elapsed: 0.00038313865661621094
ell 683, elapsed: 0.00045418739318847656
ell 682, elapsed: 0.0005431175231933594
ell 681, elapsed: 0.0006189346313476562
ell 680, elapsed: 0.0003809928894042969
ell 679, elapsed: 0.0006129741668701172
ell 678, elapsed: 0.00045990943908691406
ell 677, elapsed: 0.0006139278411865234
ell 676, elapsed: 0.0006098747253417969
ell 675, elapsed: 0.0005888938903808594
ell 674, elapsed: 0.0003840923309326172
ell 673, elapsed: 0.00045299530029296875
ell 672, elapsed: 0.0003821849822998047
ell 671, elapsed: 0.0004551410675048828
ell 670, elapsed: 0.0003829002380371094
ell 669, elapsed: 0.0004608631134033203
ell 668, elapsed: 0.0003840923309326172
ell 667, elapsed: 0.0004570484161376953
ell 666, elapsed: 0.0003910064697265625
ell 665, elapsed: 0.00045108795166015625
ell 664, elapsed: 0.00038504600524902344
ell 663, elapsed: 0.0004611015319824219
ell 662, elapsed: 0.0004999637603759766
ell 661, elapsed: 0.0006928443908691406
ell 660, elapsed: 0.0005280971527099609
ell 659, elapsed: 0.0006389617919921875
ell 658, elapsed: 0.0004451274871826172
ell 657, elapsed: 0.00045490264892578125
ell 656, elapsed: 0.00038504600524902344
ell 655, elapsed: 0.00045490264892578125
ell 654, elapsed: 0.00038504600524902344
ell 653, elapsed: 0.0004520416259765625
ell 652, elapsed: 0.0003829002380371094
ell 651, elapsed: 0.0005750656127929688
ell 650, elapsed: 0.0005488395690917969
ell 649, elapsed: 0.0005669593811035156
ell 648, elapsed: 0.0005080699920654297
ell 647, elapsed: 0.0005979537963867188
ell 646, elapsed: 0.0005519390106201172
ell 645, elapsed: 0.0006310939788818359
ell 644, elapsed: 0.0003829002380371094
ell 643, elapsed: 0.000537872314453125
ell 642, elapsed: 0.0003819465637207031
ell 641, elapsed: 0.0006539821624755859
ell 640, elapsed: 0.0004220008850097656
ell 639, elapsed: 0.00045609474182128906
ell 638, elapsed: 0.0003809928894042969
ell 637, elapsed: 0.00045990943908691406
ell 636, elapsed: 0.0005309581756591797
ell 635, elapsed: 0.0007708072662353516
ell 634, elapsed: 0.00046181678771972656
ell 633, elapsed: 0.0004589557647705078
ell 632, elapsed: 0.0003790855407714844
ell 631, elapsed: 0.00045108795166015625
ell 630, elapsed: 0.0005168914794921875
ell 629, elapsed: 0.0005779266357421875
ell 628, elapsed: 0.00045609474182128906
ell 627, elapsed: 0.00045800209045410156
ell 626, elapsed: 0.00038504600524902344
ell 625, elapsed: 0.0004532337188720703
ell 624, elapsed: 0.0003790855407714844
ell 623, elapsed: 0.0004489421844482422
ell 622, elapsed: 0.0003800392150878906
ell 621, elapsed: 0.00044989585876464844
ell 620, elapsed: 0.0005369186401367188
ell 619, elapsed: 0.0006139278411865234
ell 618, elapsed: 0.00037980079650878906
ell 617, elapsed: 0.0005660057067871094
ell 616, elapsed: 0.0005030632019042969
ell 615, elapsed: 0.000453948974609375
ell 614, elapsed: 0.0004858970642089844
ell 613, elapsed: 0.0005970001220703125
ell 612, elapsed: 0.0004520416259765625
ell 611, elapsed: 0.00045609474182128906
ell 610, elapsed: 0.0003800392150878906
ell 609, elapsed: 0.0004589557647705078
ell 608, elapsed: 0.0005049705505371094
ell 607, elapsed: 0.0005750656127929688
ell 606, elapsed: 0.00038504600524902344
ell 605, elapsed: 0.0004570484161376953
ell 604, elapsed: 0.0004570484161376953
ell 603, elapsed: 0.0004620552062988281
ell 602, elapsed: 0.0003790855407714844
ell 601, elapsed: 0.0006291866302490234
ell 600, elapsed: 0.00043702125549316406
ell 599, elapsed: 0.00045800209045410156
ell 598, elapsed: 0.0003821849822998047
ell 597, elapsed: 0.0004558563232421875
ell 596, elapsed: 0.0003819465637207031
ell 595, elapsed: 0.0005331039428710938
ell 594, elapsed: 0.0003821849822998047
ell 593, elapsed: 0.0004630088806152344
ell 592, elapsed: 0.0005168914794921875
ell 591, elapsed: 0.0005769729614257812
ell 590, elapsed: 0.0003829002380371094
ell 589, elapsed: 0.0006411075592041016
ell 588, elapsed: 0.0005137920379638672
ell 587, elapsed: 0.00045800209045410156
ell 586, elapsed: 0.0004940032958984375
ell 585, elapsed: 0.0005900859832763672
ell 584, elapsed: 0.0004608631134033203
ell 583, elapsed: 0.0006310939788818359
ell 582, elapsed: 0.0003821849822998047
ell 581, elapsed: 0.0006730556488037109
ell 580, elapsed: 0.0006201267242431641
ell 579, elapsed: 0.0005819797515869141
ell 578, elapsed: 0.0005061626434326172
ell 577, elapsed: 0.0005769729614257812
ell 576, elapsed: 0.00038695335388183594
ell 575, elapsed: 0.0005960464477539062
ell 574, elapsed: 0.0005629062652587891
ell 573, elapsed: 0.00046515464782714844
ell 572, elapsed: 0.0003819465637207031
ell 571, elapsed: 0.0004601478576660156
ell 570, elapsed: 0.0003859996795654297
ell 569, elapsed: 0.0004570484161376953
ell 568, elapsed: 0.0003819465637207031
ell 567, elapsed: 0.0004589557647705078
ell 566, elapsed: 0.0003829002380371094
ell 565, elapsed: 0.0005421638488769531
ell 564, elapsed: 0.00038504600524902344
ell 563, elapsed: 0.0004589557647705078
ell 562, elapsed: 0.0003829002380371094
ell 561, elapsed: 0.0004520416259765625
ell 560, elapsed: 0.0003809928894042969
ell 559, elapsed: 0.0005750656127929688
ell 558, elapsed: 0.0004999637603759766
ell 557, elapsed: 0.0005331039428710938
ell 556, elapsed: 0.00047779083251953125
ell 555, elapsed: 0.0007140636444091797
ell 554, elapsed: 0.0005130767822265625
ell 553, elapsed: 0.0004551410675048828
ell 552, elapsed: 0.0005450248718261719
ell 551, elapsed: 0.0007131099700927734
ell 550, elapsed: 0.0005218982696533203
ell 549, elapsed: 0.0004680156707763672
ell 548, elapsed: 0.00044798851013183594
ell 547, elapsed: 0.0006320476531982422
ell 546, elapsed: 0.0003809928894042969
ell 545, elapsed: 0.0004589557647705078
ell 544, elapsed: 0.0003840923309326172
ell 543, elapsed: 0.0004570484161376953
ell 542, elapsed: 0.0004520416259765625
ell 541, elapsed: 0.0004639625549316406
ell 540, elapsed: 0.0004780292510986328
ell 539, elapsed: 0.0007009506225585938
ell 538, elapsed: 0.0005159378051757812
ell 537, elapsed: 0.00044989585876464844
ell 536, elapsed: 0.0003821849822998047
ell 535, elapsed: 0.00045490264892578125
ell 534, elapsed: 0.0003910064697265625
ell 533, elapsed: 0.0004658699035644531
ell 532, elapsed: 0.0003809928894042969
ell 531, elapsed: 0.0004601478576660156
ell 530, elapsed: 0.0004849433898925781
ell 529, elapsed: 0.0006048679351806641
ell 528, elapsed: 0.00045490264892578125
ell 527, elapsed: 0.0007181167602539062
ell 526, elapsed: 0.00038313865661621094
ell 525, elapsed: 0.0004558563232421875
ell 524, elapsed: 0.0003819465637207031
ell 523, elapsed: 0.0004620552062988281
ell 522, elapsed: 0.0003838539123535156
ell 521, elapsed: 0.0004620552062988281
ell 520, elapsed: 0.0003819465637207031
ell 519, elapsed: 0.0004570484161376953
ell 518, elapsed: 0.0006499290466308594
ell 517, elapsed: 0.0005059242248535156
ell 516, elapsed: 0.0003809928894042969
ell 515, elapsed: 0.0005729198455810547
ell 514, elapsed: 0.0005052089691162109
ell 513, elapsed: 0.0004551410675048828
ell 512, elapsed: 0.0003840923309326172
ell 511, elapsed: 0.0007479190826416016
ell 510, elapsed: 0.0003829002380371094
ell 509, elapsed: 0.0004601478576660156
ell 508, elapsed: 0.0003819465637207031
ell 507, elapsed: 0.0004558563232421875
ell 506, elapsed: 0.0005180835723876953
ell 505, elapsed: 0.0005648136138916016
ell 504, elapsed: 0.0004999637603759766
ell 503, elapsed: 0.0006721019744873047
ell 502, elapsed: 0.0003838539123535156
ell 501, elapsed: 0.0006020069122314453
ell 500, elapsed: 0.0005710124969482422
ell 499, elapsed: 0.0006129741668701172
ell 498, elapsed: 0.0003819465637207031
ell 497, elapsed: 0.00045609474182128906
ell 496, elapsed: 0.00039315223693847656
ell 495, elapsed: 0.0004680156707763672
ell 494, elapsed: 0.0005428791046142578
ell 493, elapsed: 0.0006709098815917969
ell 492, elapsed: 0.0006210803985595703
ell 491, elapsed: 0.0009670257568359375
ell 490, elapsed: 0.0005660057067871094
ell 489, elapsed: 0.0006439685821533203
ell 488, elapsed: 0.00038313865661621094
ell 487, elapsed: 0.0004642009735107422
ell 486, elapsed: 0.0003871917724609375
ell 485, elapsed: 0.0006270408630371094
ell 484, elapsed: 0.0005519390106201172
ell 483, elapsed: 0.0007159709930419922
ell 482, elapsed: 0.0004410743713378906
ell 481, elapsed: 0.0004611015319824219
ell 480, elapsed: 0.00038313865661621094
ell 479, elapsed: 0.0005741119384765625
ell 478, elapsed: 0.0006070137023925781
ell 477, elapsed: 0.0005550384521484375
ell 476, elapsed: 0.0005300045013427734
ell 475, elapsed: 0.0005841255187988281
ell 474, elapsed: 0.0003819465637207031
ell 473, elapsed: 0.00046181678771972656
ell 472, elapsed: 0.0004649162292480469
ell 471, elapsed: 0.0006320476531982422
ell 470, elapsed: 0.0003819465637207031
ell 469, elapsed: 0.00046181678771972656
ell 468, elapsed: 0.0003838539123535156
ell 467, elapsed: 0.00047397613525390625
ell 466, elapsed: 0.0003800392150878906
ell 465, elapsed: 0.00045990943908691406
ell 464, elapsed: 0.0003819465637207031
ell 463, elapsed: 0.0004570484161376953
ell 462, elapsed: 0.0003809928894042969
ell 461, elapsed: 0.00045800209045410156
ell 460, elapsed: 0.0003809928894042969
ell 459, elapsed: 0.00047397613525390625
ell 458, elapsed: 0.0003819465637207031
ell 457, elapsed: 0.00045609474182128906
ell 456, elapsed: 0.00038504600524902344
ell 455, elapsed: 0.00045800209045410156
ell 454, elapsed: 0.0003859996795654297
ell 453, elapsed: 0.00045800209045410156
ell 452, elapsed: 0.00038504600524902344
ell 451, elapsed: 0.00045990943908691406
ell 450, elapsed: 0.0003979206085205078
ell 449, elapsed: 0.0005559921264648438
ell 448, elapsed: 0.0005269050598144531
ell 447, elapsed: 0.0004589557647705078
ell 446, elapsed: 0.0005102157592773438
ell 445, elapsed: 0.0005819797515869141
ell 444, elapsed: 0.0003829002380371094
ell 443, elapsed: 0.00045800209045410156
ell 442, elapsed: 0.0003910064697265625
ell 441, elapsed: 0.00045609474182128906
ell 440, elapsed: 0.0003800392150878906
ell 439, elapsed: 0.00045800209045410156
ell 438, elapsed: 0.0004589557647705078
ell 437, elapsed: 0.0007071495056152344
ell 436, elapsed: 0.0005130767822265625
ell 435, elapsed: 0.00045800209045410156
ell 434, elapsed: 0.0004429817199707031
ell 433, elapsed: 0.0004611015319824219
ell 432, elapsed: 0.0003800392150878906
ell 431, elapsed: 0.00045800209045410156
ell 430, elapsed: 0.0004820823669433594
ell 429, elapsed: 0.0006029605865478516
ell 428, elapsed: 0.00038504600524902344
ell 427, elapsed: 0.0006320476531982422
ell 426, elapsed: 0.000453948974609375
ell 425, elapsed: 0.00045490264892578125
ell 424, elapsed: 0.0004949569702148438
ell 423, elapsed: 0.000598907470703125
ell 422, elapsed: 0.0003840923309326172
ell 421, elapsed: 0.0006549358367919922
ell 420, elapsed: 0.0004239082336425781
ell 419, elapsed: 0.0004620552062988281
ell 418, elapsed: 0.0003829002380371094
ell 417, elapsed: 0.0004508495330810547
ell 416, elapsed: 0.0005261898040771484
ell 415, elapsed: 0.0006480216979980469
ell 414, elapsed: 0.0005331039428710938
ell 413, elapsed: 0.0004639625549316406
ell 412, elapsed: 0.00038886070251464844
ell 411, elapsed: 0.0005919933319091797
ell 410, elapsed: 0.0005040168762207031
ell 409, elapsed: 0.00045800209045410156
ell 408, elapsed: 0.0003819465637207031
ell 407, elapsed: 0.0004520416259765625
ell 406, elapsed: 0.0003829002380371094
ell 405, elapsed: 0.00047397613525390625
ell 404, elapsed: 0.00038695335388183594
ell 403, elapsed: 0.0005800724029541016
ell 402, elapsed: 0.0005128383636474609
ell 401, elapsed: 0.0004711151123046875
ell 400, elapsed: 0.0003829002380371094
ell 399, elapsed: 0.00047588348388671875
ell 398, elapsed: 0.0005049705505371094
ell 397, elapsed: 0.0007159709930419922
ell 396, elapsed: 0.00049591064453125
ell 395, elapsed: 0.0006690025329589844
ell 394, elapsed: 0.0005180835723876953
ell 393, elapsed: 0.00047206878662109375
ell 392, elapsed: 0.0003838539123535156
ell 391, elapsed: 0.0004570484161376953
ell 390, elapsed: 0.00038313865661621094
ell 389, elapsed: 0.0004630088806152344
ell 388, elapsed: 0.00038886070251464844
ell 387, elapsed: 0.000492095947265625
ell 386, elapsed: 0.00038909912109375
ell 385, elapsed: 0.0005910396575927734
ell 384, elapsed: 0.0004839897155761719
ell 383, elapsed: 0.0004649162292480469
ell 382, elapsed: 0.0004911422729492188
ell 381, elapsed: 0.0007150173187255859
ell 380, elapsed: 0.0005350112915039062
ell 379, elapsed: 0.0004649162292480469
ell 378, elapsed: 0.0003840923309326172
ell 377, elapsed: 0.00045680999755859375
ell 376, elapsed: 0.00038504600524902344
ell 375, elapsed: 0.0004558563232421875
ell 374, elapsed: 0.00038504600524902344
ell 373, elapsed: 0.0004639625549316406
ell 372, elapsed: 0.0003848075866699219
ell 371, elapsed: 0.0004749298095703125
ell 370, elapsed: 0.0003821849822998047
ell 369, elapsed: 0.0005609989166259766
ell 368, elapsed: 0.0005130767822265625
ell 367, elapsed: 0.0004589557647705078
ell 366, elapsed: 0.00038504600524902344
ell 365, elapsed: 0.00045299530029296875
ell 364, elapsed: 0.00038313865661621094
ell 363, elapsed: 0.0004680156707763672
ell 362, elapsed: 0.0003809928894042969
ell 361, elapsed: 0.0005509853363037109
ell 360, elapsed: 0.0005259513854980469
ell 359, elapsed: 0.0004620552062988281
ell 358, elapsed: 0.0003819465637207031
ell 357, elapsed: 0.0004558563232421875
ell 356, elapsed: 0.0003840923309326172
ell 355, elapsed: 0.00046896934509277344
ell 354, elapsed: 0.0003829002380371094
ell 353, elapsed: 0.0005960464477539062
ell 352, elapsed: 0.0004858970642089844
ell 351, elapsed: 0.0005891323089599609
ell 350, elapsed: 0.0005631446838378906
ell 349, elapsed: 0.0006380081176757812
ell 348, elapsed: 0.0003910064697265625
ell 347, elapsed: 0.00047016143798828125
ell 346, elapsed: 0.0003809928894042969
ell 345, elapsed: 0.000453948974609375
ell 344, elapsed: 0.00038504600524902344
ell 343, elapsed: 0.0004589557647705078
ell 342, elapsed: 0.00045108795166015625
ell 341, elapsed: 0.0006399154663085938
ell 340, elapsed: 0.0003821849822998047
ell 339, elapsed: 0.0004711151123046875
ell 338, elapsed: 0.0003800392150878906
ell 337, elapsed: 0.00045680999755859375
ell 336, elapsed: 0.0003819465637207031
ell 335, elapsed: 0.0004551410675048828
ell 334, elapsed: 0.0003848075866699219
ell 333, elapsed: 0.0004508495330810547
ell 332, elapsed: 0.0004990100860595703
ell 331, elapsed: 0.0006089210510253906
ell 330, elapsed: 0.0003800392150878906
ell 329, elapsed: 0.000453948974609375
ell 328, elapsed: 0.0003809928894042969
ell 327, elapsed: 0.000453948974609375
ell 326, elapsed: 0.0005371570587158203
ell 325, elapsed: 0.0005481243133544922
ell 324, elapsed: 0.00038123130798339844
ell 323, elapsed: 0.0004658699035644531
ell 322, elapsed: 0.00039696693420410156
ell 321, elapsed: 0.0006301403045654297
ell 320, elapsed: 0.00044989585876464844
ell 319, elapsed: 0.0004589557647705078
ell 318, elapsed: 0.0003829002380371094
ell 317, elapsed: 0.0004630088806152344
ell 316, elapsed: 0.0003840923309326172
ell 315, elapsed: 0.00045800209045410156
ell 314, elapsed: 0.00039196014404296875
ell 313, elapsed: 0.00045490264892578125
ell 312, elapsed: 0.0003790855407714844
ell 311, elapsed: 0.00044989585876464844
ell 310, elapsed: 0.00038504600524902344
ell 309, elapsed: 0.00045299530029296875
ell 308, elapsed: 0.0005359649658203125
ell 307, elapsed: 0.0006768703460693359
ell 306, elapsed: 0.0005660057067871094
ell 305, elapsed: 0.0005991458892822266
ell 304, elapsed: 0.0005688667297363281
ell 303, elapsed: 0.0006101131439208984
ell 302, elapsed: 0.00037980079650878906
ell 301, elapsed: 0.0004489421844482422
ell 300, elapsed: 0.0003800392150878906
ell 299, elapsed: 0.000453948974609375
ell 298, elapsed: 0.000392913818359375
ell 297, elapsed: 0.0004630088806152344
ell 296, elapsed: 0.0003800392150878906
ell 295, elapsed: 0.0004551410675048828
ell 294, elapsed: 0.0003809928894042969
ell 293, elapsed: 0.0004558563232421875
ell 292, elapsed: 0.0005381107330322266
ell 291, elapsed: 0.0007991790771484375
ell 290, elapsed: 0.0004329681396484375
ell 289, elapsed: 0.0004620552062988281
ell 288, elapsed: 0.0003809928894042969
ell 287, elapsed: 0.0004589557647705078
ell 286, elapsed: 0.0003819465637207031
ell 285, elapsed: 0.0006339550018310547
ell 284, elapsed: 0.0004410743713378906
ell 283, elapsed: 0.0007090568542480469
ell 282, elapsed: 0.0006031990051269531
ell 281, elapsed: 0.0007789134979248047
ell 280, elapsed: 0.0006389617919921875
ell 279, elapsed: 0.0007610321044921875
ell 278, elapsed: 0.0005829334259033203
ell 277, elapsed: 0.0008101463317871094
ell 276, elapsed: 0.0006339550018310547
ell 275, elapsed: 0.0007719993591308594
ell 274, elapsed: 0.0006048679351806641
ell 273, elapsed: 0.000759124755859375
ell 272, elapsed: 0.0007159709930419922
ell 271, elapsed: 0.000762939453125
ell 270, elapsed: 0.0005788803100585938
ell 269, elapsed: 0.0007429122924804688
ell 268, elapsed: 0.0005280971527099609
ell 267, elapsed: 0.0007061958312988281
ell 266, elapsed: 0.0006330013275146484
ell 265, elapsed: 0.0007500648498535156
ell 264, elapsed: 0.0006320476531982422
ell 263, elapsed: 0.0007500648498535156
ell 262, elapsed: 0.0006458759307861328
ell 261, elapsed: 0.0007750988006591797
ell 260, elapsed: 0.0005209445953369141
ell 259, elapsed: 0.0007719993591308594
ell 258, elapsed: 0.0006740093231201172
ell 257, elapsed: 0.0007529258728027344
ell 256, elapsed: 0.000698089599609375
ell 255, elapsed: 0.0007600784301757812
ell 254, elapsed: 0.0006139278411865234
ell 253, elapsed: 0.0007669925689697266
ell 252, elapsed: 0.0006351470947265625
ell 251, elapsed: 0.0006711483001708984
ell 250, elapsed: 0.0005640983581542969
ell 249, elapsed: 0.00074005126953125
ell 248, elapsed: 0.0006260871887207031
ell 247, elapsed: 0.0007369518280029297
ell 246, elapsed: 0.0006208419799804688
ell 245, elapsed: 0.0007538795471191406
ell 244, elapsed: 0.0005750656127929688
ell 243, elapsed: 0.0007507801055908203
ell 242, elapsed: 0.0006310939788818359
ell 241, elapsed: 0.0007560253143310547
ell 240, elapsed: 0.0006279945373535156
ell 239, elapsed: 0.0007939338684082031
ell 238, elapsed: 0.0006279945373535156
ell 237, elapsed: 0.0007381439208984375
ell 236, elapsed: 0.0006361007690429688
ell 235, elapsed: 0.0007460117340087891
ell 234, elapsed: 0.000640869140625
ell 233, elapsed: 0.0007472038269042969
ell 232, elapsed: 0.0006399154663085938
ell 231, elapsed: 0.0007500648498535156
ell 230, elapsed: 0.0005319118499755859
ell 229, elapsed: 0.0006539821624755859
ell 228, elapsed: 0.0006291866302490234
ell 227, elapsed: 0.0007410049438476562
ell 226, elapsed: 0.000640869140625
ell 225, elapsed: 0.0007419586181640625
ell 224, elapsed: 0.0006489753723144531
ell 223, elapsed: 0.0008130073547363281
ell 222, elapsed: 0.0006251335144042969
ell 221, elapsed: 0.0007560253143310547
ell 220, elapsed: 0.0006279945373535156
ell 219, elapsed: 0.0007531642913818359
ell 218, elapsed: 0.0006530284881591797
ell 217, elapsed: 0.0007510185241699219
ell 216, elapsed: 0.0006268024444580078
ell 215, elapsed: 0.0007510185241699219
ell 214, elapsed: 0.0006108283996582031
ell 213, elapsed: 0.0007491111755371094
ell 212, elapsed: 0.0005841255187988281
ell 211, elapsed: 0.0007510185241699219
ell 210, elapsed: 0.0006279945373535156
ell 209, elapsed: 0.0007619857788085938
ell 208, elapsed: 0.0006270408630371094
ell 207, elapsed: 0.0008080005645751953
ell 206, elapsed: 0.0005011558532714844
ell 205, elapsed: 0.0006651878356933594
ell 204, elapsed: 0.0006320476531982422
ell 203, elapsed: 0.0007460117340087891
ell 202, elapsed: 0.0006258487701416016
ell 201, elapsed: 0.000762939453125
ell 200, elapsed: 0.0006279945373535156
ell 199, elapsed: 0.0007569789886474609
ell 198, elapsed: 0.0006220340728759766
ell 197, elapsed: 0.0007469654083251953
ell 196, elapsed: 0.0006608963012695312
ell 195, elapsed: 0.0007429122924804688
ell 194, elapsed: 0.0006189346313476562
ell 193, elapsed: 0.0007600784301757812
ell 192, elapsed: 0.0006251335144042969
ell 191, elapsed: 0.00074005126953125
ell 190, elapsed: 0.0005698204040527344
ell 189, elapsed: 0.0006330013275146484
ell 188, elapsed: 0.0005230903625488281
ell 187, elapsed: 0.0005331039428710938
ell 186, elapsed: 0.0003981590270996094
ell 185, elapsed: 0.00048089027404785156
ell 184, elapsed: 0.00039005279541015625
ell 183, elapsed: 0.00049591064453125
ell 182, elapsed: 0.0003948211669921875
ell 181, elapsed: 0.00047707557678222656
ell 180, elapsed: 0.00039505958557128906
ell 179, elapsed: 0.0004799365997314453
ell 178, elapsed: 0.00039196014404296875
ell 177, elapsed: 0.00047898292541503906
ell 176, elapsed: 0.00039315223693847656
ell 175, elapsed: 0.0004761219024658203
ell 174, elapsed: 0.0003972053527832031
ell 173, elapsed: 0.0004792213439941406
ell 172, elapsed: 0.00039386749267578125
ell 171, elapsed: 0.0004849433898925781
ell 170, elapsed: 0.00040411949157714844
ell 169, elapsed: 0.0004849433898925781
ell 168, elapsed: 0.00039505958557128906
ell 167, elapsed: 0.0004799365997314453
ell 166, elapsed: 0.0004551410675048828
ell 165, elapsed: 0.0004839897155761719
ell 164, elapsed: 0.00039386749267578125
ell 163, elapsed: 0.00046896934509277344
ell 162, elapsed: 0.00039696693420410156
ell 161, elapsed: 0.0006442070007324219
ell 160, elapsed: 0.0004928112030029297
ell 159, elapsed: 0.0006940364837646484
ell 158, elapsed: 0.0006170272827148438
ell 157, elapsed: 0.0007488727569580078
ell 156, elapsed: 0.000576019287109375
ell 155, elapsed: 0.0007469654083251953
ell 154, elapsed: 0.0006291866302490234
ell 153, elapsed: 0.0007710456848144531
ell 152, elapsed: 0.0005409717559814453
ell 151, elapsed: 0.0007350444793701172
ell 150, elapsed: 0.0005669593811035156
ell 149, elapsed: 0.0007460117340087891
ell 148, elapsed: 0.0006289482116699219
ell 147, elapsed: 0.0008308887481689453
ell 146, elapsed: 0.0006411075592041016
ell 145, elapsed: 0.0007390975952148438
ell 144, elapsed: 0.0005731582641601562
ell 143, elapsed: 0.0007479190826416016
ell 142, elapsed: 0.0006430149078369141
ell 141, elapsed: 0.00074005126953125
ell 140, elapsed: 0.0006170272827148438
ell 139, elapsed: 0.0007388591766357422
ell 138, elapsed: 0.0005490779876708984
ell 137, elapsed: 0.0007410049438476562
ell 136, elapsed: 0.0006520748138427734
ell 135, elapsed: 0.0006480216979980469
ell 134, elapsed: 0.0005788803100585938
ell 133, elapsed: 0.0007638931274414062
ell 132, elapsed: 0.0005478858947753906
ell 131, elapsed: 0.0007119178771972656
ell 130, elapsed: 0.0006310939788818359
ell 129, elapsed: 0.0007429122924804688
ell 128, elapsed: 0.0006310939788818359
ell 127, elapsed: 0.0007450580596923828
ell 126, elapsed: 0.0005838871002197266
ell 125, elapsed: 0.0007600784301757812
ell 124, elapsed: 0.000637054443359375
ell 123, elapsed: 0.0008170604705810547
ell 122, elapsed: 0.0006229877471923828
ell 121, elapsed: 0.0007479190826416016
ell 120, elapsed: 0.0006780624389648438
ell 119, elapsed: 0.0006840229034423828
ell 118, elapsed: 0.0004608631134033203
ell 117, elapsed: 0.0005600452423095703
ell 116, elapsed: 0.0004630088806152344
ell 115, elapsed: 0.0005528926849365234
ell 114, elapsed: 0.0004639625549316406
ell 113, elapsed: 0.0005750656127929688
ell 112, elapsed: 0.0004029273986816406
ell 111, elapsed: 0.0004968643188476562
ell 110, elapsed: 0.0005629062652587891
ell 109, elapsed: 0.0007390975952148438
ell 108, elapsed: 0.0006411075592041016
ell 107, elapsed: 0.0007610321044921875
ell 106, elapsed: 0.0005800724029541016
ell 105, elapsed: 0.0007460117340087891
ell 104, elapsed: 0.0004570484161376953
ell 103, elapsed: 0.0006749629974365234
ell 102, elapsed: 0.0005800724029541016
ell 101, elapsed: 0.0006349086761474609
ell 100, elapsed: 0.0004611015319824219
ell 99, elapsed: 0.0005528926849365234
ell 98, elapsed: 0.0004589557647705078
ell 97, elapsed: 0.0005619525909423828
ell 96, elapsed: 0.0004608631134033203
ell 95, elapsed: 0.0005578994750976562
ell 94, elapsed: 0.0004630088806152344
ell 93, elapsed: 0.0006530284881591797
ell 92, elapsed: 0.0005311965942382812
ell 91, elapsed: 0.0007488727569580078
ell 90, elapsed: 0.0006289482116699219
ell 89, elapsed: 0.0007460117340087891
ell 88, elapsed: 0.0006430149078369141
ell 87, elapsed: 0.0007550716400146484
ell 86, elapsed: 0.0006079673767089844
ell 85, elapsed: 0.0007450580596923828
ell 84, elapsed: 0.0006339550018310547
ell 83, elapsed: 0.0006690025329589844
ell 82, elapsed: 0.0005941390991210938
ell 81, elapsed: 0.0007600784301757812
ell 80, elapsed: 0.0006420612335205078
ell 79, elapsed: 0.000762939453125
ell 78, elapsed: 0.0006418228149414062
ell 77, elapsed: 0.0007991790771484375
ell 76, elapsed: 0.0006339550018310547
ell 75, elapsed: 0.0007498264312744141
ell 74, elapsed: 0.0006310939788818359
ell 73, elapsed: 0.0007498264312744141
ell 72, elapsed: 0.0006270408630371094
ell 71, elapsed: 0.0007660388946533203
ell 70, elapsed: 0.0006239414215087891
ell 69, elapsed: 0.0007529258728027344
ell 68, elapsed: 0.0006299018859863281
ell 67, elapsed: 0.0007541179656982422
ell 66, elapsed: 0.0006349086761474609
ell 65, elapsed: 0.0007269382476806641
ell 64, elapsed: 0.0005481243133544922
ell 63, elapsed: 0.0006680488586425781
ell 62, elapsed: 0.0005819797515869141
ell 61, elapsed: 0.0007519721984863281
ell 60, elapsed: 0.0006940364837646484
ell 59, elapsed: 0.0007579326629638672
ell 58, elapsed: 0.0006031990051269531
ell 57, elapsed: 0.0007450580596923828
ell 56, elapsed: 0.0006458759307861328
ell 55, elapsed: 0.0007498264312744141
ell 54, elapsed: 0.0006279945373535156
ell 53, elapsed: 0.0007460117340087891
ell 52, elapsed: 0.0006279945373535156
ell 51, elapsed: 0.0007529258728027344
ell 50, elapsed: 0.0005228519439697266
ell 49, elapsed: 0.0006520748138427734
ell 48, elapsed: 0.0006320476531982422
ell 47, elapsed: 0.0007472038269042969
ell 46, elapsed: 0.0006389617919921875
ell 45, elapsed: 0.0007450580596923828
ell 44, elapsed: 0.0004711151123046875
ell 43, elapsed: 0.0006878376007080078
ell 42, elapsed: 0.0006310939788818359
ell 41, elapsed: 0.0007479190826416016
ell 40, elapsed: 0.0006358623504638672
ell 39, elapsed: 0.000759124755859375
ell 38, elapsed: 0.0006549358367919922
ell 37, elapsed: 0.0007560253143310547
ell 36, elapsed: 0.0005919933319091797
ell 35, elapsed: 0.0007600784301757812
ell 34, elapsed: 0.0006468296051025391
ell 33, elapsed: 0.0007579326629638672
ell 32, elapsed: 0.0006389617919921875
ell 31, elapsed: 0.0007498264312744141
ell 30, elapsed: 0.0004930496215820312
ell 29, elapsed: 0.0006060600280761719
ell 28, elapsed: 0.0006248950958251953
ell 27, elapsed: 0.0008130073547363281
ell 26, elapsed: 0.0006470680236816406
ell 25, elapsed: 0.0007510185241699219
ell 24, elapsed: 0.0006189346313476562
ell 23, elapsed: 0.0007269382476806641
ell 22, elapsed: 0.0006279945373535156
ell 21, elapsed: 0.0007760524749755859
ell 20, elapsed: 0.0006301403045654297
ell 19, elapsed: 0.0007500648498535156
ell 18, elapsed: 0.0006310939788818359
ell 17, elapsed: 0.0007479190826416016
ell 16, elapsed: 0.0006520748138427734
ell 15, elapsed: 0.0007331371307373047
ell 14, elapsed: 0.000514984130859375
ell 13, elapsed: 0.0004980564117431641
ell 12, elapsed: 0.0005669593811035156
ell 11, elapsed: 0.0007479190826416016
ell 10, elapsed: 0.0006949901580810547
ell 9, elapsed: 0.0007078647613525391
ell 8, elapsed: 0.0006279945373535156
ell 7, elapsed: 0.0007429122924804688
ell 6, elapsed: 0.0006358623504638672
ell 5, elapsed: 0.0007569789886474609
ell 4, elapsed: 0.0006451606750488281
ell 3, elapsed: 0.0007569789886474609
ell 2, elapsed: 0.0006318092346191406
ell 1, elapsed: 0.0007522106170654297
ell 0, elapsed: 0.0005521774291992188
  0.681569 seconds (41.19 k allocations: 2.939 MiB)
elapsed: 0.0008089542388916016
step:          0.072846 sec (0 allocations: 0 byte, 0.0% gc time)
swapping:      0.000835 sec (0 allocations: 0 byte, 0.0% gc time)
calc_Mellell!: 0.012997 sec (0 allocations: 0 byte, 0.0% gc time)
  t0 :  0.002489 sec (0 allocations: 0 byte, 0.0% gc time)
  tm2 : 0.110326 sec (0 allocations: 0 byte, 0.0% gc time)
  tm2s: 0.00236 sec (0 allocations: 0 byte, 0.0% gc time)
  tm4 : 0.28972 sec (0 allocations: 0 byte, 0.0% gc time)
  tp2 : 0.0 sec (0 allocations: 0 byte, 0.0% gc time)
  tp2s: 0.0 sec (0 allocations: 0 byte, 0.0% gc time)
  tp4 : 0.0 sec (0 allocations: 0 byte, 0.0% gc time)
calc_wtdll!:   0.423658 sec (9.87 k allocations: 1.043 MB, 0.0% gc time)
calc_wljj!:    0.047392 sec (689 allocations: 10.766 KB, 0.0% gc time)
mult_prefac!:  0.0 sec (0 allocations: 0 byte, 0.0% gc time)
convert:       0.0 sec (0 allocations: 0 byte, 0.0% gc time)
write:         0.057563 sec (0 allocations: 0 byte, 0.0% gc time)
test_rand_2f1: 0.0 sec (0 allocations: 0 byte, 0.0% gc time)
Closing outfile out/Ml21-cache.bin...   0.024189 seconds
  0.000651 seconds (52 allocations: 28.297 KiB)
make_phi():   0.002903 seconds (8.20 k allocations: 238.016 KiB)
  0.166837 seconds (146.69 k allocations: 3.629 MiB)
tskip:       0.001015 sec (0 allocations: 0 byte, 0.0% gc time)
tread:       0.022891 sec (19 allocations: 10.688 KB, 0.0% gc time)
tmultphi:    0.011993 sec (0 allocations: 0 byte, 0.0% gc time)
tbrfft:      0.044168 sec (9.592 k allocations: 449.625 KB, 0.0% gc time)
tmultprefac: 0.031789 sec (0 allocations: 0 byte, 0.0% gc time)
toutfunc:    0.053234 sec (129.905 k allocations: 2.421 MB, 0.0% gc time)
Testing R=1.0 ... passed
Calculating fmax: 
  dlrec    = 4
  dlrecRg1 = -4
  q=1.1, R=0.9:	  0.452288 seconds (116.47 k allocations: 15.614 MiB)

  0.452753 seconds (116.50 k allocations: 15.647 MiB)
ℓ = 1202
Δℓ = 4
ΔℓRg1 = -4
N = 1600
q = 1.1
kmin = 1.0e-5
kmax = 100000.00000000004
χ0 = 0.023029999999999995
RR = RR.tsv
ℓmax = ℓmax.bin
f21 = f21.bin
kmin = 1.0e-5
kmax = 100000.0
dlrec    = 4
dlrecRg1 = -4
Output size: 5741568 bytes = 0.005347251892089844 GiB
Output size: 51264 bytes = 4.774332046508789e-5 GiB
Reading 'out/F21EllCache'...   0.001119 seconds (267 allocations: 84.656 KiB)
ellmax: 1202
lmaxcache: 1202
fell[:,1,1] = Complex{Float64}[1.3482014726274674e-57 - 3.302141236118086e-73im, 1.357860004724329e-57 - 3.3257978169518355e-73im]
ell 1202, elapsed: 5.412101745605469e-5
ell 1201, elapsed: 0.0004379749298095703
ell 1200, elapsed: 0.0005519390106201172
ell 1199, elapsed: 0.0005850791931152344
ell 1198, elapsed: 0.00046706199645996094
ell 1002, elapsed: 0.010066032409667969
ell 1001, elapsed: 0.0004048347473144531
ell 1000, elapsed: 0.0003819465637207031
ell 999, elapsed: 0.0004191398620605469
ell 998, elapsed: 0.0005519390106201172
ell 902, elapsed: 0.005650997161865234
ell 901, elapsed: 0.0004467964172363281
ell 900, elapsed: 0.00037598609924316406
ell 899, elapsed: 0.0004971027374267578
ell 898, elapsed: 0.0005738735198974609
ell 802, elapsed: 0.005537986755371094
ell 801, elapsed: 0.0003578662872314453
ell 800, elapsed: 0.0003399848937988281
ell 799, elapsed: 0.0004401206970214844
ell 798, elapsed: 0.0006151199340820312
ell 702, elapsed: 0.004755973815917969
ell 701, elapsed: 0.00036406517028808594
ell 700, elapsed: 0.0003421306610107422
ell 699, elapsed: 0.000347137451171875
ell 698, elapsed: 0.0003578662872314453
ell 602, elapsed: 0.005506992340087891
ell 601, elapsed: 0.0005099773406982422
ell 600, elapsed: 0.0004570484161376953
ell 599, elapsed: 0.0003478527069091797
ell 598, elapsed: 0.00034499168395996094
ell 502, elapsed: 0.005339860916137695
ell 501, elapsed: 0.0004661083221435547
ell 500, elapsed: 0.0003528594970703125
ell 499, elapsed: 0.0004730224609375
ell 498, elapsed: 0.0005400180816650391
ell 402, elapsed: 0.004974842071533203
ell 401, elapsed: 0.0005710124969482422
ell 400, elapsed: 0.0005590915679931641
ell 399, elapsed: 0.00045299530029296875
ell 398, elapsed: 0.0005500316619873047
ell 302, elapsed: 0.005079984664916992
ell 301, elapsed: 0.0005280971527099609
ell 300, elapsed: 0.0004520416259765625
ell 299, elapsed: 0.0005199909210205078
ell 298, elapsed: 0.0005018711090087891
ell 202, elapsed: 0.005505800247192383
ell 201, elapsed: 0.0005180835723876953
ell 200, elapsed: 0.0004971027374267578
ell 199, elapsed: 0.0004990100860595703
ell 198, elapsed: 0.0005657672882080078
ell 152, elapsed: 0.0027379989624023438
ell 151, elapsed: 0.0004420280456542969
ell 150, elapsed: 0.0007550716400146484
ell 149, elapsed: 0.0003750324249267578
ell 148, elapsed: 0.000331878662109375
ell 127, elapsed: 0.001664876937866211
ell 126, elapsed: 0.0004918575286865234
ell 125, elapsed: 0.0005879402160644531
ell 124, elapsed: 0.0005030632019042969
ell 123, elapsed: 0.0005469322204589844
ell 114, elapsed: 0.0009009838104248047
ell 113, elapsed: 0.00042510032653808594
ell 112, elapsed: 0.0005459785461425781
ell 111, elapsed: 0.0005397796630859375
ell 110, elapsed: 0.0004930496215820312
ell 102, elapsed: 0.0009601116180419922
ell 101, elapsed: 0.0005979537963867188
ell 100, elapsed: 0.0005037784576416016
ell 99, elapsed: 0.00034809112548828125
ell 98, elapsed: 0.00045418739318847656
ell 97, elapsed: 0.0005559921264648438
ell 96, elapsed: 0.0006699562072753906
ell 95, elapsed: 0.0006091594696044922
ell 94, elapsed: 0.0005681514739990234
ell 93, elapsed: 0.000392913818359375
ell 92, elapsed: 0.00047397613525390625
ell 91, elapsed: 0.0004749298095703125
ell 90, elapsed: 0.0009469985961914062
ell 89, elapsed: 0.0004229545593261719
ell 88, elapsed: 0.0004379749298095703
ell 87, elapsed: 0.0005171298980712891
ell 86, elapsed: 0.0007200241088867188
ell 85, elapsed: 0.0004830360412597656
ell 84, elapsed: 0.0006489753723144531
ell 83, elapsed: 0.0005397796630859375
ell 82, elapsed: 0.00044608116149902344
ell 81, elapsed: 0.0003609657287597656
ell 80, elapsed: 0.0004410743713378906
ell 79, elapsed: 0.0004642009735107422
ell 78, elapsed: 0.0007300376892089844
ell 77, elapsed: 0.0005080699920654297
ell 76, elapsed: 0.0006330013275146484
ell 75, elapsed: 0.0004909038543701172
ell 74, elapsed: 0.0006709098815917969
ell 73, elapsed: 0.00044989585876464844
ell 72, elapsed: 0.0006170272827148438
ell 71, elapsed: 0.00048613548278808594
ell 70, elapsed: 0.0004780292510986328
ell 69, elapsed: 0.0005810260772705078
ell 68, elapsed: 0.0007429122924804688
ell 67, elapsed: 0.00038695335388183594
ell 66, elapsed: 0.000431060791015625
ell 65, elapsed: 0.000518798828125
ell 64, elapsed: 0.0007278919219970703
ell 63, elapsed: 0.0005340576171875
ell 62, elapsed: 0.0005369186401367188
ell 61, elapsed: 0.0005328655242919922
ell 60, elapsed: 0.0005459785461425781
ell 59, elapsed: 0.00045609474182128906
ell 58, elapsed: 0.0007240772247314453
ell 57, elapsed: 0.00049591064453125
ell 56, elapsed: 0.0006718635559082031
ell 55, elapsed: 0.0006051063537597656
ell 54, elapsed: 0.0006241798400878906
ell 53, elapsed: 0.0003731250762939453
ell 52, elapsed: 0.000579833984375
ell 51, elapsed: 0.0005109310150146484
ell 50, elapsed: 0.00047779083251953125
ell 49, elapsed: 0.00038909912109375
ell 48, elapsed: 0.0007038116455078125
ell 47, elapsed: 0.0005390644073486328
ell 46, elapsed: 0.0006670951843261719
ell 45, elapsed: 0.0005280971527099609
ell 44, elapsed: 0.0004839897155761719
ell 43, elapsed: 0.0005412101745605469
ell 42, elapsed: 0.0006611347198486328
ell 41, elapsed: 0.00035881996154785156
ell 40, elapsed: 0.0005879402160644531
ell 39, elapsed: 0.0004999637603759766
ell 38, elapsed: 0.0006821155548095703
ell 37, elapsed: 0.0005218982696533203
ell 36, elapsed: 0.00047087669372558594
ell 35, elapsed: 0.0005359649658203125
ell 34, elapsed: 0.0007240772247314453
ell 33, elapsed: 0.0004971027374267578
ell 32, elapsed: 0.0004680156707763672
ell 31, elapsed: 0.0004000663757324219
ell 30, elapsed: 0.0004661083221435547
ell 29, elapsed: 0.0003960132598876953
ell 28, elapsed: 0.0007398128509521484
ell 27, elapsed: 0.0004680156707763672
ell 26, elapsed: 0.0004849433898925781
ell 25, elapsed: 0.0004558563232421875
ell 24, elapsed: 0.00074005126953125
ell 23, elapsed: 0.0004489421844482422
ell 22, elapsed: 0.0004391670227050781
ell 21, elapsed: 0.0004971027374267578
ell 20, elapsed: 0.0006189346313476562
ell 19, elapsed: 0.0005199909210205078
ell 18, elapsed: 0.0006110668182373047
ell 17, elapsed: 0.0003619194030761719
ell 16, elapsed: 0.0006339550018310547
ell 15, elapsed: 0.000598907470703125
ell 14, elapsed: 0.0007860660552978516
ell 13, elapsed: 0.0005900859832763672
ell 12, elapsed: 0.0005359649658203125
ell 11, elapsed: 0.0005178451538085938
ell 10, elapsed: 0.0006041526794433594
ell 9, elapsed: 0.0004520416259765625
ell 8, elapsed: 0.0006830692291259766
ell 7, elapsed: 0.00037288665771484375
ell 6, elapsed: 0.0006489753723144531
ell 5, elapsed: 0.0004630088806152344
ell 4, elapsed: 0.0006699562072753906
ell 3, elapsed: 0.00043201446533203125
ell 2, elapsed: 0.0004439353942871094
ell 1, elapsed: 0.0003681182861328125
ell 0, elapsed: 0.0007309913635253906
  0.146491 seconds (10.83 k allocations: 697.938 KiB)
elapsed: 0.0007281303405761719
step:          0.059106 sec (0 allocations: 0 byte, 0.0% gc time)
swapping:      0.000554 sec (0 allocations: 0 byte, 0.0% gc time)
calc_Mellell!: 0.001634 sec (0 allocations: 0 byte, 0.0% gc time)
  t0 :  0.000545 sec (0 allocations: 0 byte, 0.0% gc time)
  tm2 : 0.015722 sec (0 allocations: 0 byte, 0.0% gc time)
  tm2s: 0.000378 sec (0 allocations: 0 byte, 0.0% gc time)
  tm4 : 0.041853 sec (0 allocations: 0 byte, 0.0% gc time)
  tp2 : 0.0 sec (0 allocations: 0 byte, 0.0% gc time)
  tp2s: 0.0 sec (0 allocations: 0 byte, 0.0% gc time)
  tp4 : 0.0 sec (0 allocations: 0 byte, 0.0% gc time)
calc_wtdll!:   0.059345 sec (1.344 k allocations: 147.0 KB, 0.0% gc time)
calc_wljj!:    0.004317 sec (6 allocations: 96 byte, 0.0% gc time)
mult_prefac!:  0.0 sec (0 allocations: 0 byte, 0.0% gc time)
convert:       0.0 sec (0 allocations: 0 byte, 0.0% gc time)
write:         0.006569 sec (0 allocations: 0 byte, 0.0% gc time)
test_rand_2f1: 0.0 sec (0 allocations: 0 byte, 0.0% gc time)
Closing outfile out/Ml21-cache.bin...   0.002763 seconds
  0.000239 seconds (52 allocations: 28.297 KiB)
make_phi():   0.002516 seconds (8.20 k allocations: 238.016 KiB)
  0.016382 seconds (12.10 k allocations: 322.000 KiB)
tskip:       1.9e-5 sec (0 allocations: 0 byte, 0.0% gc time)
tread:       0.002418 sec (19 allocations: 2.172 KB, 0.0% gc time)
tmultphi:    0.001156 sec (0 allocations: 0 byte, 0.0% gc time)
tbrfft:      0.004284 sec (896 allocations: 42.0 KB, 0.0% gc time)
tmultprefac: 0.003326 sec (0 allocations: 0 byte, 0.0% gc time)
toutfunc:    0.005136 sec (10.528 k allocations: 206.5 KB, 0.0% gc time)
Testing R=0.9 ... passed
Calculating fmax: 
  dlrec    = 4
  dlrecRg1 = -4
  q=1.1, R=0.8:	  0.357005 seconds (113.61 k allocations: 15.166 MiB)

  0.357245 seconds (113.65 k allocations: 15.200 MiB)
ℓ = 1202
Δℓ = 4
ΔℓRg1 = -4
N = 1600
q = 1.1
kmin = 1.0e-5
kmax = 100000.00000000004
χ0 = 0.023029999999999995
RR = RR.tsv
ℓmax = ℓmax.bin
f21 = f21.bin
kmin = 1.0e-5
kmax = 100000.0
dlrec    = 4
dlrecRg1 = -4
Output size: 5741568 bytes = 0.005347251892089844 GiB
Output size: 51264 bytes = 4.774332046508789e-5 GiB
Reading 'out/F21EllCache'...   0.001063 seconds (267 allocations: 84.656 KiB)
ellmax: 1202
lmaxcache: 1202
fell[:,1,1] = Complex{Float64}[7.519068145690986e-120 - 1.8416405474382574e-135im, 7.541664537386155e-120 - 1.847175067190611e-135im]
ell 1202, elapsed: 1.811981201171875e-5
ell 1201, elapsed: 0.0004298686981201172
ell 1200, elapsed: 0.0005679130554199219
ell 1199, elapsed: 0.0006198883056640625
ell 1198, elapsed: 0.0006170272827148438
ell 1002, elapsed: 0.00981903076171875
ell 1001, elapsed: 0.0004820823669433594
ell 1000, elapsed: 0.0005710124969482422
ell 999, elapsed: 0.0005278587341308594
ell 998, elapsed: 0.0003528594970703125
ell 902, elapsed: 0.005388975143432617
ell 901, elapsed: 0.0005090236663818359
ell 900, elapsed: 0.0005650520324707031
ell 899, elapsed: 0.0004858970642089844
ell 898, elapsed: 0.0004990100860595703
ell 802, elapsed: 0.0052149295806884766
ell 801, elapsed: 0.00048804283142089844
ell 800, elapsed: 0.0005388259887695312
ell 799, elapsed: 0.00040793418884277344
ell 798, elapsed: 0.000308990478515625
ell 702, elapsed: 0.004314899444580078
ell 701, elapsed: 0.00040793418884277344
ell 700, elapsed: 0.0004200935363769531
ell 699, elapsed: 0.0004150867462158203
ell 698, elapsed: 0.00041794776916503906
ell 602, elapsed: 0.005971193313598633
ell 601, elapsed: 0.0003960132598876953
ell 600, elapsed: 0.0004119873046875
ell 599, elapsed: 0.00040912628173828125
ell 598, elapsed: 0.0004119873046875
ell 502, elapsed: 0.005886077880859375
ell 501, elapsed: 0.00036406517028808594
ell 500, elapsed: 0.00035119056701660156
ell 499, elapsed: 0.0003440380096435547
ell 498, elapsed: 0.00034308433532714844
ell 402, elapsed: 0.00492095947265625
ell 401, elapsed: 0.0003600120544433594
ell 400, elapsed: 0.0003421306610107422
ell 399, elapsed: 0.0003399848937988281
ell 398, elapsed: 0.0003600120544433594
ell 302, elapsed: 0.004729032516479492
ell 301, elapsed: 0.00041604042053222656
ell 300, elapsed: 0.000347137451171875
ell 299, elapsed: 0.0003581047058105469
ell 298, elapsed: 0.00034809112548828125
ell 202, elapsed: 0.005053997039794922
ell 201, elapsed: 0.0003631114959716797
ell 200, elapsed: 0.0003631114959716797
ell 199, elapsed: 0.00035691261291503906
ell 198, elapsed: 0.0003249645233154297
ell 152, elapsed: 0.0023500919342041016
ell 151, elapsed: 0.00033092498779296875
ell 150, elapsed: 0.00035190582275390625
ell 149, elapsed: 0.00033092498779296875
ell 148, elapsed: 0.0003268718719482422
ell 127, elapsed: 0.0014040470123291016
ell 126, elapsed: 0.00033402442932128906
ell 125, elapsed: 0.00032591819763183594
ell 124, elapsed: 0.00033092498779296875
ell 123, elapsed: 0.00032591819763183594
ell 114, elapsed: 0.0007870197296142578
ell 113, elapsed: 0.0003218650817871094
ell 112, elapsed: 0.0003218650817871094
ell 111, elapsed: 0.0003230571746826172
ell 110, elapsed: 0.00032210350036621094
ell 102, elapsed: 0.000782012939453125
ell 101, elapsed: 0.0003211498260498047
ell 100, elapsed: 0.0003218650817871094
ell 99, elapsed: 0.0003228187561035156
ell 98, elapsed: 0.0003669261932373047
ell 97, elapsed: 0.0003600120544433594
ell 96, elapsed: 0.0004410743713378906
ell 95, elapsed: 0.0003528594970703125
ell 94, elapsed: 0.0004241466522216797
ell 93, elapsed: 0.0003681182861328125
ell 92, elapsed: 0.00041794776916503906
ell 91, elapsed: 0.00035309791564941406
ell 90, elapsed: 0.00041294097900390625
ell 89, elapsed: 0.0003650188446044922
ell 88, elapsed: 0.0004210472106933594
ell 87, elapsed: 0.00035309791564941406
ell 86, elapsed: 0.00042819976806640625
ell 85, elapsed: 0.0003509521484375
ell 84, elapsed: 0.00041604042053222656
ell 83, elapsed: 0.00035309791564941406
ell 82, elapsed: 0.00041484832763671875
ell 81, elapsed: 0.00035190582275390625
ell 80, elapsed: 0.00041484832763671875
ell 79, elapsed: 0.0003840923309326172
ell 78, elapsed: 0.0004279613494873047
ell 77, elapsed: 0.0003521442413330078
ell 76, elapsed: 0.0004150867462158203
ell 75, elapsed: 0.00035500526428222656
ell 74, elapsed: 0.0004131793975830078
ell 73, elapsed: 0.0003509521484375
ell 72, elapsed: 0.0004138946533203125
ell 71, elapsed: 0.0003478527069091797
ell 70, elapsed: 0.00046181678771972656
ell 69, elapsed: 0.0004010200500488281
ell 68, elapsed: 0.00045490264892578125
ell 67, elapsed: 0.0003769397735595703
ell 66, elapsed: 0.0004429817199707031
ell 65, elapsed: 0.0003819465637207031
ell 64, elapsed: 0.0004458427429199219
ell 63, elapsed: 0.0003750324249267578
ell 62, elapsed: 0.0004489421844482422
ell 61, elapsed: 0.00037598609924316406
ell 60, elapsed: 0.0004839897155761719
ell 59, elapsed: 0.00037789344787597656
ell 58, elapsed: 0.0004608631134033203
ell 57, elapsed: 0.00037980079650878906
ell 56, elapsed: 0.0004439353942871094
ell 55, elapsed: 0.0003859996795654297
ell 54, elapsed: 0.00044608116149902344
ell 53, elapsed: 0.00037789344787597656
ell 52, elapsed: 0.000453948974609375
ell 51, elapsed: 0.0008349418640136719
ell 50, elapsed: 0.0004329681396484375
ell 49, elapsed: 0.00035500526428222656
ell 48, elapsed: 0.00041604042053222656
ell 47, elapsed: 0.0003528594970703125
ell 46, elapsed: 0.0004119873046875
ell 45, elapsed: 0.00034999847412109375
ell 44, elapsed: 0.0004220008850097656
ell 43, elapsed: 0.0003910064697265625
ell 42, elapsed: 0.00049591064453125
ell 41, elapsed: 0.0003712177276611328
ell 40, elapsed: 0.0004360675811767578
ell 39, elapsed: 0.0003750324249267578
ell 38, elapsed: 0.0004448890686035156
ell 37, elapsed: 0.00037407875061035156
ell 36, elapsed: 0.00045108795166015625
ell 35, elapsed: 0.00037598609924316406
ell 34, elapsed: 0.0005800724029541016
ell 33, elapsed: 0.0003540515899658203
ell 32, elapsed: 0.0004220008850097656
ell 31, elapsed: 0.0003769397735595703
ell 30, elapsed: 0.0004210472106933594
ell 29, elapsed: 0.00035500526428222656
ell 28, elapsed: 0.00041294097900390625
ell 27, elapsed: 0.00034999847412109375
ell 26, elapsed: 0.00041794776916503906
ell 25, elapsed: 0.00037407875061035156
ell 24, elapsed: 0.00044798851013183594
ell 23, elapsed: 0.0003800392150878906
ell 22, elapsed: 0.00045609474182128906
ell 21, elapsed: 0.0003840923309326172
ell 20, elapsed: 0.000453948974609375
ell 19, elapsed: 0.0003731250762939453
ell 18, elapsed: 0.00044918060302734375
ell 17, elapsed: 0.0003788471221923828
ell 16, elapsed: 0.0004620552062988281
[...]
ell 788, elapsed: 0.0008618831634521484
ell 782, elapsed: 0.001692056655883789
ell 781, elapsed: 0.0008618831634521484
ell 780, elapsed: 0.0008590221405029297
ell 779, elapsed: 0.0008571147918701172
ell 778, elapsed: 0.0008680820465087891
ell 772, elapsed: 0.0016880035400390625
ell 771, elapsed: 0.00086212158203125
ell 770, elapsed: 0.0008690357208251953
ell 769, elapsed: 0.0008552074432373047
ell 768, elapsed: 0.0008559226989746094
ell 762, elapsed: 0.0016520023345947266
ell 761, elapsed: 0.0008649826049804688
ell 760, elapsed: 0.0008609294891357422
ell 759, elapsed: 0.0008599758148193359
ell 758, elapsed: 0.0008549690246582031
ell 752, elapsed: 0.0016682147979736328
ell 751, elapsed: 0.0008630752563476562
ell 750, elapsed: 0.0008590221405029297
ell 749, elapsed: 0.0009140968322753906
ell 748, elapsed: 0.000720977783203125
ell 742, elapsed: 0.0013360977172851562
ell 741, elapsed: 0.0007128715515136719
ell 740, elapsed: 0.0007159709930419922
ell 739, elapsed: 0.00084686279296875
ell 738, elapsed: 0.0008549690246582031
ell 732, elapsed: 0.0016717910766601562
ell 731, elapsed: 0.0008759498596191406
ell 730, elapsed: 0.0008530616760253906
ell 729, elapsed: 0.0008540153503417969
ell 728, elapsed: 0.0008590221405029297
ell 722, elapsed: 0.0016698837280273438
ell 721, elapsed: 0.0008611679077148438
ell 720, elapsed: 0.0008540153503417969
ell 719, elapsed: 0.0008509159088134766
ell 718, elapsed: 0.000865936279296875
ell 712, elapsed: 0.0016658306121826172
ell 711, elapsed: 0.0008628368377685547
ell 710, elapsed: 0.0008711814880371094
ell 709, elapsed: 0.0008530616760253906
ell 708, elapsed: 0.0008559226989746094
ell 702, elapsed: 0.001650094985961914
ell 701, elapsed: 0.0008680820465087891
ell 700, elapsed: 0.0008502006530761719
ell 699, elapsed: 0.0008499622344970703
ell 698, elapsed: 0.0008559226989746094
ell 692, elapsed: 0.0017271041870117188
ell 691, elapsed: 0.0008530616760253906
ell 690, elapsed: 0.0008518695831298828
ell 689, elapsed: 0.0008509159088134766
ell 688, elapsed: 0.0008628368377685547
ell 682, elapsed: 0.0016398429870605469
ell 681, elapsed: 0.0008630752563476562
ell 680, elapsed: 0.0009369850158691406
ell 679, elapsed: 0.0008690357208251953
ell 678, elapsed: 0.0008630752563476562
ell 672, elapsed: 0.0016019344329833984
ell 671, elapsed: 0.0008709430694580078
ell 670, elapsed: 0.0008599758148193359
ell 669, elapsed: 0.0008559226989746094
ell 668, elapsed: 0.0008490085601806641
ell 662, elapsed: 0.0015828609466552734
ell 661, elapsed: 0.0007779598236083984
ell 660, elapsed: 0.0007729530334472656
ell 659, elapsed: 0.0008258819580078125
ell 658, elapsed: 0.0008590221405029297
ell 652, elapsed: 0.0015358924865722656
ell 651, elapsed: 0.0008919239044189453
ell 650, elapsed: 0.0008358955383300781
ell 649, elapsed: 0.0008878707885742188
ell 648, elapsed: 0.0008971691131591797
ell 642, elapsed: 0.0015997886657714844
ell 641, elapsed: 0.0009109973907470703
ell 640, elapsed: 0.0008630752563476562
ell 639, elapsed: 0.0009069442749023438
ell 638, elapsed: 0.0009169578552246094
ell 632, elapsed: 0.0015912055969238281
ell 631, elapsed: 0.0009419918060302734
ell 630, elapsed: 0.0009438991546630859
ell 629, elapsed: 0.0009229183197021484
ell 628, elapsed: 0.0009131431579589844
ell 622, elapsed: 0.001920938491821289
ell 621, elapsed: 0.0009300708770751953
ell 620, elapsed: 0.0009448528289794922
ell 619, elapsed: 0.0009279251098632812
ell 618, elapsed: 0.0009150505065917969
ell 612, elapsed: 0.0018908977508544922
ell 611, elapsed: 0.0008718967437744141
ell 610, elapsed: 0.0009410381317138672
ell 609, elapsed: 0.0009379386901855469
ell 608, elapsed: 0.0009520053863525391
ell 602, elapsed: 0.0018639564514160156
ell 601, elapsed: 0.0008349418640136719
ell 600, elapsed: 0.0008690357208251953
ell 599, elapsed: 0.0008630752563476562
ell 598, elapsed: 0.0008652210235595703
ell 592, elapsed: 0.0018930435180664062
ell 591, elapsed: 0.0008151531219482422
ell 590, elapsed: 0.0008709430694580078
ell 589, elapsed: 0.0008630752563476562
ell 588, elapsed: 0.0008580684661865234
ell 582, elapsed: 0.0018138885498046875
ell 581, elapsed: 0.0007929801940917969
ell 580, elapsed: 0.0010988712310791016
ell 579, elapsed: 0.0008628368377685547
ell 578, elapsed: 0.0008671283721923828
ell 572, elapsed: 0.001859903335571289
ell 571, elapsed: 0.0008649826049804688
ell 570, elapsed: 0.0008718967437744141
ell 569, elapsed: 0.0008640289306640625
ell 568, elapsed: 0.0011458396911621094
ell 562, elapsed: 0.001667022705078125
ell 561, elapsed: 0.0008709430694580078
ell 560, elapsed: 0.0008769035339355469
ell 559, elapsed: 0.0008800029754638672
ell 558, elapsed: 0.0008780956268310547
ell 552, elapsed: 0.001825094223022461
ell 551, elapsed: 0.0008289813995361328
ell 550, elapsed: 0.000885009765625
ell 549, elapsed: 0.0008869171142578125
ell 548, elapsed: 0.0008900165557861328
ell 542, elapsed: 0.001847982406616211
ell 541, elapsed: 0.0008151531219482422
ell 540, elapsed: 0.0008640289306640625
ell 539, elapsed: 0.00086212158203125
ell 538, elapsed: 0.0008828639984130859
ell 532, elapsed: 0.0018858909606933594
ell 531, elapsed: 0.0008778572082519531
ell 530, elapsed: 0.0008947849273681641
ell 529, elapsed: 0.0008652210235595703
ell 528, elapsed: 0.0008630752563476562
ell 522, elapsed: 0.0018889904022216797
ell 521, elapsed: 0.0008678436279296875
ell 520, elapsed: 0.0008640289306640625
ell 519, elapsed: 0.0011298656463623047
ell 518, elapsed: 0.0008819103240966797
ell 512, elapsed: 0.002176046371459961
ell 511, elapsed: 0.0008759498596191406
ell 510, elapsed: 0.0008740425109863281
ell 509, elapsed: 0.00086212158203125
ell 508, elapsed: 0.0008628368377685547
ell 502, elapsed: 0.0017120838165283203
ell 501, elapsed: 0.00115203857421875
ell 500, elapsed: 0.0008640289306640625
ell 499, elapsed: 0.0007588863372802734
ell 498, elapsed: 0.0008680820465087891
ell 492, elapsed: 0.0016748905181884766
ell 491, elapsed: 0.0008609294891357422
ell 490, elapsed: 0.0007870197296142578
ell 489, elapsed: 0.0007870197296142578
ell 488, elapsed: 0.0008749961853027344
ell 482, elapsed: 0.0017709732055664062
ell 481, elapsed: 0.0008339881896972656
ell 480, elapsed: 0.0008571147918701172
ell 479, elapsed: 0.0008549690246582031
ell 478, elapsed: 0.0008549690246582031
ell 472, elapsed: 0.0016710758209228516
ell 471, elapsed: 0.000965118408203125
ell 470, elapsed: 0.0009181499481201172
ell 469, elapsed: 0.0009279251098632812
ell 468, elapsed: 0.0008900165557861328
ell 462, elapsed: 0.001683950424194336
ell 461, elapsed: 0.0008749961853027344
ell 460, elapsed: 0.0008580684661865234
ell 459, elapsed: 0.0008740425109863281
ell 458, elapsed: 0.0008840560913085938
ell 452, elapsed: 0.0016970634460449219
ell 451, elapsed: 0.0008840560913085938
ell 450, elapsed: 0.0008730888366699219
ell 449, elapsed: 0.0008718967437744141
ell 448, elapsed: 0.000888824462890625
ell 442, elapsed: 0.0017368793487548828
ell 441, elapsed: 0.0009229183197021484
ell 440, elapsed: 0.0009300708770751953
ell 439, elapsed: 0.0009250640869140625
ell 438, elapsed: 0.0009090900421142578
ell 432, elapsed: 0.0017600059509277344
ell 431, elapsed: 0.0009191036224365234
ell 430, elapsed: 0.0008780956268310547
ell 429, elapsed: 0.0008759498596191406
ell 428, elapsed: 0.0008671283721923828
ell 422, elapsed: 0.0016560554504394531
ell 421, elapsed: 0.0008578300476074219
ell 420, elapsed: 0.0008690357208251953
ell 419, elapsed: 0.0008549690246582031
ell 418, elapsed: 0.0008609294891357422
ell 412, elapsed: 0.0016391277313232422
ell 411, elapsed: 0.0008859634399414062
ell 410, elapsed: 0.0008728504180908203
ell 409, elapsed: 0.000865936279296875
ell 408, elapsed: 0.0008828639984130859
ell 402, elapsed: 0.0016751289367675781
ell 401, elapsed: 0.0008749961853027344
ell 400, elapsed: 0.000881195068359375
ell 399, elapsed: 0.0008831024169921875
ell 398, elapsed: 0.0008759498596191406
ell 392, elapsed: 0.0016460418701171875
ell 391, elapsed: 0.0008950233459472656
ell 390, elapsed: 0.0008928775787353516
ell 389, elapsed: 0.0008749961853027344
ell 388, elapsed: 0.0009429454803466797
ell 382, elapsed: 0.0017061233520507812
ell 381, elapsed: 0.0008380413055419922
ell 380, elapsed: 0.0008270740509033203
ell 379, elapsed: 0.0008251667022705078
ell 378, elapsed: 0.0008461475372314453
ell 372, elapsed: 0.0016241073608398438
ell 371, elapsed: 0.0008289813995361328
ell 370, elapsed: 0.0008380413055419922
ell 369, elapsed: 0.0008218288421630859
ell 368, elapsed: 0.0008308887481689453
ell 362, elapsed: 0.0016379356384277344
ell 361, elapsed: 0.0008440017700195312
ell 360, elapsed: 0.0008330345153808594
ell 359, elapsed: 0.0008261203765869141
ell 358, elapsed: 0.0008318424224853516
ell 352, elapsed: 0.0016460418701171875
ell 351, elapsed: 0.0008280277252197266
ell 350, elapsed: 0.0008280277252197266
ell 349, elapsed: 0.0008208751678466797
ell 348, elapsed: 0.0008289813995361328
ell 342, elapsed: 0.0016260147094726562
ell 341, elapsed: 0.0008308887481689453
ell 340, elapsed: 0.000823974609375
ell 339, elapsed: 0.0008327960968017578
ell 338, elapsed: 0.0009069442749023438
ell 332, elapsed: 0.0017240047454833984
ell 331, elapsed: 0.0009229183197021484
ell 330, elapsed: 0.0008981227874755859
ell 329, elapsed: 0.000885009765625
ell 328, elapsed: 0.0008790493011474609
ell 322, elapsed: 0.0017249584197998047
ell 321, elapsed: 0.0008909702301025391
ell 320, elapsed: 0.0008840560913085938
ell 319, elapsed: 0.0008900165557861328
ell 318, elapsed: 0.0008749961853027344
ell 312, elapsed: 0.0016908645629882812
ell 311, elapsed: 0.0009000301361083984
ell 310, elapsed: 0.0009260177612304688
ell 309, elapsed: 0.0008409023284912109
ell 308, elapsed: 0.0008280277252197266
ell 302, elapsed: 0.00162506103515625
ell 301, elapsed: 0.0008299350738525391
ell 300, elapsed: 0.0008280277252197266
ell 299, elapsed: 0.0008249282836914062
ell 298, elapsed: 0.0008111000061035156
ell 292, elapsed: 0.0015680789947509766
ell 291, elapsed: 0.0008418560028076172
ell 290, elapsed: 0.0008459091186523438
ell 289, elapsed: 0.0008449554443359375
ell 288, elapsed: 0.0008342266082763672
ell 282, elapsed: 0.0016410350799560547
ell 281, elapsed: 0.0008420944213867188
ell 280, elapsed: 0.0008318424224853516
ell 279, elapsed: 0.0008249282836914062
ell 278, elapsed: 0.0008299350738525391
ell 272, elapsed: 0.0016350746154785156
ell 271, elapsed: 0.0008330345153808594
ell 270, elapsed: 0.0008280277252197266
ell 269, elapsed: 0.0008289813995361328
ell 268, elapsed: 0.0008320808410644531
ell 262, elapsed: 0.0016558170318603516
ell 261, elapsed: 0.0008869171142578125
ell 260, elapsed: 0.0008859634399414062
ell 259, elapsed: 0.0008909702301025391
ell 258, elapsed: 0.0008771419525146484
ell 252, elapsed: 0.0016808509826660156
ell 251, elapsed: 0.0009109973907470703
ell 250, elapsed: 0.0008831024169921875
ell 249, elapsed: 0.0008831024169921875
ell 248, elapsed: 0.0008931159973144531
ell 242, elapsed: 0.0016939640045166016
ell 241, elapsed: 0.0009081363677978516
ell 240, elapsed: 0.0008969306945800781
ell 239, elapsed: 0.0008821487426757812
ell 238, elapsed: 0.000865936279296875
ell 232, elapsed: 0.0016880035400390625
ell 231, elapsed: 0.0008790493011474609
ell 230, elapsed: 0.000885009765625
ell 229, elapsed: 0.0008919239044189453
ell 228, elapsed: 0.0009150505065917969
ell 222, elapsed: 0.0017359256744384766
ell 221, elapsed: 0.0008981227874755859
ell 220, elapsed: 0.0009088516235351562
ell 219, elapsed: 0.0008971691131591797
ell 218, elapsed: 0.0008809566497802734
ell 212, elapsed: 0.0017070770263671875
ell 211, elapsed: 0.0008740425109863281
ell 210, elapsed: 0.0008790493011474609
ell 209, elapsed: 0.0008702278137207031
ell 208, elapsed: 0.0008869171142578125
ell 202, elapsed: 0.0016880035400390625
ell 201, elapsed: 0.0008769035339355469
ell 200, elapsed: 0.0009028911590576172
ell 199, elapsed: 0.0008721351623535156
ell 198, elapsed: 0.0008740425109863281
ell 192, elapsed: 0.0017189979553222656
ell 191, elapsed: 0.0008890628814697266
ell 190, elapsed: 0.0009009838104248047
ell 189, elapsed: 0.0008959770202636719
ell 188, elapsed: 0.000843048095703125
ell 182, elapsed: 0.001631021499633789
ell 181, elapsed: 0.0008251667022705078
ell 180, elapsed: 0.000843048095703125
ell 179, elapsed: 0.0008220672607421875
ell 178, elapsed: 0.0008311271667480469
ell 172, elapsed: 0.0016150474548339844
ell 171, elapsed: 0.000843048095703125
ell 170, elapsed: 0.001062154769897461
ell 169, elapsed: 0.0007760524749755859
ell 168, elapsed: 0.0008327960968017578
ell 162, elapsed: 0.0016698837280273438
ell 161, elapsed: 0.0008358955383300781
ell 160, elapsed: 0.0008280277252197266
ell 159, elapsed: 0.0008308887481689453
ell 158, elapsed: 0.0008418560028076172
ell 152, elapsed: 0.0016520023345947266
ell 151, elapsed: 0.0008449554443359375
ell 150, elapsed: 0.0008471012115478516
ell 149, elapsed: 0.0008249282836914062
ell 148, elapsed: 0.0008339881896972656
ell 142, elapsed: 0.0015749931335449219
ell 141, elapsed: 0.0008680820465087891
ell 140, elapsed: 0.0008289813995361328
ell 139, elapsed: 0.0008919239044189453
ell 138, elapsed: 0.0008749961853027344
ell 132, elapsed: 0.0017299652099609375
ell 131, elapsed: 0.0008308887481689453
ell 130, elapsed: 0.0008208751678466797
ell 129, elapsed: 0.0008499622344970703
ell 128, elapsed: 0.0008461475372314453
ell 122, elapsed: 0.0016701221466064453
ell 121, elapsed: 0.0008292198181152344
ell 120, elapsed: 0.0008380413055419922
ell 119, elapsed: 0.0008151531219482422
ell 118, elapsed: 0.0008311271667480469
ell 112, elapsed: 0.001653909683227539
ell 111, elapsed: 0.0008568763732910156
ell 110, elapsed: 0.0008280277252197266
ell 109, elapsed: 0.0008289813995361328
ell 108, elapsed: 0.0008308887481689453
ell 102, elapsed: 0.0016200542449951172
ell 101, elapsed: 0.003201007843017578
ell 100, elapsed: 0.0032320022583007812
ell 99, elapsed: 0.00321197509765625
ell 98, elapsed: 0.0031931400299072266
ell 92, elapsed: 0.0058438777923583984
ell 91, elapsed: 0.003175973892211914
ell 90, elapsed: 0.003215789794921875
ell 89, elapsed: 0.003237009048461914
ell 88, elapsed: 0.003231048583984375
ell 82, elapsed: 0.0059320926666259766
ell 81, elapsed: 0.0031549930572509766
ell 80, elapsed: 0.0032079219818115234
ell 79, elapsed: 0.003244161605834961
ell 78, elapsed: 0.003180980682373047
ell 72, elapsed: 0.005877971649169922
ell 71, elapsed: 0.0031921863555908203
ell 70, elapsed: 0.0032100677490234375
ell 69, elapsed: 0.003223896026611328
ell 68, elapsed: 0.0032041072845458984
ell 62, elapsed: 0.0058460235595703125
ell 61, elapsed: 0.0031461715698242188
ell 60, elapsed: 0.0031900405883789062
ell 59, elapsed: 0.003203153610229492
ell 58, elapsed: 0.0032041072845458984
ell 52, elapsed: 0.005818843841552734
ell 51, elapsed: 0.0031681060791015625
ell 50, elapsed: 0.003195047378540039
ell 49, elapsed: 0.0031909942626953125
ell 48, elapsed: 0.0031919479370117188
ell 42, elapsed: 0.0058441162109375
ell 41, elapsed: 0.0031900405883789062
ell 40, elapsed: 0.003223896026611328
ell 39, elapsed: 0.00321197509765625
ell 38, elapsed: 0.003242969512939453
ell 32, elapsed: 0.005822896957397461
ell 31, elapsed: 0.0032050609588623047
ell 30, elapsed: 0.0032529830932617188
ell 29, elapsed: 0.00323486328125
ell 28, elapsed: 0.003220081329345703
ell 22, elapsed: 0.005823850631713867
ell 21, elapsed: 0.003195047378540039
ell 20, elapsed: 0.0032339096069335938
ell 19, elapsed: 0.0032410621643066406
ell 18, elapsed: 0.0032498836517333984
ell 12, elapsed: 0.005932807922363281
ell 11, elapsed: 0.003219127655029297
ell 10, elapsed: 0.003303050994873047
ell 9, elapsed: 0.0032320022583007812
ell 8, elapsed: 0.0032110214233398438
  0.816105 seconds (66.75 k allocations: 12.139 MiB)
elapsed: 0.0040209293365478516
step:          0.073272 sec (0 allocations: 0 byte, 0.0% gc time)
swapping:      0.000692 sec (0 allocations: 0 byte, 0.0% gc time)
calc_Mellell!: 0.042648 sec (0 allocations: 0 byte, 0.0% gc time)
  t0 :  0.009874 sec (0 allocations: 0 byte, 0.0% gc time)
  tm2 : 0.07824 sec (0 allocations: 0 byte, 0.0% gc time)
  tm2s: 0.008717 sec (0 allocations: 0 byte, 0.0% gc time)
  tm4 : 0.180937 sec (0 allocations: 0 byte, 0.0% gc time)
  tp2 : 0.0 sec (0 allocations: 0 byte, 0.0% gc time)
  tp2s: 0.0 sec (0 allocations: 0 byte, 0.0% gc time)
  tp4 : 0.0 sec (0 allocations: 0 byte, 0.0% gc time)
calc_wtdll!:   0.538361 sec (49.2 k allocations: 11.133 MB, 0.0% gc time)
calc_wljj!:    0.041132 sec (69 allocations: 1.078 KB, 0.0% gc time)
mult_prefac!:  0.0 sec (0 allocations: 0 byte, 0.0% gc time)
convert:       0.0 sec (0 allocations: 0 byte, 0.0% gc time)
write:         0.036637 sec (0 allocations: 0 byte, 0.0% gc time)
test_rand_2f1: 0.0 sec (0 allocations: 0 byte, 0.0% gc time)
Closing outfile out/MlCache/MlCache.bin...   0.000010 seconds
xi, l=0, nu=0:   0.455916 seconds (551.85 k allocations: 26.842 MiB)
xi, l=0, nu=-2:  0.002515 seconds (144 allocations: 149.562 KiB)
Created 'out/xi.tsv'.
  q=1.1, R=0.6:	  0.785886 seconds (291.08 k allocations: 38.895 MiB, 2.49% gc time)
  q=1.1, R=0.7:	  0.932755 seconds (304.75 k allocations: 40.996 MiB, 1.83% gc time)
  q=1.1, R=0.8:	  0.893429 seconds (299.14 k allocations: 40.132 MiB, 1.09% gc time)
  q=1.1, R=0.9:	  1.039487 seconds (293.57 k allocations: 39.286 MiB, 0.79% gc time)
  q=1.1, R=0.998:	 21.514112 seconds (10.67 M allocations: 823.453 MiB, 0.83% gc time)
  q=1.1, R=1.0:	  0.005249 seconds (10.24 k allocations: 768.375 KiB)

ℓ = 1000
Δℓ = 4
ΔℓRg1 = -4
N = 4096
q = 1.1
kmin = 1.0e-5
kmax = 1000.0
χ0 = 0.001
RR = RR.tsv
ℓmax = ℓmax.bin
f21 = f21.bin
kmin = 1.0e-5
kmax = 1000.0
dlrec    = 4
dlrecRg1 = -4
Output size: 1573632 bytes = 0.0014655590057373047 GiB
Output size: 786816 bytes = 0.0007327795028686523 GiB
Reading 'out/F21EllCache'...   0.001489 seconds (268 allocations: 533.531 KiB)
ellmax: 1002
lmaxcache: 1000
fell[:,1,1] = Complex{Float64}[1.7262928128202118e-224 - 4.2281979352226944e-240im, 1.7282693092099662e-224 - 4.233038955177176e-240im]
ell 1002, elapsed: 2.7894973754882812e-5
ell 1001, elapsed: 0.0014197826385498047
ell 1000, elapsed: 0.0011560916900634766
ell 999, elapsed: 0.017261028289794922
ell 998, elapsed: 0.006276130676269531
ell 44, elapsed: 0.7376291751861572
ell 43, elapsed: 0.007570028305053711
ell 42, elapsed: 0.007297039031982422
ell 41, elapsed: 0.007100105285644531
ell 40, elapsed: 0.00761103630065918
  0.802512 seconds (4.55 k allocations: 320.031 KiB)
elapsed: 0.008773088455200195
step:          0.735037 sec (0 allocations: 0 byte, 0.0% gc time)
swapping:      0.000586 sec (0 allocations: 0 byte, 0.0% gc time)
calc_Mellell!: 0.00143 sec (0 allocations: 0 byte, 0.0% gc time)
  t0 :  0.000827 sec (0 allocations: 0 byte, 0.0% gc time)
  tm2 : 0.011854 sec (0 allocations: 0 byte, 0.0% gc time)
  tm2s: 0.000729 sec (0 allocations: 0 byte, 0.0% gc time)
  tm4 : 0.041891 sec (0 allocations: 0 byte, 0.0% gc time)
  tp2 : 0.0 sec (0 allocations: 0 byte, 0.0% gc time)
  tp2s: 0.0 sec (0 allocations: 0 byte, 0.0% gc time)
  tp4 : 0.0 sec (0 allocations: 0 byte, 0.0% gc time)
calc_wtdll!:   0.055553 sec (480 allocations: 52.5 KB, 0.0% gc time)
calc_wljj!:    0.005742 sec (1 allocations: 16 byte, 0.0% gc time)
mult_prefac!:  0.0 sec (0 allocations: 0 byte, 0.0% gc time)
convert:       0.0 sec (0 allocations: 0 byte, 0.0% gc time)
write:         0.000941 sec (0 allocations: 0 byte, 0.0% gc time)
test_rand_2f1: 0.0 sec (0 allocations: 0 byte, 0.0% gc time)
Closing outfile out/MlCache/MlCache.bin...   0.001427 seconds
  0.492392 seconds (54 allocations: 67.203 KiB)
make_phi():   0.010115 seconds (80 allocations: 276.297 KiB)
  0.003502 seconds (108 allocations: 5.812 KiB)
tskip:       1.0e-6 sec (0 allocations: 0 byte, 0.0% gc time)
tread:       0.000679 sec (19 allocations: 1.312 KB, 0.0% gc time)
tmultphi:    0.00037 sec (0 allocations: 0 byte, 0.0% gc time)
tbrfft:      0.001311 sec (96 allocations: 4.5 KB, 0.0% gc time)
tmultprefac: 0.00096 sec (0 allocations: 0 byte, 0.0% gc time)
toutfunc:    0.000288 sec (0 allocations: 0 byte, 0.0% gc time)
Created 'out/wl42_jj00.tsv'.
Created 'out/wl42_jj02.tsv'.
   Testing TwoFAST tests passed 
