Julia Version 1.6.0-DEV.1048
Commit 04a5be7554 (2020-09-25 12:35 UTC)
Platform Info:
  OS: Linux (x86_64-linux-gnu)
  CPU: Intel(R) Xeon(R) Silver 4114 CPU @ 2.20GHz
  WORD_SIZE: 64
  LIBM: libopenlibm
  LLVM: libLLVM-10.0.1 (ORCJIT, skylake-avx512)
Environment:
  JULIA_DEPOT_PATH = ::/usr/local/share/julia
  JULIA_NUM_THREADS = 2

  Resolving package versions...
  Installed Reexport ───────────────────── v0.2.0
  Installed IntelOpenMP_jll ────────────── v2018.0.3+0
  Installed OpenSpecFun_jll ────────────── v0.5.3+3
  Installed CompilerSupportLibraries_jll ─ v0.3.3+0
  Installed AbstractFFTs ───────────────── v0.5.0
  Installed SpecialFunctions ───────────── v0.10.3
  Installed BinaryProvider ─────────────── v0.5.10
  Installed FFTW ───────────────────────── v1.2.4
  Installed MKL_jll ────────────────────── v2020.2.254+0
  Installed GenericSVD ─────────────────── v0.3.0
  Installed Readables ──────────────────── v0.3.3
  Installed FFTW_jll ───────────────────── v3.3.9+5
  Installed TwoFAST ────────────────────── v0.1.3
  Installed GenericSchur ───────────────── v0.4.0
  Installed ArbNumerics ────────────────── v1.2.1
Updating `~/.julia/environments/v1.6/Project.toml`
  [0dd23c3e] + TwoFAST v0.1.3
Updating `~/.julia/environments/v1.6/Manifest.toml`
  [621f4979] + AbstractFFTs v0.5.0
  [7e558dbc] + ArbNumerics v1.2.1
  [b99e7846] + BinaryProvider v0.5.10
  [e66e0078] + CompilerSupportLibraries_jll v0.3.3+0
  [7a1cc6ca] + FFTW v1.2.4
  [f5851436] + FFTW_jll v3.3.9+5
  [01680d73] + GenericSVD v0.3.0
  [c145ed77] + GenericSchur v0.4.0
  [1d5cc7b8] + IntelOpenMP_jll v2018.0.3+0
  [856f044c] + MKL_jll v2020.2.254+0
  [efe28fd5] + OpenSpecFun_jll v0.5.3+3
  [0d4725de] + Readables v0.3.3
  [189a3867] + Reexport v0.2.0
  [276daf66] + SpecialFunctions v0.10.3
  [0dd23c3e] + TwoFAST v0.1.3
  [56f22d72] + Artifacts
  [2a0f44e3] + Base64
  [ade2ca70] + Dates
  [8bb1440f] + DelimitedFiles
  [8ba89e20] + Distributed
  [b77e0a4c] + InteractiveUtils
  [76f85450] + LibGit2
  [8f399da3] + Libdl
  [37e2e46d] + LinearAlgebra
  [56ddb016] + Logging
  [d6f4376e] + Markdown
  [a63ad114] + Mmap
  [44cfe95a] + Pkg
  [de0858da] + Printf
  [3fa0cd96] + REPL
  [9a3f8284] + Random
  [ea8e919c] + SHA
  [9e88b42a] + Serialization
  [6462fe0b] + Sockets
  [fa267f1f] + TOML
  [8dfed614] + Test
  [cf7118a7] + UUIDs
  [4ec0a83e] + Unicode
   Building FFTW ───────→ `~/.julia/packages/FFTW/DMUbN/deps/build.log`
   Building ArbNumerics → `~/.julia/packages/ArbNumerics/joGFm/deps/build.log`
    Testing TwoFAST
Status `/tmp/jl_RvUa0a/Project.toml`
  [7e558dbc] ArbNumerics v1.2.1
  [39dd38d3] Dierckx v0.5.0
  [7a1cc6ca] FFTW v1.2.4
  [276daf66] SpecialFunctions v0.10.3
  [0dd23c3e] TwoFAST v0.1.3
  [8bb1440f] DelimitedFiles
  [37e2e46d] LinearAlgebra
  [56ddb016] Logging
  [8dfed614] Test
Status `/tmp/jl_RvUa0a/Manifest.toml`
  [621f4979] AbstractFFTs v0.5.0
  [7e558dbc] ArbNumerics v1.2.1
  [b99e7846] BinaryProvider v0.5.10
  [e66e0078] CompilerSupportLibraries_jll v0.3.3+0
  [39dd38d3] Dierckx v0.5.0
  [cd4c43a9] Dierckx_jll v0.0.1+0
  [7a1cc6ca] FFTW v1.2.4
  [f5851436] FFTW_jll v3.3.9+5
  [01680d73] GenericSVD v0.3.0
  [c145ed77] GenericSchur v0.4.0
  [1d5cc7b8] IntelOpenMP_jll v2018.0.3+0
  [856f044c] MKL_jll v2020.2.254+0
  [efe28fd5] OpenSpecFun_jll v0.5.3+3
  [0d4725de] Readables v0.3.3
  [189a3867] Reexport v0.2.0
  [276daf66] SpecialFunctions v0.10.3
  [0dd23c3e] TwoFAST v0.1.3
  [56f22d72] Artifacts
  [2a0f44e3] Base64
  [ade2ca70] Dates
  [8bb1440f] DelimitedFiles
  [8ba89e20] Distributed
  [b77e0a4c] InteractiveUtils
  [76f85450] LibGit2
  [8f399da3] Libdl
  [37e2e46d] LinearAlgebra
  [56ddb016] Logging
  [d6f4376e] Markdown
  [a63ad114] Mmap
  [44cfe95a] Pkg
  [de0858da] Printf
  [3fa0cd96] REPL
  [9a3f8284] Random
  [ea8e919c] SHA
  [9e88b42a] Serialization
  [6462fe0b] Sockets
  [fa267f1f] TOML
  [8dfed614] Test
  [cf7118a7] UUIDs
  [4ec0a83e] Unicode
    Testing Running tests...
WARNING: could not import Printf.ini_hex into ArbNumerics
WARNING: could not import Printf.ini_HEX into ArbNumerics
t = 0.0 sec (0 allocations: 0 byte, 0.0% gc time)
typeof(t) = NamedTuple{(:value, :time, :bytes, :gctime, :gcstats), Tuple{DataType, Float64, Int64, Float64, Base.GC_Diff}}
TwoFAST.PerformanceStats.TimedType = Union{NamedTuple{(:value, :time, :bytes, :gctime, :gcstats), Tuple{T, Float64, Int64, Float64, Base.GC_Diff}}, Tuple{Any, Float64, Int64, Float64, Base.GC_Diff}} where T
t = 1.0e-6 sec (0 allocations: 0 byte, 0.0% gc time)
t: 1.0e-6 sec (0 allocations: 0 byte, 0.0% gc time)
Testing ξ(r), ℓ=0, ν=-1 ... passed
Testing ξ(r), ℓ=0, ν=0 ... passed
Testing ξ(r), ℓ=0, ν=1 ... passed
Testing ξ(r), ℓ=0, ν=2 ... passed
Testing ξ(r), ℓ=0, ν=3 ... passed
Testing ξ(r), ℓ=1, ν=0 ... passed
Testing ξ(r), ℓ=1, ν=1 ... passed
Testing ξ(r), ℓ=1, ν=2 ... passed
Testing ξ(r), ℓ=1, ν=3 ... passed
Testing ξ(r), ℓ=2, ν=-1 ... passed
Testing ξ(r), ℓ=2, ν=0 ... passed
Testing ξ(r), ℓ=2, ν=1 ... passed
Testing ξ(r), ℓ=2, ν=2 ... passed
Testing ξ(r), ℓ=2, ν=3 ... passed
Testing ξ(r), ℓ=3, ν=-1 ... passed
Testing ξ(r), ℓ=3, ν=0 ... passed
Testing ξ(r), ℓ=3, ν=1 ... passed
Testing ξ(r), ℓ=3, ν=2 ... passed
Testing ξ(r), ℓ=3, ν=3 ... passed
Testing ξ(r), ℓ=4, ν=-1 ... passed
Testing ξ(r), ℓ=4, ν=0 ... passed
Testing ξ(r), ℓ=4, ν=1 ... passed
Testing ξ(r), ℓ=4, ν=2 ... passed
Testing ξ(r), ℓ=4, ν=3 ... passed
Testing ξ(r) ... passed
Testing ξ′(r) ... passed
Testing ξ″(r) ... passed
Calculating fmax: 
  dlrec    = 4
  dlrecRg1 = -4
  q=1.1, R=1.1:	  5.305778 seconds (843.21 k allocations: 53.908 MiB, 0.79% gc time)

  5.321453 seconds (855.88 k allocations: 54.698 MiB, 0.79% gc time)
ℓ = 1202
Δℓ = 4
ΔℓRg1 = -4
N = 1600
q = 1.1
kmin = 1.0e-5
kmax = 100000.00000000004
χ0 = 0.023029999999999995
RR = RR.tsv
ℓmax = ℓmax.bin
f21 = f21.bin
kmin = 1.0e-5
kmax = 100000.0
dlrec    = 4
dlrecRg1 = -4
Output size: 5741568 bytes = 0.005347251892089844 GiB
Output size: 51264 bytes = 4.774332046508789e-5 GiB
Reading 'out/F21EllCache'...   0.814014 seconds (395.09 k allocations: 23.195 MiB, 6.15% gc time)
ellmax: 1202
lmaxcache: 1202
fell[:,1,1] = ComplexF64[3.9583795592771634e-52 - 9.695233714158177e-68im, 3.990121772925759e-52 - 9.772979714843386e-68im]
ell 1202, elapsed: 3.2901763916015625e-5
ell 1201, elapsed: 1.5211448669433594
ell 1200, elapsed: 0.0005838871002197266
ell 1199, elapsed: 0.0005280971527099609
ell 1198, elapsed: 0.0005087852478027344
ell 1002, elapsed: 0.010648012161254883
ell 1001, elapsed: 0.0005600452423095703
ell 1000, elapsed: 0.0005729198455810547
ell 999, elapsed: 0.0005040168762207031
ell 998, elapsed: 0.0005049705505371094
ell 902, elapsed: 0.005508899688720703
ell 901, elapsed: 0.0005109310150146484
ell 900, elapsed: 0.0005137920379638672
ell 899, elapsed: 0.0005090236663818359
ell 898, elapsed: 0.0005018711090087891
ell 802, elapsed: 0.005602121353149414
ell 801, elapsed: 0.0005021095275878906
ell 800, elapsed: 0.0005090236663818359
ell 799, elapsed: 0.00061798095703125
ell 798, elapsed: 0.0005099773406982422
ell 702, elapsed: 0.005465030670166016
ell 701, elapsed: 0.0005137920379638672
ell 700, elapsed: 0.0005590915679931641
ell 699, elapsed: 0.0005519390106201172
ell 698, elapsed: 0.0005481243133544922
ell 602, elapsed: 0.005425214767456055
ell 601, elapsed: 0.0005538463592529297
ell 600, elapsed: 0.0005488395690917969
ell 599, elapsed: 0.0006020069122314453
ell 598, elapsed: 0.0005738735198974609
ell 502, elapsed: 0.005554914474487305
ell 501, elapsed: 0.0005919933319091797
ell 500, elapsed: 0.0005660057067871094
ell 499, elapsed: 0.0005648136138916016
ell 498, elapsed: 0.0005960464477539062
ell 402, elapsed: 0.005650043487548828
ell 401, elapsed: 0.0005979537963867188
ell 400, elapsed: 0.0005679130554199219
ell 399, elapsed: 0.0005679130554199219
ell 398, elapsed: 0.0005669593811035156
ell 302, elapsed: 0.005550861358642578
ell 301, elapsed: 0.0006170272827148438
ell 300, elapsed: 0.0006170272827148438
ell 299, elapsed: 0.0005660057067871094
ell 298, elapsed: 0.0006070137023925781
ell 202, elapsed: 0.005404949188232422
ell 201, elapsed: 0.0005848407745361328
ell 200, elapsed: 0.0005729198455810547
ell 199, elapsed: 0.0005939006805419922
ell 198, elapsed: 0.0005958080291748047
ell 152, elapsed: 0.0030019283294677734
ell 151, elapsed: 0.000637054443359375
ell 150, elapsed: 0.0006330013275146484
ell 149, elapsed: 0.0006000995635986328
ell 148, elapsed: 0.0006499290466308594
ell 127, elapsed: 0.0017011165618896484
ell 126, elapsed: 0.0006060600280761719
ell 125, elapsed: 0.0006401538848876953
ell 124, elapsed: 0.0006082057952880859
ell 123, elapsed: 0.0006010532379150391
ell 114, elapsed: 0.0010581016540527344
ell 113, elapsed: 0.0005910396575927734
ell 112, elapsed: 0.0005791187286376953
ell 111, elapsed: 0.000579833984375
ell 110, elapsed: 0.0005750656127929688
ell 102, elapsed: 0.0011069774627685547
ell 101, elapsed: 0.0006151199340820312
ell 100, elapsed: 0.0005819797515869141
ell 99, elapsed: 0.0005788803100585938
ell 98, elapsed: 0.0005779266357421875
ell 97, elapsed: 0.0006630420684814453
ell 96, elapsed: 0.0006840229034423828
ell 95, elapsed: 0.0006628036499023438
ell 94, elapsed: 0.0006449222564697266
ell 93, elapsed: 0.0006449222564697266
ell 92, elapsed: 0.0006399154663085938
ell 91, elapsed: 0.0006990432739257812
ell 90, elapsed: 0.0006871223449707031
ell 89, elapsed: 0.000701904296875
ell 88, elapsed: 0.0006849765777587891
ell 87, elapsed: 0.0007669925689697266
ell 86, elapsed: 0.0006990432739257812
ell 85, elapsed: 0.0006589889526367188
ell 84, elapsed: 0.0006520748138427734
ell 83, elapsed: 0.0006530284881591797
ell 82, elapsed: 0.0006999969482421875
ell 81, elapsed: 0.0006539821624755859
ell 80, elapsed: 0.0006539821624755859
ell 79, elapsed: 0.0006458759307861328
ell 78, elapsed: 0.0006890296936035156
ell 77, elapsed: 0.0006909370422363281
ell 76, elapsed: 0.0006489753723144531
ell 75, elapsed: 0.0006461143493652344
ell 74, elapsed: 0.0006449222564697266
ell 73, elapsed: 0.0006649494171142578
ell 72, elapsed: 0.0007121562957763672
ell 71, elapsed: 0.0006930828094482422
ell 70, elapsed: 0.0006549358367919922
ell 69, elapsed: 0.0006461143493652344
ell 68, elapsed: 0.0006837844848632812
ell 67, elapsed: 0.0006549358367919922
ell 66, elapsed: 0.0006439685821533203
ell 65, elapsed: 0.0006809234619140625
ell 64, elapsed: 0.0006921291351318359
ell 63, elapsed: 0.0006549358367919922
ell 62, elapsed: 0.0006470680236816406
ell 61, elapsed: 0.0006840229034423828
ell 60, elapsed: 0.0007309913635253906
ell 59, elapsed: 0.0008001327514648438
ell 58, elapsed: 0.0006558895111083984
ell 57, elapsed: 0.0006630420684814453
ell 56, elapsed: 0.0006392002105712891
ell 55, elapsed: 0.0006549358367919922
ell 54, elapsed: 0.0006868839263916016
ell 53, elapsed: 0.0006489753723144531
ell 52, elapsed: 0.0006558895111083984
ell 51, elapsed: 0.0006451606750488281
ell 50, elapsed: 0.0006771087646484375
ell 49, elapsed: 0.0006668567657470703
ell 48, elapsed: 0.0006489753723144531
ell 47, elapsed: 0.0006759166717529297
ell 46, elapsed: 0.0006840229034423828
ell 45, elapsed: 0.0007078647613525391
ell 44, elapsed: 0.0007381439208984375
ell 43, elapsed: 0.0006649494171142578
ell 42, elapsed: 0.0006530284881591797
ell 41, elapsed: 0.0006458759307861328
ell 40, elapsed: 0.0007250308990478516
ell 39, elapsed: 0.0006890296936035156
ell 38, elapsed: 0.0006470680236816406
ell 37, elapsed: 0.0006551742553710938
ell 36, elapsed: 0.0006780624389648438
ell 35, elapsed: 0.0006589889526367188
ell 34, elapsed: 0.0006539821624755859
ell 33, elapsed: 0.0006608963012695312
ell 32, elapsed: 0.0006809234619140625
ell 31, elapsed: 0.0006971359252929688
ell 30, elapsed: 0.0006949901580810547
ell 29, elapsed: 0.0007078647613525391
ell 28, elapsed: 0.0006840229034423828
ell 27, elapsed: 0.0006978511810302734
ell 26, elapsed: 0.0007450580596923828
ell 25, elapsed: 0.0006439685821533203
ell 24, elapsed: 0.0006411075592041016
ell 23, elapsed: 0.0006480216979980469
ell 22, elapsed: 0.0006549358367919922
ell 21, elapsed: 0.0006527900695800781
ell 20, elapsed: 0.0006551742553710938
ell 19, elapsed: 0.0006430149078369141
ell 18, elapsed: 0.0006539821624755859
ell 17, elapsed: 0.000659942626953125
ell 16, elapsed: 0.0006508827209472656
ell 15, elapsed: 0.0006539821624755859
ell 14, elapsed: 0.0006489753723144531
ell 13, elapsed: 0.0006730556488037109
ell 12, elapsed: 0.0007150173187255859
ell 11, elapsed: 0.0006568431854248047
ell 10, elapsed: 0.0006799697875976562
ell 9, elapsed: 0.0006780624389648438
ell 8, elapsed: 0.0007200241088867188
ell 7, elapsed: 0.0007319450378417969
ell 6, elapsed: 0.0007190704345703125
ell 5, elapsed: 0.0006728172302246094
ell 4, elapsed: 0.0007538795471191406
ell 3, elapsed: 0.0007190704345703125
ell 2, elapsed: 0.0007309913635253906
ell 1, elapsed: 0.0006978511810302734
ell 0, elapsed: 0.0006930828094482422
  2.289457 seconds (1.30 M allocations: 70.965 MiB, 2.02% gc time)
elapsed: 0.0015940666198730469
step:          0.393982 sec (311.142 k allocations: 16.962 MB, 0.0% gc time)
swapping:      0.000538 sec (0 allocations: 0 byte, 0.0% gc time)
calc_Mellell!: 0.175149 sec (135.742 k allocations: 7.433 MB, 0.0% gc time)
  t0 :  0.0 sec (0 allocations: 0 byte, 0.0% gc time)
  tm2 : 0.0 sec (0 allocations: 0 byte, 0.0% gc time)
  tm2s: 0.0 sec (0 allocations: 0 byte, 0.0% gc time)
  tm4 : 0.0 sec (0 allocations: 0 byte, 0.0% gc time)
  tp2 : 0.0 sec (0 allocations: 0 byte, 0.0% gc time)
  tp2s: 0.0 sec (0 allocations: 0 byte, 0.0% gc time)
  tp4 : 0.0 sec (0 allocations: 0 byte, 0.0% gc time)
calc_wtdll!:   1.086802 sec (509.616 k allocations: 28.196 MB, 2.08% gc time)
calc_wljj!:    0.003574 sec (6 allocations: 96 byte, 0.0% gc time)
mult_prefac!:  0.0 sec (0 allocations: 0 byte, 0.0% gc time)
convert:       0.0 sec (0 allocations: 0 byte, 0.0% gc time)
write:         0.004688 sec (0 allocations: 0 byte, 0.0% gc time)
test_rand_2f1: 0.0 sec (0 allocations: 0 byte, 0.0% gc time)
Closing outfile out/Ml21-cache.bin...   0.000008 seconds
  1.213562 seconds (246.23 k allocations: 14.207 MiB, 2.01% gc time)
make_phi():   0.012959 seconds (8.18 k allocations: 237.844 KiB)
  0.258155 seconds (87.57 k allocations: 4.748 MiB)
tskip:       2.4e-5 sec (0 allocations: 0 byte, 0.0% gc time)
tread:       0.002673 sec (17 allocations: 2.125 KB, 0.0% gc time)
tmultphi:    0.044435 sec (21.425 k allocations: 1.287 MB, 0.0% gc time)
tbrfft:      0.004278 sec (0 allocations: 0 byte, 0.0% gc time)
tmultprefac: 0.00426 sec (0 allocations: 0 byte, 0.0% gc time)
toutfunc:    0.161091 sec (64.483 k allocations: 3.329 MB, 0.0% gc time)
Testing R=1.1 ... passed
Calculating fmax: 
  dlrec    = 4
  dlrecRg1 = -4
  q=1.1, R=1.0:	  0.001427 seconds (3.20 k allocations: 275.344 KiB)

  0.001581 seconds (3.34 k allocations: 311.422 KiB)
ℓ = 1202
Δℓ = 4
ΔℓRg1 = -4
N = 1600
q = 1.1
kmin = 1.0e-5
kmax = 100000.00000000004
χ0 = 0.023029999999999995
RR = RR.tsv
ℓmax = ℓmax.bin
f21 = f21.bin
kmin = 1.0e-5
kmax = 100000.0
dlrec    = 4
dlrecRg1 = -4
Output size: 61465536 bytes = 0.05724424123764038 GiB
Output size: 51264 bytes = 4.774332046508789e-5 GiB
Reading 'out/F21EllCache'...   0.001413 seconds (197 allocations: 84.203 KiB)
ellmax: 1202
lmaxcache: 1202
fell[:,1,1] = ComplexF64[809.6031528389767 - 1.9829558194077161e-13im, 0.0 + 0.0im]
ell 1202, elapsed: 0.0001590251922607422
ell 1201, elapsed: 0.027253150939941406
ell 1200, elapsed: 0.018913984298706055
ell 1199, elapsed: 0.000782012939453125
ell 1198, elapsed: 0.0007579326629638672
ell 1197, elapsed: 0.0012068748474121094
ell 1196, elapsed: 0.0008158683776855469
ell 1195, elapsed: 0.0007781982421875
ell 1194, elapsed: 0.0007860660552978516
ell 1193, elapsed: 0.0008039474487304688
ell 1192, elapsed: 0.0008029937744140625
ell 1191, elapsed: 0.0011639595031738281
ell 1190, elapsed: 0.0008299350738525391
ell 1189, elapsed: 0.0007979869842529297
ell 1188, elapsed: 0.0008847713470458984
ell 1187, elapsed: 0.0011348724365234375
ell 1186, elapsed: 0.0008549690246582031
ell 1185, elapsed: 0.0009109973907470703
ell 1184, elapsed: 0.0008988380432128906
ell 1183, elapsed: 0.0008590221405029297
ell 1182, elapsed: 0.0005650520324707031
ell 1181, elapsed: 0.0006771087646484375
ell 1180, elapsed: 0.0010080337524414062
ell 1179, elapsed: 0.0009610652923583984
ell 1178, elapsed: 0.0008928775787353516
ell 1177, elapsed: 0.0005099773406982422
ell 1176, elapsed: 0.0005300045013427734
ell 1175, elapsed: 0.0005159378051757812
ell 1174, elapsed: 0.0004999637603759766
ell 1173, elapsed: 0.001188039779663086
ell 1172, elapsed: 0.0009639263153076172
ell 1171, elapsed: 0.0011188983917236328
ell 1170, elapsed: 0.000865936279296875
ell 1169, elapsed: 0.0008540153503417969
ell 1168, elapsed: 0.0009429454803466797
ell 1167, elapsed: 0.0009570121765136719
ell 1166, elapsed: 0.0009558200836181641
ell 1165, elapsed: 0.0009570121765136719
ell 1164, elapsed: 0.0009491443634033203
ell 1163, elapsed: 0.0009791851043701172
ell 1162, elapsed: 0.0009489059448242188
ell 1161, elapsed: 0.0009629726409912109
ell 1160, elapsed: 0.0009729862213134766
ell 1159, elapsed: 0.0009541511535644531
ell 1158, elapsed: 0.0009620189666748047
ell 1157, elapsed: 0.0009510517120361328
ell 1156, elapsed: 0.0009598731994628906
ell 1155, elapsed: 0.0009670257568359375
ell 1154, elapsed: 0.0009479522705078125
ell 1153, elapsed: 0.0009610652923583984
ell 1152, elapsed: 0.0009810924530029297
ell 1151, elapsed: 0.0007219314575195312
ell 1150, elapsed: 0.0006248950958251953
ell 1149, elapsed: 0.000637054443359375
ell 1148, elapsed: 0.0006420612335205078
ell 1147, elapsed: 0.0006401538848876953
ell 1146, elapsed: 0.0006480216979980469
ell 1145, elapsed: 0.0006442070007324219
ell 1144, elapsed: 0.0006539821624755859
ell 1143, elapsed: 0.0006439685821533203
ell 1142, elapsed: 0.0006420612335205078
ell 1141, elapsed: 0.0006439685821533203
ell 1140, elapsed: 0.0006630420684814453
ell 1139, elapsed: 0.0005211830139160156
ell 1138, elapsed: 0.00047206878662109375
ell 1137, elapsed: 0.00044798851013183594
ell 1136, elapsed: 0.00045990943908691406
ell 1135, elapsed: 0.00044989585876464844
ell 1134, elapsed: 0.00045800209045410156
ell 1133, elapsed: 0.0004601478576660156
ell 1132, elapsed: 0.00045108795166015625
ell 1131, elapsed: 0.00044989585876464844
ell 1130, elapsed: 0.00044798851013183594
ell 1129, elapsed: 0.00045013427734375
ell 1128, elapsed: 0.00044989585876464844
ell 1127, elapsed: 0.0004489421844482422
ell 1126, elapsed: 0.0004570484161376953
ell 1125, elapsed: 0.0004591941833496094
ell 1124, elapsed: 0.0004520416259765625
ell 1123, elapsed: 0.0004470348358154297
ell 1122, elapsed: 0.00044798851013183594
ell 1121, elapsed: 0.000453948974609375
ell 1120, elapsed: 0.0004630088806152344
ell 1119, elapsed: 0.0004520416259765625
ell 1118, elapsed: 0.0004448890686035156
ell 1117, elapsed: 0.00047588348388671875
ell 1116, elapsed: 0.0004520416259765625
ell 1115, elapsed: 0.0006189346313476562
ell 1114, elapsed: 0.0005741119384765625
ell 1113, elapsed: 0.0004699230194091797
ell 1112, elapsed: 0.0005559921264648438
ell 1111, elapsed: 0.0005321502685546875
ell 1110, elapsed: 0.0005249977111816406
ell 1109, elapsed: 0.0005130767822265625
ell 1108, elapsed: 0.00061798095703125
ell 1107, elapsed: 0.0005140304565429688
ell 1106, elapsed: 0.0005519390106201172
ell 1105, elapsed: 0.0005359649658203125
ell 1104, elapsed: 0.0005240440368652344
ell 1103, elapsed: 0.0005371570587158203
ell 1102, elapsed: 0.0005240440368652344
ell 1101, elapsed: 0.0005161762237548828
ell 1100, elapsed: 0.0005109310150146484
ell 1099, elapsed: 0.0004949569702148438
ell 1098, elapsed: 0.0005300045013427734
ell 1097, elapsed: 0.005734920501708984
ell 1096, elapsed: 0.0005419254302978516
ell 1095, elapsed: 0.0005338191986083984
ell 1094, elapsed: 0.0005340576171875
ell 1093, elapsed: 0.0006911754608154297
ell 1092, elapsed: 0.0005350112915039062
ell 1091, elapsed: 0.0005309581756591797
ell 1090, elapsed: 0.0005519390106201172
ell 1089, elapsed: 0.0005290508270263672
ell 1088, elapsed: 0.000514984130859375
ell 1087, elapsed: 0.0005009174346923828
ell 1086, elapsed: 0.0005471706390380859
ell 1085, elapsed: 0.0005118846893310547
ell 1084, elapsed: 0.0005128383636474609
ell 1083, elapsed: 0.0005078315734863281
ell 1082, elapsed: 0.0005521774291992188
ell 1081, elapsed: 0.0005018711090087891
ell 1080, elapsed: 0.00045013427734375
ell 1079, elapsed: 0.0004248619079589844
ell 1078, elapsed: 0.0004439353942871094
ell 1077, elapsed: 0.0004680156707763672
ell 1076, elapsed: 0.0005271434783935547
ell 1075, elapsed: 0.0005438327789306641
ell 1074, elapsed: 0.00047588348388671875
ell 1073, elapsed: 0.00044798851013183594
ell 1072, elapsed: 0.0004439353942871094
ell 1071, elapsed: 0.00044918060302734375
ell 1070, elapsed: 0.0004639625549316406
ell 1069, elapsed: 0.0004749298095703125
ell 1068, elapsed: 0.0005419254302978516
ell 1067, elapsed: 0.0004639625549316406
ell 1066, elapsed: 0.0004520416259765625
ell 1065, elapsed: 0.00045418739318847656
ell 1064, elapsed: 0.0004432201385498047
ell 1063, elapsed: 0.0004379749298095703
ell 1062, elapsed: 0.0004439353942871094
ell 1061, elapsed: 0.0004398822784423828
ell 1060, elapsed: 0.0006349086761474609
ell 1059, elapsed: 0.00061798095703125
ell 1058, elapsed: 0.0005321502685546875
ell 1057, elapsed: 0.0004420280456542969
ell 1056, elapsed: 0.0004241466522216797
ell 1055, elapsed: 0.00043892860412597656
ell 1054, elapsed: 0.0004138946533203125
ell 1053, elapsed: 0.0011110305786132812
ell 1052, elapsed: 0.0006167888641357422
ell 1051, elapsed: 0.0006849765777587891
ell 1050, elapsed: 0.0004990100860595703
ell 1049, elapsed: 0.00043010711669921875
ell 1048, elapsed: 0.0004360675811767578
ell 1047, elapsed: 0.0009860992431640625
ell 1046, elapsed: 0.0004420280456542969
ell 1045, elapsed: 0.0004489421844482422
ell 1044, elapsed: 0.0004410743713378906
ell 1043, elapsed: 0.00044798851013183594
ell 1042, elapsed: 0.0004329681396484375
ell 1041, elapsed: 0.00043487548828125
ell 1040, elapsed: 0.0009610652923583984
ell 1039, elapsed: 0.0004420280456542969
ell 1038, elapsed: 0.0004520416259765625
ell 1037, elapsed: 0.0004489421844482422
ell 1036, elapsed: 0.00043487548828125
ell 1035, elapsed: 0.00043892860412597656
ell 1034, elapsed: 0.0004298686981201172
ell 1033, elapsed: 0.00046706199645996094
ell 1032, elapsed: 0.00043010711669921875
ell 1031, elapsed: 0.0004451274871826172
ell 1030, elapsed: 0.0004429817199707031
ell 1029, elapsed: 0.0004470348358154297
ell 1028, elapsed: 0.0004470348358154297
ell 1027, elapsed: 0.00043892860412597656
ell 1026, elapsed: 0.00043702125549316406
ell 1025, elapsed: 0.0013549327850341797
ell 1024, elapsed: 0.0004329681396484375
ell 1023, elapsed: 0.00043201446533203125
ell 1022, elapsed: 0.00042891502380371094
ell 1021, elapsed: 0.00043010711669921875
ell 1020, elapsed: 0.00044417381286621094
ell 1019, elapsed: 0.00044417381286621094
ell 1018, elapsed: 0.0004940032958984375
ell 1017, elapsed: 0.0004220008850097656
ell 1016, elapsed: 0.00041985511779785156
ell 1015, elapsed: 0.0004248619079589844
ell 1014, elapsed: 0.0004200935363769531
ell 1013, elapsed: 0.0004260540008544922
ell 1012, elapsed: 0.0004241466522216797
ell 1011, elapsed: 0.0004210472106933594
ell 1010, elapsed: 0.0007441043853759766
ell 1009, elapsed: 0.0006780624389648438
ell 1008, elapsed: 0.0006818771362304688
ell 1007, elapsed: 0.0005018711090087891
ell 1006, elapsed: 0.00042891502380371094
ell 1005, elapsed: 0.0004341602325439453
ell 1004, elapsed: 0.0005269050598144531
ell 1003, elapsed: 0.0004420280456542969
ell 1002, elapsed: 0.00042891502380371094
ell 1001, elapsed: 0.0004229545593261719
ell 1000, elapsed: 0.00043582916259765625
ell 999, elapsed: 0.0004119873046875
ell 998, elapsed: 0.0004398822784423828
ell 997, elapsed: 0.00043702125549316406
ell 996, elapsed: 0.0005271434783935547
ell 995, elapsed: 0.0004317760467529297
ell 994, elapsed: 0.00043201446533203125
ell 993, elapsed: 0.0004448890686035156
ell 992, elapsed: 0.0004439353942871094
ell 991, elapsed: 0.0004448890686035156
ell 990, elapsed: 0.0004341602325439453
ell 989, elapsed: 0.00042891502380371094
ell 988, elapsed: 0.0005958080291748047
ell 987, elapsed: 0.00043892860412597656
ell 986, elapsed: 0.00043392181396484375
ell 985, elapsed: 0.0004360675811767578
ell 984, elapsed: 0.0004360675811767578
ell 983, elapsed: 0.00044989585876464844
ell 982, elapsed: 0.00043702125549316406
ell 981, elapsed: 0.0004401206970214844
ell 980, elapsed: 0.0005548000335693359
ell 979, elapsed: 0.0004379749298095703
ell 978, elapsed: 0.00044608116149902344
ell 977, elapsed: 0.00043392181396484375
ell 976, elapsed: 0.0004439353942871094
ell 975, elapsed: 0.000431060791015625
ell 974, elapsed: 0.0004391670227050781
ell 973, elapsed: 0.00044417381286621094
ell 972, elapsed: 0.0007889270782470703
ell 971, elapsed: 0.0006990432739257812
ell 970, elapsed: 0.0004940032958984375
ell 969, elapsed: 0.0004398822784423828
ell 968, elapsed: 0.0004360675811767578
ell 967, elapsed: 0.0004420280456542969
ell 966, elapsed: 0.0004470348358154297
ell 965, elapsed: 0.0007970333099365234
ell 964, elapsed: 0.0005619525909423828
ell 963, elapsed: 0.00043702125549316406
ell 962, elapsed: 0.0004360675811767578
ell 961, elapsed: 0.00043892860412597656
ell 960, elapsed: 0.0004439353942871094
ell 959, elapsed: 0.0004470348358154297
ell 958, elapsed: 0.0007290840148925781
ell 957, elapsed: 0.0004909038543701172
ell 956, elapsed: 0.00039696693420410156
ell 955, elapsed: 0.0004329681396484375
ell 954, elapsed: 0.00044989585876464844
ell 953, elapsed: 0.00043487548828125
ell 952, elapsed: 0.0004439353942871094
ell 951, elapsed: 0.0004360675811767578
ell 950, elapsed: 0.0009000301361083984
ell 949, elapsed: 0.0004439353942871094
ell 948, elapsed: 0.00044798851013183594
ell 947, elapsed: 0.00043702125549316406
ell 946, elapsed: 0.0004420280456542969
ell 945, elapsed: 0.00043320655822753906
ell 944, elapsed: 0.0004429817199707031
ell 943, elapsed: 0.0008261203765869141
ell 942, elapsed: 0.0006010532379150391
ell 941, elapsed: 0.0006821155548095703
ell 940, elapsed: 0.0005381107330322266
ell 939, elapsed: 0.0004470348358154297
ell 938, elapsed: 0.0004379749298095703
ell 937, elapsed: 0.0007860660552978516
ell 936, elapsed: 0.0005259513854980469
ell 935, elapsed: 0.0004429817199707031
ell 934, elapsed: 0.0004458427429199219
ell 933, elapsed: 0.0004398822784423828
ell 932, elapsed: 0.0004489421844482422
ell 931, elapsed: 0.00043892860412597656
ell 930, elapsed: 0.0006909370422363281
ell 929, elapsed: 0.0006010532379150391
ell 928, elapsed: 0.000431060791015625
ell 927, elapsed: 0.00043892860412597656
ell 926, elapsed: 0.00043010711669921875
ell 925, elapsed: 0.0004429817199707031
ell 924, elapsed: 0.00045299530029296875
ell 923, elapsed: 0.0004448890686035156
ell 922, elapsed: 0.0006780624389648438
ell 921, elapsed: 0.0004429817199707031
ell 920, elapsed: 0.0004379749298095703
ell 919, elapsed: 0.0004451274871826172
ell 918, elapsed: 0.00044083595275878906
ell 917, elapsed: 0.0004420280456542969
ell 916, elapsed: 0.00043511390686035156
ell 915, elapsed: 0.0008640289306640625
ell 914, elapsed: 0.0004210472106933594
ell 913, elapsed: 0.00043201446533203125
ell 912, elapsed: 0.0004432201385498047
ell 911, elapsed: 0.0004458427429199219
ell 910, elapsed: 0.00044608116149902344
ell 909, elapsed: 0.00044798851013183594
ell 908, elapsed: 0.0007989406585693359
ell 907, elapsed: 0.0004961490631103516
ell 906, elapsed: 0.00043702125549316406
ell 905, elapsed: 0.0004420280456542969
ell 904, elapsed: 0.000431060791015625
ell 903, elapsed: 0.00043511390686035156
ell 902, elapsed: 0.00043892860412597656
ell 901, elapsed: 0.00047898292541503906
ell 900, elapsed: 0.0008008480072021484
ell 899, elapsed: 0.0006048679351806641
ell 898, elapsed: 0.000514984130859375
ell 897, elapsed: 0.0004391670227050781
ell 896, elapsed: 0.0004429817199707031
ell 895, elapsed: 0.00042819976806640625
ell 894, elapsed: 0.0006170272827148438
ell 893, elapsed: 0.0006530284881591797
ell 892, elapsed: 0.0005791187286376953
ell 891, elapsed: 0.0006740093231201172
ell 890, elapsed: 0.0005629062652587891
ell 889, elapsed: 0.00043702125549316406
ell 888, elapsed: 0.0004799365997314453
ell 887, elapsed: 0.0007989406585693359
ell 886, elapsed: 0.00045609474182128906
ell 885, elapsed: 0.00044083595275878906
ell 884, elapsed: 0.00043511390686035156
ell 883, elapsed: 0.00043010711669921875
ell 882, elapsed: 0.0004429817199707031
ell 881, elapsed: 0.00043392181396484375
ell 880, elapsed: 0.0007600784301757812
ell 879, elapsed: 0.0005261898040771484
ell 878, elapsed: 0.0004451274871826172
ell 877, elapsed: 0.000431060791015625
ell 876, elapsed: 0.00043392181396484375
ell 875, elapsed: 0.00043487548828125
ell 874, elapsed: 0.00043201446533203125
ell 873, elapsed: 0.0005898475646972656
ell 872, elapsed: 0.0006880760192871094
ell 871, elapsed: 0.0004439353942871094
ell 870, elapsed: 0.00044608116149902344
ell 869, elapsed: 0.0004429817199707031
ell 868, elapsed: 0.0004448890686035156
ell 867, elapsed: 0.0004360675811767578
ell 866, elapsed: 0.00047588348388671875
ell 865, elapsed: 0.000759124755859375
ell 864, elapsed: 0.00043201446533203125
ell 863, elapsed: 0.0004379749298095703
ell 862, elapsed: 0.00043511390686035156
ell 861, elapsed: 0.00044417381286621094
ell 860, elapsed: 0.0004520416259765625
ell 859, elapsed: 0.0004410743713378906
ell 858, elapsed: 0.0007131099700927734
ell 857, elapsed: 0.0006611347198486328
ell 856, elapsed: 0.000682830810546875
ell 855, elapsed: 0.0005300045013427734
ell 854, elapsed: 0.00042891502380371094
ell 853, elapsed: 0.0004420280456542969
ell 852, elapsed: 0.0005769729614257812
ell 851, elapsed: 0.0006859302520751953
ell 850, elapsed: 0.0005929470062255859
ell 849, elapsed: 0.0005831718444824219
ell 848, elapsed: 0.0004420280456542969
ell 847, elapsed: 0.00043702125549316406
ell 846, elapsed: 0.0004410743713378906
ell 845, elapsed: 0.0007541179656982422
ell 844, elapsed: 0.0005688667297363281
ell 843, elapsed: 0.0006890296936035156
ell 842, elapsed: 0.0006930828094482422
ell 841, elapsed: 0.0007050037384033203
ell 840, elapsed: 0.0010378360748291016
ell 839, elapsed: 0.00043487548828125
ell 838, elapsed: 0.00044798851013183594
ell 837, elapsed: 0.00043702125549316406
ell 836, elapsed: 0.0004439353942871094
ell 835, elapsed: 0.0004420280456542969
ell 834, elapsed: 0.0004448890686035156
ell 833, elapsed: 0.0006849765777587891
ell 832, elapsed: 0.0005497932434082031
ell 831, elapsed: 0.00044798851013183594
ell 830, elapsed: 0.00044083595275878906
ell 829, elapsed: 0.0004360675811767578
ell 828, elapsed: 0.0004410743713378906
ell 827, elapsed: 0.00043392181396484375
ell 826, elapsed: 0.0005428791046142578
ell 825, elapsed: 0.0006630420684814453
ell 824, elapsed: 0.00042700767517089844
ell 823, elapsed: 0.0004601478576660156
ell 822, elapsed: 0.0004520416259765625
ell 821, elapsed: 0.0004470348358154297
ell 820, elapsed: 0.00044608116149902344
ell 819, elapsed: 0.0004420280456542969
ell 818, elapsed: 0.0007951259613037109
ell 817, elapsed: 0.000598907470703125
ell 816, elapsed: 0.0005238056182861328
ell 815, elapsed: 0.0004420280456542969
ell 814, elapsed: 0.00044989585876464844
ell 813, elapsed: 0.0004248619079589844
ell 812, elapsed: 0.0005538463592529297
ell 811, elapsed: 0.0006940364837646484
ell 810, elapsed: 0.0005891323089599609
ell 809, elapsed: 0.0005679130554199219
ell 808, elapsed: 0.00044798851013183594
ell 807, elapsed: 0.0004458427429199219
ell 806, elapsed: 0.00044608116149902344
ell 805, elapsed: 0.000598907470703125
ell 804, elapsed: 0.0005438327789306641
ell 803, elapsed: 0.000431060791015625
ell 802, elapsed: 0.00042700767517089844
ell 801, elapsed: 0.0004239082336425781
ell 800, elapsed: 0.00043702125549316406
ell 799, elapsed: 0.0003991127014160156
ell 798, elapsed: 0.0004379749298095703
ell 797, elapsed: 0.0006821155548095703
ell 796, elapsed: 0.0006310939788818359
ell 795, elapsed: 0.0004489421844482422
ell 794, elapsed: 0.0004229545593261719
ell 793, elapsed: 0.00045108795166015625
ell 792, elapsed: 0.00044417381286621094
ell 791, elapsed: 0.0006592273712158203
ell 790, elapsed: 0.00042700767517089844
ell 789, elapsed: 0.0004279613494873047
ell 788, elapsed: 0.00041794776916503906
ell 787, elapsed: 0.0004241466522216797
ell 786, elapsed: 0.00041794776916503906
ell 785, elapsed: 0.0004210472106933594
ell 784, elapsed: 0.0006189346313476562
ell 783, elapsed: 0.0006730556488037109
ell 782, elapsed: 0.0004420280456542969
ell 781, elapsed: 0.00043702125549316406
ell 780, elapsed: 0.00043511390686035156
ell 779, elapsed: 0.0004410743713378906
ell 778, elapsed: 0.0004420280456542969
ell 777, elapsed: 0.0003769397735595703
ell 776, elapsed: 0.0003669261932373047
ell 775, elapsed: 0.0006389617919921875
ell 774, elapsed: 0.0006501674652099609
ell 773, elapsed: 0.0007488727569580078
ell 772, elapsed: 0.0005919933319091797
ell 771, elapsed: 0.0004398822784423828
ell 770, elapsed: 0.0004429817199707031
ell 769, elapsed: 0.0006279945373535156
ell 768, elapsed: 0.0004551410675048828
ell 767, elapsed: 0.00043082237243652344
ell 766, elapsed: 0.0004189014434814453
ell 765, elapsed: 0.00041103363037109375
ell 764, elapsed: 0.00042891502380371094
ell 763, elapsed: 0.00037097930908203125
ell 762, elapsed: 0.00046181678771972656
ell 761, elapsed: 0.0006349086761474609
ell 760, elapsed: 0.0006809234619140625
ell 759, elapsed: 0.0007150173187255859
ell 758, elapsed: 0.0007109642028808594
ell 757, elapsed: 0.0007140636444091797
ell 756, elapsed: 0.0009250640869140625
ell 755, elapsed: 0.0007159709930419922
ell 754, elapsed: 0.0005819797515869141
ell 753, elapsed: 0.0004010200500488281
ell 752, elapsed: 0.00045013427734375
ell 751, elapsed: 0.00043892860412597656
ell 750, elapsed: 0.00045299530029296875
ell 749, elapsed: 0.0009300708770751953
ell 748, elapsed: 0.0003981590270996094
ell 747, elapsed: 0.00043892860412597656
ell 746, elapsed: 0.0004420280456542969
ell 745, elapsed: 0.00044798851013183594
ell 744, elapsed: 0.0004200935363769531
ell 743, elapsed: 0.0004429817199707031
ell 742, elapsed: 0.0006520748138427734
ell 741, elapsed: 0.0004239082336425781
ell 740, elapsed: 0.00042700767517089844
ell 739, elapsed: 0.0004220008850097656
ell 738, elapsed: 0.0004220008850097656
ell 737, elapsed: 0.00042700767517089844
ell 736, elapsed: 0.0004210472106933594
ell 735, elapsed: 0.0004279613494873047
ell 734, elapsed: 0.0007569789886474609
ell 733, elapsed: 0.0004911422729492188
ell 732, elapsed: 0.00043201446533203125
ell 731, elapsed: 0.0004429817199707031
ell 730, elapsed: 0.0004360675811767578
ell 729, elapsed: 0.0004420280456542969
ell 728, elapsed: 0.0004439353942871094
ell 727, elapsed: 0.00044989585876464844
ell 726, elapsed: 0.0006411075592041016
ell 725, elapsed: 0.0004401206970214844
ell 724, elapsed: 0.0004439353942871094
ell 723, elapsed: 0.00045299530029296875
ell 722, elapsed: 0.00044798851013183594
ell 721, elapsed: 0.0004439353942871094
ell 720, elapsed: 0.0004448890686035156
ell 719, elapsed: 0.0006029605865478516
ell 718, elapsed: 0.00048804283142089844
ell 717, elapsed: 0.00043511390686035156
ell 716, elapsed: 0.00043487548828125
ell 715, elapsed: 0.00044918060302734375
ell 714, elapsed: 0.0004379749298095703
ell 713, elapsed: 0.00044608116149902344
ell 712, elapsed: 0.00043702125549316406
ell 711, elapsed: 0.0006480216979980469
ell 710, elapsed: 0.00044083595275878906
ell 709, elapsed: 0.0004391670227050781
ell 708, elapsed: 0.0004189014434814453
ell 707, elapsed: 0.0004279613494873047
ell 706, elapsed: 0.00043702125549316406
ell 705, elapsed: 0.0004420280456542969
ell 704, elapsed: 0.00043892860412597656
ell 703, elapsed: 0.0007121562957763672
ell 702, elapsed: 0.0006098747253417969
ell 701, elapsed: 0.0006759166717529297
ell 700, elapsed: 0.0006759166717529297
ell 699, elapsed: 0.0006768703460693359
ell 698, elapsed: 0.0006499290466308594
ell 697, elapsed: 0.0004909038543701172
ell 696, elapsed: 0.00044798851013183594
ell 695, elapsed: 0.0004439353942871094
ell 694, elapsed: 0.000453948974609375
ell 693, elapsed: 0.00045108795166015625
ell 692, elapsed: 0.00045418739318847656
ell 691, elapsed: 0.000453948974609375
ell 690, elapsed: 0.0005660057067871094
ell 689, elapsed: 0.0005931854248046875
ell 688, elapsed: 0.0007169246673583984
ell 687, elapsed: 0.0005710124969482422
ell 686, elapsed: 0.00045990943908691406
ell 685, elapsed: 0.00045299530029296875
ell 684, elapsed: 0.00045013427734375
ell 683, elapsed: 0.0005068778991699219
ell 682, elapsed: 0.00044608116149902344
ell 681, elapsed: 0.0006041526794433594
ell 680, elapsed: 0.0006029605865478516
ell 679, elapsed: 0.0004470348358154297
ell 678, elapsed: 0.0004611015319824219
ell 677, elapsed: 0.000453948974609375
ell 676, elapsed: 0.0006198883056640625
ell 675, elapsed: 0.0004417896270751953
ell 674, elapsed: 0.0005769729614257812
ell 673, elapsed: 0.0007011890411376953
ell 672, elapsed: 0.0006921291351318359
ell 671, elapsed: 0.0006000995635986328
ell 670, elapsed: 0.000431060791015625
ell 669, elapsed: 0.00042891502380371094
ell 668, elapsed: 0.0004210472106933594
ell 667, elapsed: 0.0004239082336425781
ell 666, elapsed: 0.000431060791015625
ell 665, elapsed: 0.00042510032653808594
ell 664, elapsed: 0.0004260540008544922
ell 663, elapsed: 0.0004239082336425781
ell 662, elapsed: 0.0007112026214599609
ell 661, elapsed: 0.0003819465637207031
ell 660, elapsed: 0.0004208087921142578
ell 659, elapsed: 0.0004360675811767578
ell 658, elapsed: 0.0003809928894042969
ell 657, elapsed: 0.00043201446533203125
ell 656, elapsed: 0.00045299530029296875
ell 655, elapsed: 0.0004558563232421875
ell 654, elapsed: 0.0005309581756591797
ell 653, elapsed: 0.0006489753723144531
ell 652, elapsed: 0.0006740093231201172
ell 651, elapsed: 0.0005540847778320312
ell 650, elapsed: 0.0004329681396484375
ell 649, elapsed: 0.0004260540008544922
ell 648, elapsed: 0.00049591064453125
ell 647, elapsed: 0.0004889965057373047
ell 646, elapsed: 0.0004420280456542969
ell 645, elapsed: 0.0004489421844482422
ell 644, elapsed: 0.0004429817199707031
ell 643, elapsed: 0.0004341602325439453
ell 642, elapsed: 0.0004379749298095703
ell 641, elapsed: 0.0004451274871826172
ell 640, elapsed: 0.0005819797515869141
ell 639, elapsed: 0.00041794776916503906
ell 638, elapsed: 0.0003688335418701172
ell 637, elapsed: 0.0004107952117919922
ell 636, elapsed: 0.0004341602325439453
ell 635, elapsed: 0.0004208087921142578
ell 634, elapsed: 0.000453948974609375
ell 633, elapsed: 0.0004429817199707031
ell 632, elapsed: 0.0008411407470703125
ell 631, elapsed: 0.000392913818359375
ell 630, elapsed: 0.00039696693420410156
ell 629, elapsed: 0.0004329681396484375
ell 628, elapsed: 0.00044798851013183594
ell 627, elapsed: 0.00045299530029296875
ell 626, elapsed: 0.0004570484161376953
ell 625, elapsed: 0.00044798851013183594
ell 624, elapsed: 0.001007080078125
ell 623, elapsed: 0.0005140304565429688
ell 622, elapsed: 0.00045490264892578125
ell 621, elapsed: 0.0004429817199707031
ell 620, elapsed: 0.000453948974609375
ell 619, elapsed: 0.0004570484161376953
ell 618, elapsed: 0.0005519390106201172
ell 617, elapsed: 0.0004899501800537109
ell 616, elapsed: 0.00044798851013183594
ell 615, elapsed: 0.0004379749298095703
ell 614, elapsed: 0.0004298686981201172
ell 613, elapsed: 0.00043392181396484375
ell 612, elapsed: 0.0005109310150146484
ell 611, elapsed: 0.0004658699035644531
ell 610, elapsed: 0.0005400180816650391
ell 609, elapsed: 0.00043010711669921875
ell 608, elapsed: 0.0004210472106933594
ell 607, elapsed: 0.0004279613494873047
ell 606, elapsed: 0.0004200935363769531
ell 605, elapsed: 0.0004258155822753906
ell 604, elapsed: 0.00042510032653808594
ell 603, elapsed: 0.0004239082336425781
ell 602, elapsed: 0.0005321502685546875
ell 601, elapsed: 0.0004918575286865234
ell 600, elapsed: 0.00042510032653808594
ell 599, elapsed: 0.00042700767517089844
ell 598, elapsed: 0.00043201446533203125
ell 597, elapsed: 0.0004291534423828125
ell 596, elapsed: 0.0004210472106933594
ell 595, elapsed: 0.0004260540008544922
ell 594, elapsed: 0.0004248619079589844
ell 593, elapsed: 0.0005319118499755859
ell 592, elapsed: 0.0006558895111083984
ell 591, elapsed: 0.0004889965057373047
ell 590, elapsed: 0.0004329681396484375
ell 589, elapsed: 0.0004260540008544922
ell 588, elapsed: 0.0004210472106933594
ell 587, elapsed: 0.0004298686981201172
ell 586, elapsed: 0.0004749298095703125
ell 585, elapsed: 0.00042819976806640625
ell 584, elapsed: 0.0004210472106933594
ell 583, elapsed: 0.0004191398620605469
ell 582, elapsed: 0.0004248619079589844
ell 581, elapsed: 0.0004210472106933594
ell 580, elapsed: 0.00042891502380371094
ell 579, elapsed: 0.0004210472106933594
ell 578, elapsed: 0.0004241466522216797
ell 577, elapsed: 0.0007688999176025391
ell 576, elapsed: 0.0005199909210205078
ell 575, elapsed: 0.0004680156707763672
ell 574, elapsed: 0.0004420280456542969
ell 573, elapsed: 0.0004229545593261719
ell 572, elapsed: 0.00042510032653808594
ell 571, elapsed: 0.0004229545593261719
ell 570, elapsed: 0.0005271434783935547
ell 569, elapsed: 0.0004258155822753906
ell 568, elapsed: 0.0004248619079589844
ell 567, elapsed: 0.0004210472106933594
ell 566, elapsed: 0.0004210472106933594
ell 565, elapsed: 0.00043487548828125
ell 564, elapsed: 0.00042319297790527344
ell 563, elapsed: 0.00042700767517089844
ell 562, elapsed: 0.0005190372467041016
ell 561, elapsed: 0.0005319118499755859
ell 560, elapsed: 0.0005300045013427734
ell 559, elapsed: 0.0005190372467041016
ell 558, elapsed: 0.0005409717559814453
ell 557, elapsed: 0.0005249977111816406
ell 556, elapsed: 0.0005230903625488281
ell 555, elapsed: 0.0006248950958251953
ell 554, elapsed: 0.0005290508270263672
ell 553, elapsed: 0.0005300045013427734
ell 552, elapsed: 0.0005228519439697266
ell 551, elapsed: 0.00045299530029296875
ell 550, elapsed: 0.00042700767517089844
ell 549, elapsed: 0.00042510032653808594
ell 548, elapsed: 0.00042891502380371094
ell 547, elapsed: 0.0005052089691162109
ell 546, elapsed: 0.00042819976806640625
ell 545, elapsed: 0.0004239082336425781
ell 544, elapsed: 0.0004208087921142578
ell 543, elapsed: 0.00042700767517089844
ell 542, elapsed: 0.0004241466522216797
ell 541, elapsed: 0.0004260540008544922
ell 540, elapsed: 0.0004229545593261719
ell 539, elapsed: 0.0005459785461425781
ell 538, elapsed: 0.0005290508270263672
ell 537, elapsed: 0.0005319118499755859
ell 536, elapsed: 0.0005249977111816406
ell 535, elapsed: 0.0005240440368652344
ell 534, elapsed: 0.0005271434783935547
ell 533, elapsed: 0.0005278587341308594
ell 532, elapsed: 0.0005941390991210938
ell 531, elapsed: 0.0005321502685546875
ell 530, elapsed: 0.0005319118499755859
ell 529, elapsed: 0.0005290508270263672
ell 528, elapsed: 0.0004298686981201172
ell 527, elapsed: 0.0004241466522216797
ell 526, elapsed: 0.0004260540008544922
ell 525, elapsed: 0.0004239082336425781
ell 524, elapsed: 0.0005421638488769531
ell 523, elapsed: 0.0005350112915039062
ell 522, elapsed: 0.0005230903625488281
ell 521, elapsed: 0.0004611015319824219
ell 520, elapsed: 0.0004229545593261719
ell 519, elapsed: 0.000431060791015625
ell 518, elapsed: 0.0004229545593261719
ell 517, elapsed: 0.0005159378051757812
ell 516, elapsed: 0.00042891502380371094
ell 515, elapsed: 0.00043010711669921875
ell 514, elapsed: 0.00043201446533203125
ell 513, elapsed: 0.0004241466522216797
ell 512, elapsed: 0.0004260540008544922
ell 511, elapsed: 0.0004298686981201172
ell 510, elapsed: 0.0004291534423828125
ell 509, elapsed: 0.0005450248718261719
ell 508, elapsed: 0.0007238388061523438
ell 507, elapsed: 0.0005350112915039062
ell 506, elapsed: 0.000537872314453125
ell 505, elapsed: 0.0005218982696533203
ell 504, elapsed: 0.0005340576171875
ell 503, elapsed: 0.0005249977111816406
ell 502, elapsed: 0.0006201267242431641
ell 501, elapsed: 0.0005300045013427734
ell 500, elapsed: 0.0005199909210205078
ell 499, elapsed: 0.0005671977996826172
ell 498, elapsed: 0.000782012939453125
ell 497, elapsed: 0.0008859634399414062
ell 496, elapsed: 0.0007991790771484375
ell 495, elapsed: 0.0007798671722412109
ell 494, elapsed: 0.0007929801940917969
ell 493, elapsed: 0.000782012939453125
ell 492, elapsed: 0.0008890628814697266
ell 491, elapsed: 0.0007967948913574219
ell 490, elapsed: 0.0007870197296142578
ell 489, elapsed: 0.0008020401000976562
ell 488, elapsed: 0.0009169578552246094
ell 487, elapsed: 0.0007860660552978516
ell 486, elapsed: 0.0008080005645751953
ell 485, elapsed: 0.0008018016815185547
ell 484, elapsed: 0.0009171962738037109
ell 483, elapsed: 0.0007839202880859375
ell 482, elapsed: 0.0007901191711425781
ell 481, elapsed: 0.0007841587066650391
ell 480, elapsed: 0.0007960796356201172
ell 479, elapsed: 0.0007979869842529297
ell 478, elapsed: 0.0007920265197753906
ell 477, elapsed: 0.0007948875427246094
ell 476, elapsed: 0.0007898807525634766
ell 475, elapsed: 0.0005919933319091797
ell 474, elapsed: 0.00042891502380371094
ell 473, elapsed: 0.0004200935363769531
ell 472, elapsed: 0.0004220008850097656
ell 471, elapsed: 0.0004220008850097656
ell 470, elapsed: 0.0004220008850097656
ell 469, elapsed: 0.0004248619079589844
ell 468, elapsed: 0.0004200935363769531
ell 467, elapsed: 0.0005390644073486328
ell 466, elapsed: 0.0005249977111816406
ell 465, elapsed: 0.0005228519439697266
ell 464, elapsed: 0.0005280971527099609
ell 463, elapsed: 0.0005209445953369141
ell 462, elapsed: 0.0005290508270263672
ell 461, elapsed: 0.0005269050598144531
ell 460, elapsed: 0.0005030632019042969
ell 459, elapsed: 0.0004260540008544922
ell 458, elapsed: 0.0004200935363769531
ell 457, elapsed: 0.0004279613494873047
ell 456, elapsed: 0.0004220008850097656
ell 455, elapsed: 0.0004258155822753906
ell 454, elapsed: 0.0004191398620605469
ell 453, elapsed: 0.0004220008850097656
ell 452, elapsed: 0.0004239082336425781
ell 451, elapsed: 0.00045299530029296875
ell 450, elapsed: 0.0004260540008544922
ell 449, elapsed: 0.0004210472106933594
ell 448, elapsed: 0.0004200935363769531
ell 447, elapsed: 0.0004248619079589844
ell 446, elapsed: 0.0004210472106933594
ell 445, elapsed: 0.0004248619079589844
ell 444, elapsed: 0.0004220008850097656
ell 443, elapsed: 0.0004420280456542969
ell 442, elapsed: 0.00042700767517089844
ell 441, elapsed: 0.0004220008850097656
ell 440, elapsed: 0.0004229545593261719
ell 439, elapsed: 0.00041985511779785156
ell 438, elapsed: 0.0004208087921142578
ell 437, elapsed: 0.00042700767517089844
ell 436, elapsed: 0.00041985511779785156
ell 435, elapsed: 0.0004241466522216797
ell 434, elapsed: 0.0004520416259765625
ell 433, elapsed: 0.0004279613494873047
ell 432, elapsed: 0.0004239082336425781
ell 431, elapsed: 0.0004191398620605469
ell 430, elapsed: 0.0004291534423828125
ell 429, elapsed: 0.0004220008850097656
ell 428, elapsed: 0.00042700767517089844
ell 427, elapsed: 0.0004229545593261719
ell 426, elapsed: 0.00045490264892578125
ell 425, elapsed: 0.000431060791015625
ell 424, elapsed: 0.0004239082336425781
ell 423, elapsed: 0.0004229545593261719
ell 422, elapsed: 0.00042510032653808594
ell 421, elapsed: 0.0004229545593261719
ell 420, elapsed: 0.00044083595275878906
ell 419, elapsed: 0.0004220008850097656
ell 418, elapsed: 0.00042700767517089844
ell 417, elapsed: 0.0004470348358154297
ell 416, elapsed: 0.0004191398620605469
ell 415, elapsed: 0.00043010711669921875
ell 414, elapsed: 0.0004241466522216797
ell 413, elapsed: 0.00042891502380371094
ell 412, elapsed: 0.0004200935363769531
ell 411, elapsed: 0.0004298686981201172
ell 410, elapsed: 0.0004279613494873047
ell 409, elapsed: 0.0005350112915039062
ell 408, elapsed: 0.0008139610290527344
ell 407, elapsed: 0.0006959438323974609
ell 406, elapsed: 0.0007050037384033203
ell 405, elapsed: 0.0007059574127197266
ell 404, elapsed: 0.0006849765777587891
ell 403, elapsed: 0.0007061958312988281
ell 402, elapsed: 0.0007030963897705078
ell 401, elapsed: 0.000720977783203125
ell 400, elapsed: 0.0007390975952148438
ell 399, elapsed: 0.0007150173187255859
ell 398, elapsed: 0.0007071495056152344
ell 397, elapsed: 0.0006561279296875
ell 396, elapsed: 0.0007040500640869141
ell 395, elapsed: 0.0007040500640869141
ell 394, elapsed: 0.0006959438323974609
ell 393, elapsed: 0.0007059574127197266
ell 392, elapsed: 0.0006890296936035156
ell 391, elapsed: 0.0007100105285644531
ell 390, elapsed: 0.0006978511810302734
ell 389, elapsed: 0.0006830692291259766
ell 388, elapsed: 0.0006978511810302734
ell 387, elapsed: 0.0006539821624755859
ell 386, elapsed: 0.0006661415100097656
ell 385, elapsed: 0.0006477832794189453
ell 384, elapsed: 0.0006530284881591797
ell 383, elapsed: 0.0007059574127197266
ell 382, elapsed: 0.00074005126953125
ell 381, elapsed: 0.0006999969482421875
ell 380, elapsed: 0.0006878376007080078
ell 379, elapsed: 0.0007081031799316406
ell 378, elapsed: 0.0007967948913574219
ell 377, elapsed: 0.0007650852203369141
ell 376, elapsed: 0.0009250640869140625
ell 375, elapsed: 0.0007479190826416016
ell 374, elapsed: 0.0006890296936035156
ell 373, elapsed: 0.0006999969482421875
ell 372, elapsed: 0.000698089599609375
ell 371, elapsed: 0.0006849765777587891
ell 370, elapsed: 0.0006961822509765625
ell 369, elapsed: 0.0006840229034423828
ell 368, elapsed: 0.0006930828094482422
ell 367, elapsed: 0.0006890296936035156
ell 366, elapsed: 0.0007059574127197266
ell 365, elapsed: 0.0006909370422363281
ell 364, elapsed: 0.000659942626953125
ell 363, elapsed: 0.0004639625549316406
ell 362, elapsed: 0.0004200935363769531
ell 361, elapsed: 0.0004260540008544922
ell 360, elapsed: 0.0004210472106933594
ell 359, elapsed: 0.0004239082336425781
ell 358, elapsed: 0.0004189014434814453
ell 357, elapsed: 0.0004432201385498047
ell 356, elapsed: 0.0005390644073486328
ell 355, elapsed: 0.0005221366882324219
ell 354, elapsed: 0.0005218982696533203
ell 353, elapsed: 0.0004429817199707031
ell 352, elapsed: 0.0004169940948486328
ell 351, elapsed: 0.00043511390686035156
ell 350, elapsed: 0.000720977783203125
ell 349, elapsed: 0.0005478858947753906
ell 348, elapsed: 0.0004658699035644531
ell 347, elapsed: 0.0004260540008544922
ell 346, elapsed: 0.0004260540008544922
ell 345, elapsed: 0.0004200935363769531
ell 344, elapsed: 0.00041985511779785156
ell 343, elapsed: 0.0004229545593261719
ell 342, elapsed: 0.0004241466522216797
ell 341, elapsed: 0.0005559921264648438
ell 340, elapsed: 0.0005238056182861328
ell 339, elapsed: 0.0005300045013427734
ell 338, elapsed: 0.0005209445953369141
ell 337, elapsed: 0.0006499290466308594
ell 336, elapsed: 0.0005450248718261719
ell 335, elapsed: 0.0005571842193603516
ell 334, elapsed: 0.0006091594696044922
ell 333, elapsed: 0.0005631446838378906
ell 332, elapsed: 0.0006151199340820312
ell 331, elapsed: 0.0006208419799804688
ell 330, elapsed: 0.0006151199340820312
ell 329, elapsed: 0.0006461143493652344
ell 328, elapsed: 0.0006101131439208984
ell 327, elapsed: 0.0006210803985595703
ell 326, elapsed: 0.00061798095703125
ell 325, elapsed: 0.0006170272827148438
ell 324, elapsed: 0.0006268024444580078
ell 323, elapsed: 0.0006301403045654297
ell 322, elapsed: 0.000614166259765625
ell 321, elapsed: 0.0006139278411865234
ell 320, elapsed: 0.0006258487701416016
ell 319, elapsed: 0.0006301403045654297
ell 318, elapsed: 0.0006330013275146484
ell 317, elapsed: 0.0006189346313476562
ell 316, elapsed: 0.0006160736083984375
ell 315, elapsed: 0.0006220340728759766
ell 314, elapsed: 0.0006220340728759766
ell 313, elapsed: 0.0006108283996582031
ell 312, elapsed: 0.0006730556488037109
ell 311, elapsed: 0.0006070137023925781
ell 310, elapsed: 0.0006101131439208984
ell 309, elapsed: 0.0005929470062255859
ell 308, elapsed: 0.00061798095703125
ell 307, elapsed: 0.0004630088806152344
ell 306, elapsed: 0.00037097930908203125
ell 305, elapsed: 0.0005538463592529297
ell 304, elapsed: 0.0005481243133544922
ell 303, elapsed: 0.0005431175231933594
ell 302, elapsed: 0.0005500316619873047
ell 301, elapsed: 0.0005559921264648438
ell 300, elapsed: 0.0005500316619873047
ell 299, elapsed: 0.0006489753723144531
ell 298, elapsed: 0.0005540847778320312
ell 297, elapsed: 0.0005471706390380859
ell 296, elapsed: 0.0005559921264648438
ell 295, elapsed: 0.0006220340728759766
ell 294, elapsed: 0.0006110668182373047
ell 293, elapsed: 0.0007340908050537109
ell 292, elapsed: 0.0006959438323974609
ell 291, elapsed: 0.0006930828094482422
ell 290, elapsed: 0.0009310245513916016
ell 289, elapsed: 0.0006101131439208984
ell 288, elapsed: 0.0007500648498535156
ell 287, elapsed: 0.0006160736083984375
ell 286, elapsed: 0.0006158351898193359
ell 285, elapsed: 0.0006279945373535156
ell 284, elapsed: 0.0006110668182373047
ell 283, elapsed: 0.0007510185241699219
ell 282, elapsed: 0.0006310939788818359
ell 281, elapsed: 0.0006148815155029297
ell 280, elapsed: 0.0006330013275146484
ell 279, elapsed: 0.00061798095703125
ell 278, elapsed: 0.0006101131439208984
ell 277, elapsed: 0.0007569789886474609
ell 276, elapsed: 0.0006220340728759766
ell 275, elapsed: 0.0006220340728759766
ell 274, elapsed: 0.0006079673767089844
ell 273, elapsed: 0.0006189346313476562
ell 272, elapsed: 0.0007510185241699219
ell 271, elapsed: 0.0006871223449707031
ell 270, elapsed: 0.0005049705505371094
ell 269, elapsed: 0.0004248619079589844
ell 268, elapsed: 0.000431060791015625
ell 267, elapsed: 0.00042319297790527344
ell 266, elapsed: 0.0004229545593261719
ell 265, elapsed: 0.0005159378051757812
ell 264, elapsed: 0.0004239082336425781
ell 263, elapsed: 0.00043487548828125
ell 262, elapsed: 0.0004241466522216797
ell 261, elapsed: 0.0004279613494873047
ell 260, elapsed: 0.00042700767517089844
ell 259, elapsed: 0.0004220008850097656
ell 258, elapsed: 0.0004239082336425781
ell 257, elapsed: 0.0004241466522216797
ell 256, elapsed: 0.0009388923645019531
ell 255, elapsed: 0.0005488395690917969
ell 254, elapsed: 0.0005459785461425781
ell 253, elapsed: 0.0005490779876708984
ell 252, elapsed: 0.0005431175231933594
ell 251, elapsed: 0.0005428791046142578
ell 250, elapsed: 0.00041413307189941406
ell 249, elapsed: 0.0004220008850097656
ell 248, elapsed: 0.0004200935363769531
ell 247, elapsed: 0.00041794776916503906
ell 246, elapsed: 0.0004200935363769531
ell 245, elapsed: 0.00041794776916503906
ell 244, elapsed: 0.0004191398620605469
ell 243, elapsed: 0.0004191398620605469
ell 242, elapsed: 0.00045013427734375
ell 241, elapsed: 0.0004169940948486328
ell 240, elapsed: 0.0004260540008544922
ell 239, elapsed: 0.00041413307189941406
ell 238, elapsed: 0.00041985511779785156
ell 237, elapsed: 0.0004169940948486328
ell 236, elapsed: 0.00043201446533203125
ell 235, elapsed: 0.000415802001953125
ell 234, elapsed: 0.0004138946533203125
ell 233, elapsed: 0.00045800209045410156
ell 232, elapsed: 0.0004220008850097656
ell 231, elapsed: 0.00041985511779785156
ell 230, elapsed: 0.0004169940948486328
ell 229, elapsed: 0.0004191398620605469
ell 228, elapsed: 0.0004229545593261719
ell 227, elapsed: 0.0004169940948486328
ell 226, elapsed: 0.0004189014434814453
ell 225, elapsed: 0.0004379749298095703
ell 224, elapsed: 0.00042510032653808594
ell 223, elapsed: 0.0004210472106933594
ell 222, elapsed: 0.000415802001953125
ell 221, elapsed: 0.00042510032653808594
ell 220, elapsed: 0.00041484832763671875
ell 219, elapsed: 0.0004169940948486328
ell 218, elapsed: 0.00041794776916503906
ell 217, elapsed: 0.0004150867462158203
ell 216, elapsed: 0.00044918060302734375
ell 215, elapsed: 0.00041413307189941406
ell 214, elapsed: 0.0004191398620605469
ell 213, elapsed: 0.0004210472106933594
ell 212, elapsed: 0.00041484832763671875
ell 211, elapsed: 0.0004191398620605469
ell 210, elapsed: 0.00041604042053222656
ell 209, elapsed: 0.0004200935363769531
ell 208, elapsed: 0.00041604042053222656
ell 207, elapsed: 0.0004630088806152344
ell 206, elapsed: 0.0004220008850097656
ell 205, elapsed: 0.0004138946533203125
ell 204, elapsed: 0.0004191398620605469
ell 203, elapsed: 0.0004169940948486328
ell 202, elapsed: 0.00041294097900390625
ell 201, elapsed: 0.0004191398620605469
ell 200, elapsed: 0.0004699230194091797
ell 199, elapsed: 0.0005619525909423828
ell 198, elapsed: 0.0005321502685546875
ell 197, elapsed: 0.0005381107330322266
ell 196, elapsed: 0.0005419254302978516
ell 195, elapsed: 0.0005340576171875
ell 194, elapsed: 0.0005471706390380859
ell 193, elapsed: 0.0005359649658203125
ell 192, elapsed: 0.0005500316619873047
ell 191, elapsed: 0.0005400180816650391
ell 190, elapsed: 0.0005421638488769531
ell 189, elapsed: 0.0005419254302978516
ell 188, elapsed: 0.0005400180816650391
ell 187, elapsed: 0.0005371570587158203
ell 186, elapsed: 0.005132913589477539
ell 185, elapsed: 0.0005412101745605469
ell 184, elapsed: 0.0005471706390380859
ell 183, elapsed: 0.0005431175231933594
ell 182, elapsed: 0.0005440711975097656
ell 181, elapsed: 0.0005459785461425781
ell 180, elapsed: 0.0005578994750976562
ell 179, elapsed: 0.0005438327789306641
ell 178, elapsed: 0.0005419254302978516
ell 177, elapsed: 0.0005471706390380859
ell 176, elapsed: 0.0005419254302978516
ell 175, elapsed: 0.0005409717559814453
ell 174, elapsed: 0.004369974136352539
ell 173, elapsed: 0.0004210472106933594
ell 172, elapsed: 0.0004241466522216797
ell 171, elapsed: 0.0004181861877441406
ell 170, elapsed: 0.0004191398620605469
ell 169, elapsed: 0.0004189014434814453
ell 168, elapsed: 0.0004169940948486328
ell 167, elapsed: 0.0004248619079589844
ell 166, elapsed: 0.00041794776916503906
ell 165, elapsed: 0.00044918060302734375
ell 164, elapsed: 0.0004248619079589844
ell 163, elapsed: 0.00041604042053222656
ell 162, elapsed: 0.0004210472106933594
ell 161, elapsed: 0.0004189014434814453
ell 160, elapsed: 0.0004181861877441406
ell 159, elapsed: 0.0004229545593261719
ell 158, elapsed: 0.00041985511779785156
ell 157, elapsed: 0.0004239082336425781
ell 156, elapsed: 0.004615068435668945
ell 155, elapsed: 0.0004239082336425781
ell 154, elapsed: 0.0004169940948486328
ell 153, elapsed: 0.0004169940948486328
ell 152, elapsed: 0.0004189014434814453
ell 151, elapsed: 0.0004169940948486328
ell 150, elapsed: 0.0004150867462158203
ell 149, elapsed: 0.0004208087921142578
ell 148, elapsed: 0.0004639625549316406
ell 147, elapsed: 0.00042510032653808594
ell 146, elapsed: 0.000415802001953125
ell 145, elapsed: 0.00041794776916503906
ell 144, elapsed: 0.0004131793975830078
ell 143, elapsed: 0.0004169940948486328
ell 142, elapsed: 0.00041985511779785156
ell 141, elapsed: 0.0004169940948486328
ell 140, elapsed: 0.0004200935363769531
ell 139, elapsed: 0.0004489421844482422
ell 138, elapsed: 0.0004210472106933594
ell 137, elapsed: 0.00042319297790527344
ell 136, elapsed: 0.00041794776916503906
ell 135, elapsed: 0.0004220008850097656
ell 134, elapsed: 0.00041794776916503906
ell 133, elapsed: 0.0004191398620605469
ell 132, elapsed: 0.0004239082336425781
ell 131, elapsed: 0.0007171630859375
ell 130, elapsed: 0.0005910396575927734
ell 129, elapsed: 0.0004839897155761719
ell 128, elapsed: 0.0005450248718261719
ell 127, elapsed: 0.0005478858947753906
ell 126, elapsed: 0.0005419254302978516
ell 125, elapsed: 0.0005538463592529297
ell 124, elapsed: 0.0005180835723876953
ell 123, elapsed: 0.0005412101745605469
ell 122, elapsed: 0.0005469322204589844
ell 121, elapsed: 0.0005350112915039062
ell 120, elapsed: 0.0005478858947753906
ell 119, elapsed: 0.0005459785461425781
ell 118, elapsed: 0.0005559921264648438
ell 117, elapsed: 0.000537872314453125
ell 116, elapsed: 0.0005409717559814453
ell 115, elapsed: 0.0005409717559814453
ell 114, elapsed: 0.0005428791046142578
ell 113, elapsed: 0.0005440711975097656
ell 112, elapsed: 0.0005369186401367188
ell 111, elapsed: 0.0005419254302978516
ell 110, elapsed: 0.0005340576171875
ell 109, elapsed: 0.0005271434783935547
ell 108, elapsed: 0.0005359649658203125
ell 107, elapsed: 0.0005340576171875
ell 106, elapsed: 0.0005331039428710938
ell 105, elapsed: 0.00047087669372558594
ell 104, elapsed: 0.0004208087921142578
ell 103, elapsed: 0.0004210472106933594
ell 102, elapsed: 0.0004189014434814453
ell 101, elapsed: 0.00041794776916503906
ell 100, elapsed: 0.0004200935363769531
ell 99, elapsed: 0.00041985511779785156
ell 98, elapsed: 0.00043201446533203125
ell 97, elapsed: 0.0004329681396484375
ell 96, elapsed: 0.0004189014434814453
ell 95, elapsed: 0.0004241466522216797
ell 94, elapsed: 0.0004210472106933594
ell 93, elapsed: 0.0004248619079589844
ell 92, elapsed: 0.0006220340728759766
ell 91, elapsed: 0.0007550716400146484
ell 90, elapsed: 0.0007212162017822266
ell 89, elapsed: 0.0006880760192871094
ell 88, elapsed: 0.0007169246673583984
ell 87, elapsed: 0.0007851123809814453
ell 86, elapsed: 0.00078582763671875
ell 85, elapsed: 0.0008020401000976562
ell 84, elapsed: 0.0007789134979248047
ell 83, elapsed: 0.0007929801940917969
ell 82, elapsed: 0.0007798671722412109
ell 81, elapsed: 0.0008599758148193359
ell 80, elapsed: 0.0007758140563964844
ell 79, elapsed: 0.000782012939453125
ell 78, elapsed: 0.0007920265197753906
ell 77, elapsed: 0.000782012939453125
ell 76, elapsed: 0.0006339550018310547
ell 75, elapsed: 0.0007770061492919922
ell 74, elapsed: 0.0007748603820800781
ell 73, elapsed: 0.0007841587066650391
ell 72, elapsed: 0.0007770061492919922
ell 71, elapsed: 0.0009489059448242188
ell 70, elapsed: 0.0007851123809814453
ell 69, elapsed: 0.0007908344268798828
ell 68, elapsed: 0.0007879734039306641
ell 67, elapsed: 0.0007920265197753906
ell 66, elapsed: 0.0007860660552978516
ell 65, elapsed: 0.0007779598236083984
ell 64, elapsed: 0.0007960796356201172
ell 63, elapsed: 0.0008099079132080078
ell 62, elapsed: 0.0007779598236083984
ell 61, elapsed: 0.0007960796356201172
ell 60, elapsed: 0.0007851123809814453
ell 59, elapsed: 0.0007829666137695312
ell 58, elapsed: 0.0007848739624023438
ell 57, elapsed: 0.0007798671722412109
ell 56, elapsed: 0.0007910728454589844
ell 55, elapsed: 0.0007870197296142578
ell 54, elapsed: 0.0010638236999511719
ell 53, elapsed: 0.0005619525909423828
ell 52, elapsed: 0.0006101131439208984
ell 51, elapsed: 0.0007369518280029297
ell 50, elapsed: 0.0005168914794921875
ell 49, elapsed: 0.0004990100860595703
ell 48, elapsed: 0.0004630088806152344
ell 47, elapsed: 0.0006010532379150391
ell 46, elapsed: 0.0005707740783691406
ell 45, elapsed: 0.00039005279541015625
ell 44, elapsed: 0.0004189014434814453
ell 43, elapsed: 0.00041604042053222656
ell 42, elapsed: 0.0004169940948486328
ell 41, elapsed: 0.00044083595275878906
ell 40, elapsed: 0.00041794776916503906
ell 39, elapsed: 0.0004189014434814453
ell 38, elapsed: 0.0004191398620605469
ell 37, elapsed: 0.0004189014434814453
ell 36, elapsed: 0.0004239082336425781
ell 35, elapsed: 0.0004248619079589844
ell 34, elapsed: 0.00041604042053222656
ell 33, elapsed: 0.0004169940948486328
ell 32, elapsed: 0.000637054443359375
ell 31, elapsed: 0.000514984130859375
ell 30, elapsed: 0.0004360675811767578
ell 29, elapsed: 0.00044608116149902344
ell 28, elapsed: 0.00044083595275878906
ell 27, elapsed: 0.00044608116149902344
ell 26, elapsed: 0.0004391670227050781
ell 25, elapsed: 0.00045800209045410156
ell 24, elapsed: 0.0004458427429199219
ell 23, elapsed: 0.0004429817199707031
ell 22, elapsed: 0.0004439353942871094
ell 21, elapsed: 0.0004589557647705078
ell 20, elapsed: 0.0005300045013427734
ell 19, elapsed: 0.00046706199645996094
ell 18, elapsed: 0.00046706199645996094
ell 17, elapsed: 0.00047707557678222656
ell 16, elapsed: 0.0005168914794921875
ell 15, elapsed: 0.00047087669372558594
ell 14, elapsed: 0.000514984130859375
ell 13, elapsed: 0.0005729198455810547
ell 12, elapsed: 0.00042700767517089844
ell 11, elapsed: 0.0005280971527099609
ell 10, elapsed: 0.0005450248718261719
ell 9, elapsed: 0.0004949569702148438
ell 8, elapsed: 0.0005960464477539062
ell 7, elapsed: 0.0005218982696533203
ell 6, elapsed: 0.00044798851013183594
ell 5, elapsed: 0.00045108795166015625
ell 4, elapsed: 0.0005249977111816406
ell 3, elapsed: 0.0004668235778808594
ell 2, elapsed: 0.0005030632019042969
ell 1, elapsed: 0.00044608116149902344
ell 0, elapsed: 0.00044608116149902344
  0.813787 seconds (103.29 k allocations: 3.965 MiB)
elapsed: 0.0005750656127929688
step:          0.078375 sec (0 allocations: 0 byte, 0.0% gc time)
swapping:      0.000815 sec (0 allocations: 0 byte, 0.0% gc time)
calc_Mellell!: 0.016813 sec (0 allocations: 0 byte, 0.0% gc time)
  t0 :  0.002417 sec (0 allocations: 0 byte, 0.0% gc time)
  tm2 : 0.109677 sec (0 allocations: 0 byte, 0.0% gc time)
  tm2s: 0.001591 sec (0 allocations: 0 byte, 0.0% gc time)
  tm4 : 0.308601 sec (0 allocations: 0 byte, 0.0% gc time)
  tp2 : 0.0 sec (0 allocations: 0 byte, 0.0% gc time)
  tp2s: 0.0 sec (0 allocations: 0 byte, 0.0% gc time)
  tp4 : 0.0 sec (0 allocations: 0 byte, 0.0% gc time)
calc_wtdll!:   0.471056 sec (9.9 k allocations: 1.047 MB, 0.0% gc time)
calc_wljj!:    0.046097 sec (689 allocations: 10.766 KB, 0.0% gc time)
mult_prefac!:  0.0 sec (0 allocations: 0 byte, 0.0% gc time)
convert:       0.0 sec (0 allocations: 0 byte, 0.0% gc time)
write:         0.050732 sec (0 allocations: 0 byte, 0.0% gc time)
test_rand_2f1: 0.0 sec (0 allocations: 0 byte, 0.0% gc time)
Closing outfile out/Ml21-cache.bin...   0.000004 seconds
  0.000458 seconds (36 allocations: 27.953 KiB)
make_phi():   0.002901 seconds (8.18 k allocations: 237.844 KiB)
  0.248590 seconds (141.90 k allocations: 3.483 MiB)
tskip:       0.001509 sec (0 allocations: 0 byte, 0.0% gc time)
tread:       0.031732 sec (17 allocations: 10.641 KB, 0.0% gc time)
tmultphi:    0.024448 sec (0 allocations: 0 byte, 0.0% gc time)
tbrfft:      0.069622 sec (0 allocations: 0 byte, 0.0% gc time)
tmultprefac: 0.048172 sec (0 allocations: 0 byte, 0.0% gc time)
toutfunc:    0.068209 sec (127.507 k allocations: 2.312 MB, 0.0% gc time)
Testing R=1.0 ... passed
Calculating fmax: 
  dlrec    = 4
  dlrecRg1 = -4
  q=1.1, R=0.9:	  0.514786 seconds (105.76 k allocations: 15.287 MiB)

  0.515042 seconds (105.98 k allocations: 15.323 MiB)
ℓ = 1202
Δℓ = 4
ΔℓRg1 = -4
N = 1600
q = 1.1
kmin = 1.0e-5
kmax = 100000.00000000004
χ0 = 0.023029999999999995
RR = RR.tsv
ℓmax = ℓmax.bin
f21 = f21.bin
kmin = 1.0e-5
kmax = 100000.0
dlrec    = 4
dlrecRg1 = -4
Output size: 5741568 bytes = 0.005347251892089844 GiB
Output size: 51264 bytes = 4.774332046508789e-5 GiB
Reading 'out/F21EllCache'...   0.001321 seconds (197 allocations: 84.203 KiB)
ellmax: 1202
lmaxcache: 1202
fell[:,1,1] = ComplexF64[1.3482014726274674e-57 - 3.302141236118086e-73im, 1.357860004724329e-57 - 3.3257978169518355e-73im]
ell 1202, elapsed: 0.00016498565673828125
ell 1201, elapsed: 0.0005428791046142578
ell 1200, elapsed: 0.0006930828094482422
ell 1199, elapsed: 0.0005030632019042969
ell 1198, elapsed: 0.0005459785461425781
ell 1002, elapsed: 0.011471033096313477
ell 1001, elapsed: 0.0004439353942871094
ell 1000, elapsed: 0.00043487548828125
ell 999, elapsed: 0.0004940032958984375
ell 998, elapsed: 0.00045680999755859375
ell 902, elapsed: 0.005322933197021484
ell 901, elapsed: 0.0004451274871826172
ell 900, elapsed: 0.00046706199645996094
ell 899, elapsed: 0.0005519390106201172
ell 898, elapsed: 0.0006589889526367188
ell 802, elapsed: 0.005557060241699219
ell 801, elapsed: 0.0005488395690917969
ell 800, elapsed: 0.0005340576171875
ell 799, elapsed: 0.0005261898040771484
ell 798, elapsed: 0.0005309581756591797
ell 702, elapsed: 0.005547046661376953
ell 701, elapsed: 0.0005390644073486328
ell 700, elapsed: 0.0005280971527099609
ell 699, elapsed: 0.0005679130554199219
ell 698, elapsed: 0.0005228519439697266
ell 602, elapsed: 0.005468845367431641
ell 601, elapsed: 0.0005350112915039062
ell 600, elapsed: 0.0005221366882324219
ell 599, elapsed: 0.00051116943359375
ell 598, elapsed: 0.0005118846893310547
ell 502, elapsed: 0.005557060241699219
ell 501, elapsed: 0.0005469322204589844
ell 500, elapsed: 0.0005190372467041016
ell 499, elapsed: 0.0005061626434326172
ell 498, elapsed: 0.0005059242248535156
ell 402, elapsed: 0.0054340362548828125
ell 401, elapsed: 0.0005362033843994141
ell 400, elapsed: 0.0005791187286376953
ell 399, elapsed: 0.00040984153747558594
ell 398, elapsed: 0.00038814544677734375
ell 302, elapsed: 0.005276918411254883
ell 301, elapsed: 0.00042891502380371094
ell 300, elapsed: 0.0004138946533203125
ell 299, elapsed: 0.0004780292510986328
ell 298, elapsed: 0.00039315223693847656
ell 202, elapsed: 0.005247831344604492
ell 201, elapsed: 0.0004239082336425781
ell 200, elapsed: 0.00040411949157714844
ell 199, elapsed: 0.0004150867462158203
ell 198, elapsed: 0.00045490264892578125
ell 152, elapsed: 0.0028219223022460938
ell 151, elapsed: 0.00042700767517089844
ell 150, elapsed: 0.00041794776916503906
ell 149, elapsed: 0.00041794776916503906
ell 148, elapsed: 0.0004088878631591797
ell 127, elapsed: 0.001497030258178711
ell 126, elapsed: 0.00045800209045410156
ell 125, elapsed: 0.00044608116149902344
ell 124, elapsed: 0.00040602684020996094
ell 123, elapsed: 0.0004088878631591797
ell 114, elapsed: 0.0009071826934814453
ell 113, elapsed: 0.0004839897155761719
ell 112, elapsed: 0.0004591941833496094
ell 111, elapsed: 0.00047397613525390625
ell 110, elapsed: 0.00044989585876464844
ell 102, elapsed: 0.0009579658508300781
ell 101, elapsed: 0.00043392181396484375
ell 100, elapsed: 0.0004138946533203125
ell 99, elapsed: 0.0004239082336425781
ell 98, elapsed: 0.00041294097900390625
ell 97, elapsed: 0.0005049705505371094
ell 96, elapsed: 0.0004930496215820312
ell 95, elapsed: 0.0005319118499755859
ell 94, elapsed: 0.000514984130859375
ell 93, elapsed: 0.000553131103515625
ell 92, elapsed: 0.0005259513854980469
ell 91, elapsed: 0.0004839897155761719
ell 90, elapsed: 0.0004899501800537109
ell 89, elapsed: 0.000476837158203125
ell 88, elapsed: 0.0004780292510986328
ell 87, elapsed: 0.00051116943359375
ell 86, elapsed: 0.0005121231079101562
ell 85, elapsed: 0.0004839897155761719
ell 84, elapsed: 0.0005168914794921875
ell 83, elapsed: 0.0005400180816650391
ell 82, elapsed: 0.0005509853363037109
ell 81, elapsed: 0.0005528926849365234
ell 80, elapsed: 0.0005371570587158203
ell 79, elapsed: 0.0004341602325439453
ell 78, elapsed: 0.0004889965057373047
ell 77, elapsed: 0.000476837158203125
ell 76, elapsed: 0.0005130767822265625
ell 75, elapsed: 0.0005059242248535156
ell 74, elapsed: 0.0004792213439941406
ell 73, elapsed: 0.0004749298095703125
ell 72, elapsed: 0.0005209445953369141
ell 71, elapsed: 0.0004742145538330078
ell 70, elapsed: 0.0005390644073486328
ell 69, elapsed: 0.0005390644073486328
ell 68, elapsed: 0.0004730224609375
ell 67, elapsed: 0.0004761219024658203
ell 66, elapsed: 0.0004868507385253906
ell 65, elapsed: 0.0005021095275878906
ell 64, elapsed: 0.0005559921264648438
ell 63, elapsed: 0.0005180835723876953
ell 62, elapsed: 0.0005159378051757812
ell 61, elapsed: 0.0005519390106201172
ell 60, elapsed: 0.0005648136138916016
ell 59, elapsed: 0.0005869865417480469
ell 58, elapsed: 0.0004990100860595703
ell 57, elapsed: 0.0005068778991699219
ell 56, elapsed: 0.0005369186401367188
ell 55, elapsed: 0.0005738735198974609
ell 54, elapsed: 0.0005159378051757812
ell 53, elapsed: 0.0005199909210205078
ell 52, elapsed: 0.0005168914794921875
ell 51, elapsed: 0.0004761219024658203
ell 50, elapsed: 0.0005221366882324219
ell 49, elapsed: 0.0005249977111816406
ell 48, elapsed: 0.000514984130859375
ell 47, elapsed: 0.0005178451538085938
ell 46, elapsed: 0.0005121231079101562
ell 45, elapsed: 0.0005068778991699219
ell 44, elapsed: 0.0006008148193359375
ell 43, elapsed: 0.0005609989166259766
ell 42, elapsed: 0.00051116943359375
ell 41, elapsed: 0.0004801750183105469
ell 40, elapsed: 0.0005061626434326172
ell 39, elapsed: 0.0006201267242431641
ell 38, elapsed: 0.0005021095275878906
ell 37, elapsed: 0.0004928112030029297
ell 36, elapsed: 0.0004830360412597656
ell 35, elapsed: 0.0005161762237548828
ell 34, elapsed: 0.0005168914794921875
ell 33, elapsed: 0.0005540847778320312
ell 32, elapsed: 0.0005059242248535156
ell 31, elapsed: 0.0004818439483642578
ell 30, elapsed: 0.0005059242248535156
ell 29, elapsed: 0.0005588531494140625
ell 28, elapsed: 0.0005660057067871094
ell 27, elapsed: 0.0005600452423095703
ell 26, elapsed: 0.0005400180816650391
ell 25, elapsed: 0.0005910396575927734
ell 24, elapsed: 0.0005230903625488281
ell 23, elapsed: 0.0005512237548828125
ell 22, elapsed: 0.0005259513854980469
ell 21, elapsed: 0.0005190372467041016
ell 20, elapsed: 0.0005509853363037109
ell 19, elapsed: 0.0004849433898925781
ell 18, elapsed: 0.0004711151123046875
ell 17, elapsed: 0.0004858970642089844
ell 16, elapsed: 0.00047898292541503906
ell 15, elapsed: 0.0004799365997314453
ell 14, elapsed: 0.00047588348388671875
ell 13, elapsed: 0.00048279762268066406
ell 12, elapsed: 0.0005061626434326172
ell 11, elapsed: 0.0005071163177490234
ell 10, elapsed: 0.0005819797515869141
ell 9, elapsed: 0.0006010532379150391
ell 8, elapsed: 0.0005159378051757812
ell 7, elapsed: 0.0005369186401367188
ell 6, elapsed: 0.0004780292510986328
ell 5, elapsed: 0.0005009174346923828
ell 4, elapsed: 0.0004830360412597656
ell 3, elapsed: 0.0005049705505371094
ell 2, elapsed: 0.0005040168762207031
ell 1, elapsed: 0.0005078315734863281
ell 0, elapsed: 0.0004930496215820312
  0.183768 seconds (19.58 k allocations: 845.703 KiB)
elapsed: 0.0010938644409179688
step:          0.059184 sec (0 allocations: 0 byte, 0.0% gc time)
swapping:      0.000494 sec (0 allocations: 0 byte, 0.0% gc time)
calc_Mellell!: 0.002012 sec (0 allocations: 0 byte, 0.0% gc time)
  t0 :  0.000672 sec (0 allocations: 0 byte, 0.0% gc time)
  tm2 : 0.013215 sec (0 allocations: 0 byte, 0.0% gc time)
  tm2s: 0.0003 sec (0 allocations: 0 byte, 0.0% gc time)
  tm4 : 0.03313 sec (0 allocations: 0 byte, 0.0% gc time)
  tp2 : 0.0 sec (0 allocations: 0 byte, 0.0% gc time)
  tp2s: 0.0 sec (0 allocations: 0 byte, 0.0% gc time)
  tp4 : 0.0 sec (0 allocations: 0 byte, 0.0% gc time)
calc_wtdll!:   0.048295 sec (1.344 k allocations: 147.0 KB, 0.0% gc time)
calc_wljj!:    0.003438 sec (6 allocations: 96 byte, 0.0% gc time)
mult_prefac!:  0.0 sec (0 allocations: 0 byte, 0.0% gc time)
convert:       0.0 sec (0 allocations: 0 byte, 0.0% gc time)
write:         0.004496 sec (0 allocations: 0 byte, 0.0% gc time)
test_rand_2f1: 0.0 sec (0 allocations: 0 byte, 0.0% gc time)
Closing outfile out/Ml21-cache.bin...   0.000007 seconds
  0.000307 seconds (36 allocations: 27.953 KiB)
make_phi():   0.002792 seconds (8.18 k allocations: 237.844 KiB)
  0.017289 seconds (11.65 k allocations: 308.688 KiB)
tskip:       2.3e-5 sec (0 allocations: 0 byte, 0.0% gc time)
tread:       0.002636 sec (17 allocations: 2.125 KB, 0.0% gc time)
tmultphi:    0.00137 sec (0 allocations: 0 byte, 0.0% gc time)
tbrfft:      0.004078 sec (0 allocations: 0 byte, 0.0% gc time)
tmultprefac: 0.00369 sec (0 allocations: 0 byte, 0.0% gc time)
toutfunc:    0.005144 sec (10.304 k allocations: 196.0 KB, 0.0% gc time)
Testing R=0.9 ... passed
Calculating fmax: 
  dlrec    = 4
  dlrecRg1 = -4
  q=1.1, R=0.8:	  0.443792 seconds (103.25 k allocations: 14.856 MiB)

  0.444253 seconds (103.48 k allocations: 14.893 MiB)
ℓ = 1202
Δℓ = 4
ΔℓRg1 = -4
N = 1600
q = 1.1
kmin = 1.0e-5
kmax = 100000.00000000004
χ0 = 0.023029999999999995
RR = RR.tsv
ℓmax = ℓmax.bin
f21 = f21.bin
kmin = 1.0e-5
kmax = 100000.0
dlrec    = 4
dlrecRg1 = -4
Output size: 5741568 bytes = 0.005347251892089844 GiB
Output size: 51264 bytes = 4.774332046508789e-5 GiB
Reading 'out/F21EllCache'...   0.000949 seconds (197 allocations: 84.203 KiB)
ellmax: 1202
lmaxcache: 1202
fell[:,1,1] = ComplexF64[7.519068145690986e-120 - 1.8416405474382574e-135im, 7.541664537386155e-120 - 1.847175067190611e-135im]
ell 1202, elapsed: 2.002716064453125e-5
ell 1201, elapsed: 0.0004131793975830078
ell 1200, elapsed: 0.0003330707550048828
ell 1199, elapsed: 0.00033092498779296875
ell 1198, elapsed: 0.0003681182861328125
ell 1002, elapsed: 0.010341167449951172
ell 1001, elapsed: 0.0004150867462158203
ell 1000, elapsed: 0.00039887428283691406
ell 999, elapsed: 0.0003991127014160156
ell 998, elapsed: 0.00039696693420410156
ell 902, elapsed: 0.005612850189208984
ell 901, elapsed: 0.00037097930908203125
ell 900, elapsed: 0.00037598609924316406
ell 899, elapsed: 0.0003790855407714844
ell 898, elapsed: 0.0003769397735595703
ell 802, elapsed: 0.0052950382232666016
ell 801, elapsed: 0.0003631114959716797
ell 800, elapsed: 0.00036787986755371094
ell 799, elapsed: 0.00038814544677734375
ell 798, elapsed: 0.0003819465637207031
ell 702, elapsed: 0.005160808563232422
ell 701, elapsed: 0.0005459785461425781
ell 700, elapsed: 0.00037288665771484375
ell 699, elapsed: 0.0003609657287597656
ell 698, elapsed: 0.0003681182861328125
ell 602, elapsed: 0.005627155303955078
ell 601, elapsed: 0.0003819465637207031
ell 600, elapsed: 0.0003840923309326172
ell 599, elapsed: 0.0003669261932373047
ell 598, elapsed: 0.0003719329833984375
ell 502, elapsed: 0.0054168701171875
ell 501, elapsed: 0.00034880638122558594
ell 500, elapsed: 0.0003390312194824219
ell 499, elapsed: 0.00035309791564941406
ell 498, elapsed: 0.0006558895111083984
ell 402, elapsed: 0.005439043045043945
ell 401, elapsed: 0.0003349781036376953
ell 400, elapsed: 0.00032711029052734375
ell 399, elapsed: 0.0003380775451660156
ell 398, elapsed: 0.00033020973205566406
ell 302, elapsed: 0.0051441192626953125
ell 301, elapsed: 0.000331878662109375
ell 300, elapsed: 0.0003268718719482422
ell 299, elapsed: 0.00032901763916015625
ell 298, elapsed: 0.00032901763916015625
ell 202, elapsed: 0.005135059356689453
ell 201, elapsed: 0.0003349781036376953
ell 200, elapsed: 0.0004239082336425781
ell 199, elapsed: 0.00032711029052734375
ell 198, elapsed: 0.00032901763916015625
ell 152, elapsed: 0.0025789737701416016
ell 151, elapsed: 0.00032591819763183594
ell 150, elapsed: 0.0004248619079589844
ell 149, elapsed: 0.00032901763916015625
ell 148, elapsed: 0.00032901763916015625
ell 127, elapsed: 0.0013761520385742188
ell 126, elapsed: 0.0003268718719482422
ell 125, elapsed: 0.00032591819763183594
ell 124, elapsed: 0.0003249645233154297
ell 123, elapsed: 0.0003261566162109375
ell 114, elapsed: 0.0007941722869873047
ell 113, elapsed: 0.0003268718719482422
ell 112, elapsed: 0.00032401084899902344
ell 111, elapsed: 0.00032401084899902344
ell 110, elapsed: 0.00032901763916015625
ell 102, elapsed: 0.0007288455963134766
ell 101, elapsed: 0.00032401084899902344
ell 100, elapsed: 0.00032401084899902344
ell 99, elapsed: 0.000476837158203125
ell 98, elapsed: 0.0003790855407714844
ell 97, elapsed: 0.0004620552062988281
ell 96, elapsed: 0.0003829002380371094
ell 95, elapsed: 0.00039505958557128906
ell 94, elapsed: 0.0003819465637207031
ell 93, elapsed: 0.0003859996795654297
ell 92, elapsed: 0.0003879070281982422
ell 91, elapsed: 0.0003809928894042969
ell 90, elapsed: 0.0005078315734863281
ell 89, elapsed: 0.00038814544677734375
ell 88, elapsed: 0.0003859996795654297
ell 87, elapsed: 0.0003898143768310547
ell 86, elapsed: 0.00038695335388183594
ell 85, elapsed: 0.0003979206085205078
ell 84, elapsed: 0.00038504600524902344
ell 83, elapsed: 0.0003840923309326172
ell 82, elapsed: 0.00038814544677734375
ell 81, elapsed: 0.00048613548278808594
ell 80, elapsed: 0.00039315223693847656
ell 79, elapsed: 0.00038504600524902344
ell 78, elapsed: 0.0003910064697265625
ell 77, elapsed: 0.00038695335388183594
ell 76, elapsed: 0.00038504600524902344
ell 75, elapsed: 0.0003879070281982422
ell 74, elapsed: 0.00038504600524902344
ell 73, elapsed: 0.00039005279541015625
ell 72, elapsed: 0.0004928112030029297
ell 71, elapsed: 0.0003840923309326172
ell 70, elapsed: 0.00039505958557128906
ell 69, elapsed: 0.0003840923309326172
ell 68, elapsed: 0.00039196014404296875
ell 67, elapsed: 0.00038313865661621094
ell 66, elapsed: 0.0003859996795654297
ell 65, elapsed: 0.0003821849822998047
ell 64, elapsed: 0.00038695335388183594
ell 63, elapsed: 0.0004999637603759766
ell 62, elapsed: 0.0003910064697265625
ell 61, elapsed: 0.0003840923309326172
ell 60, elapsed: 0.0003840923309326172
ell 59, elapsed: 0.0003859996795654297
ell 58, elapsed: 0.0003838539123535156
ell 57, elapsed: 0.0003838539123535156
ell 56, elapsed: 0.00037789344787597656
ell 55, elapsed: 0.0003941059112548828
ell 54, elapsed: 0.0003819465637207031
ell 53, elapsed: 0.00048804283142089844
ell 52, elapsed: 0.0003871917724609375
ell 51, elapsed: 0.0003848075866699219
ell 50, elapsed: 0.0003859996795654297
ell 49, elapsed: 0.00038504600524902344
ell 48, elapsed: 0.0003848075866699219
ell 47, elapsed: 0.0003859996795654297
ell 46, elapsed: 0.00038504600524902344
ell 45, elapsed: 0.0003879070281982422
ell 44, elapsed: 0.00048804283142089844
[...]
ell 789, elapsed: 0.0007529258728027344
ell 788, elapsed: 0.0007669925689697266
ell 782, elapsed: 0.001474142074584961
ell 781, elapsed: 0.0007739067077636719
ell 780, elapsed: 0.0007572174072265625
ell 779, elapsed: 0.0007488727569580078
ell 778, elapsed: 0.0007588863372802734
ell 772, elapsed: 0.0014870166778564453
ell 771, elapsed: 0.0007770061492919922
ell 770, elapsed: 0.0007619857788085938
ell 769, elapsed: 0.0007469654083251953
ell 768, elapsed: 0.0007810592651367188
ell 762, elapsed: 0.0013959407806396484
ell 761, elapsed: 0.0007541179656982422
ell 760, elapsed: 0.0007600784301757812
ell 759, elapsed: 0.0007698535919189453
ell 758, elapsed: 0.0007607936859130859
ell 752, elapsed: 0.00144195556640625
ell 751, elapsed: 0.0007760524749755859
ell 750, elapsed: 0.000782012939453125
ell 749, elapsed: 0.0007531642913818359
ell 748, elapsed: 0.0007588863372802734
ell 742, elapsed: 0.0013968944549560547
ell 741, elapsed: 0.0007598400115966797
ell 740, elapsed: 0.0007631778717041016
ell 739, elapsed: 0.0007498264312744141
ell 738, elapsed: 0.0007550716400146484
ell 732, elapsed: 0.0014889240264892578
ell 731, elapsed: 0.0007498264312744141
ell 730, elapsed: 0.0007579326629638672
ell 729, elapsed: 0.0007479190826416016
ell 728, elapsed: 0.0007579326629638672
ell 722, elapsed: 0.0014138221740722656
ell 721, elapsed: 0.0007510185241699219
ell 720, elapsed: 0.0007588863372802734
ell 719, elapsed: 0.0007491111755371094
ell 718, elapsed: 0.0007679462432861328
ell 712, elapsed: 0.001444101333618164
ell 711, elapsed: 0.0007741451263427734
ell 710, elapsed: 0.000759124755859375
ell 709, elapsed: 0.0007729530334472656
ell 708, elapsed: 0.0007560253143310547
ell 702, elapsed: 0.0013849735260009766
ell 701, elapsed: 0.0007510185241699219
ell 700, elapsed: 0.0007550716400146484
ell 699, elapsed: 0.0007791519165039062
ell 698, elapsed: 0.000759124755859375
ell 692, elapsed: 0.0013890266418457031
ell 691, elapsed: 0.0007469654083251953
ell 690, elapsed: 0.0007870197296142578
ell 689, elapsed: 0.0007441043853759766
ell 688, elapsed: 0.000759124755859375
ell 682, elapsed: 0.0013790130615234375
ell 681, elapsed: 0.0007731914520263672
ell 680, elapsed: 0.0007550716400146484
ell 679, elapsed: 0.0007460117340087891
ell 678, elapsed: 0.0007531642913818359
ell 672, elapsed: 0.0014729499816894531
ell 671, elapsed: 0.0007770061492919922
ell 670, elapsed: 0.0007550716400146484
ell 669, elapsed: 0.0007479190826416016
ell 668, elapsed: 0.0007569789886474609
ell 662, elapsed: 0.0014181137084960938
ell 661, elapsed: 0.0007421970367431641
ell 660, elapsed: 0.0007510185241699219
ell 659, elapsed: 0.0007431507110595703
ell 658, elapsed: 0.0008380413055419922
ell 652, elapsed: 0.0014681816101074219
ell 651, elapsed: 0.0007791519165039062
ell 650, elapsed: 0.0007538795471191406
ell 649, elapsed: 0.0007519721984863281
ell 648, elapsed: 0.0007598400115966797
ell 642, elapsed: 0.0013859272003173828
ell 641, elapsed: 0.0007500648498535156
ell 640, elapsed: 0.0007848739624023438
ell 639, elapsed: 0.0007491111755371094
ell 638, elapsed: 0.0007579326629638672
ell 632, elapsed: 0.0014269351959228516
ell 631, elapsed: 0.0007789134979248047
ell 630, elapsed: 0.0007710456848144531
ell 629, elapsed: 0.0007481575012207031
ell 628, elapsed: 0.0007560253143310547
ell 622, elapsed: 0.0014338493347167969
ell 621, elapsed: 0.00080108642578125
ell 620, elapsed: 0.0007557868957519531
ell 619, elapsed: 0.0007510185241699219
ell 618, elapsed: 0.0007579326629638672
ell 612, elapsed: 0.0014491081237792969
ell 611, elapsed: 0.0007641315460205078
ell 610, elapsed: 0.0007548332214355469
ell 609, elapsed: 0.000743865966796875
ell 608, elapsed: 0.0007541179656982422
ell 602, elapsed: 0.0014061927795410156
ell 601, elapsed: 0.0007479190826416016
ell 600, elapsed: 0.0007538795471191406
ell 599, elapsed: 0.0007460117340087891
ell 598, elapsed: 0.0007779598236083984
ell 592, elapsed: 0.001461029052734375
ell 591, elapsed: 0.0007669925689697266
ell 590, elapsed: 0.0007560253143310547
ell 589, elapsed: 0.0007669925689697266
ell 588, elapsed: 0.0007569789886474609
ell 582, elapsed: 0.0014739036560058594
ell 581, elapsed: 0.0007481575012207031
ell 580, elapsed: 0.0007660388946533203
ell 579, elapsed: 0.0007531642913818359
ell 578, elapsed: 0.0007600784301757812
ell 572, elapsed: 0.0014088153839111328
ell 571, elapsed: 0.004809141159057617
ell 570, elapsed: 0.0007710456848144531
ell 569, elapsed: 0.0007550716400146484
ell 568, elapsed: 0.0007510185241699219
ell 562, elapsed: 0.001775979995727539
ell 561, elapsed: 0.000759124755859375
ell 560, elapsed: 0.000759124755859375
ell 559, elapsed: 0.0007491111755371094
ell 558, elapsed: 0.0007588863372802734
ell 552, elapsed: 0.0017390251159667969
ell 551, elapsed: 0.0007488727569580078
ell 550, elapsed: 0.0008311271667480469
ell 549, elapsed: 0.0007770061492919922
ell 548, elapsed: 0.0007550716400146484
ell 542, elapsed: 0.001458883285522461
ell 541, elapsed: 0.0007729530334472656
ell 540, elapsed: 0.0007588863372802734
ell 539, elapsed: 0.0007510185241699219
ell 538, elapsed: 0.0007572174072265625
ell 532, elapsed: 0.001399993896484375
ell 531, elapsed: 0.0007500648498535156
ell 530, elapsed: 0.0008339881896972656
ell 529, elapsed: 0.0007500648498535156
ell 528, elapsed: 0.0007588863372802734
ell 522, elapsed: 0.00144195556640625
ell 521, elapsed: 0.0008559226989746094
ell 520, elapsed: 0.000759124755859375
ell 519, elapsed: 0.0007531642913818359
ell 518, elapsed: 0.0007572174072265625
ell 512, elapsed: 0.0015740394592285156
ell 511, elapsed: 0.0007541179656982422
ell 510, elapsed: 0.0007588863372802734
ell 509, elapsed: 0.0007469654083251953
ell 508, elapsed: 0.0008440017700195312
ell 502, elapsed: 0.0014760494232177734
ell 501, elapsed: 0.0007760524749755859
ell 500, elapsed: 0.0007600784301757812
ell 499, elapsed: 0.0008368492126464844
ell 498, elapsed: 0.0007650852203369141
ell 492, elapsed: 0.001477956771850586
ell 491, elapsed: 0.0007760524749755859
ell 490, elapsed: 0.0007998943328857422
ell 489, elapsed: 0.0007529258728027344
ell 488, elapsed: 0.0007660388946533203
ell 482, elapsed: 0.0014140605926513672
ell 481, elapsed: 0.0007691383361816406
ell 480, elapsed: 0.0007619857788085938
ell 479, elapsed: 0.0007538795471191406
ell 478, elapsed: 0.0007560253143310547
ell 472, elapsed: 0.0014300346374511719
ell 471, elapsed: 0.000759124755859375
ell 470, elapsed: 0.0007579326629638672
ell 469, elapsed: 0.0007519721984863281
ell 468, elapsed: 0.0007579326629638672
ell 462, elapsed: 0.0015189647674560547
ell 461, elapsed: 0.0007519721984863281
ell 460, elapsed: 0.0007619857788085938
ell 459, elapsed: 0.0007488727569580078
ell 458, elapsed: 0.0007619857788085938
ell 452, elapsed: 0.001483917236328125
ell 451, elapsed: 0.0007729530334472656
ell 450, elapsed: 0.0007801055908203125
ell 449, elapsed: 0.0007588863372802734
ell 448, elapsed: 0.0007679462432861328
ell 442, elapsed: 0.0015239715576171875
ell 441, elapsed: 0.0007588863372802734
ell 440, elapsed: 0.0007870197296142578
ell 439, elapsed: 0.0007569789886474609
ell 438, elapsed: 0.0007650852203369141
ell 432, elapsed: 0.0015170574188232422
ell 431, elapsed: 0.0008120536804199219
ell 430, elapsed: 0.0007748603820800781
ell 429, elapsed: 0.0007529258728027344
ell 428, elapsed: 0.0007658004760742188
ell 422, elapsed: 0.0015349388122558594
ell 421, elapsed: 0.0007741451263427734
ell 420, elapsed: 0.0007719993591308594
ell 419, elapsed: 0.0007510185241699219
ell 418, elapsed: 0.0007679462432861328
ell 412, elapsed: 0.0015001296997070312
ell 411, elapsed: 0.0007719993591308594
ell 410, elapsed: 0.0007691383361816406
ell 409, elapsed: 0.0007569789886474609
ell 408, elapsed: 0.0007700920104980469
ell 402, elapsed: 0.0015380382537841797
ell 401, elapsed: 0.0007588863372802734
ell 400, elapsed: 0.0007660388946533203
ell 399, elapsed: 0.0007929801940917969
ell 398, elapsed: 0.0007600784301757812
ell 392, elapsed: 0.0014710426330566406
ell 391, elapsed: 0.0007898807525634766
ell 390, elapsed: 0.0007748603820800781
ell 389, elapsed: 0.0007531642913818359
ell 388, elapsed: 0.0007610321044921875
ell 382, elapsed: 0.0014209747314453125
ell 381, elapsed: 0.0007719993591308594
ell 380, elapsed: 0.0007710456848144531
ell 379, elapsed: 0.0007619857788085938
ell 378, elapsed: 0.0007679462432861328
ell 372, elapsed: 0.0014510154724121094
ell 371, elapsed: 0.0007748603820800781
ell 370, elapsed: 0.0007750988006591797
ell 369, elapsed: 0.0007679462432861328
ell 368, elapsed: 0.0007710456848144531
ell 362, elapsed: 0.0014629364013671875
ell 361, elapsed: 0.0007560253143310547
ell 360, elapsed: 0.0007650852203369141
ell 359, elapsed: 0.0008189678192138672
ell 358, elapsed: 0.000782012939453125
ell 352, elapsed: 0.0015299320220947266
ell 351, elapsed: 0.0007529258728027344
ell 350, elapsed: 0.0007610321044921875
ell 349, elapsed: 0.0007669925689697266
ell 348, elapsed: 0.0007648468017578125
ell 342, elapsed: 0.0015170574188232422
ell 341, elapsed: 0.0007851123809814453
ell 340, elapsed: 0.0007891654968261719
ell 339, elapsed: 0.0007638931274414062
ell 338, elapsed: 0.000759124755859375
ell 332, elapsed: 0.00144195556640625
ell 331, elapsed: 0.0007660388946533203
ell 330, elapsed: 0.0007679462432861328
ell 329, elapsed: 0.0007531642913818359
ell 328, elapsed: 0.0008389949798583984
ell 322, elapsed: 0.0014719963073730469
ell 321, elapsed: 0.000759124755859375
ell 320, elapsed: 0.0007598400115966797
ell 319, elapsed: 0.0007569789886474609
ell 318, elapsed: 0.000762939453125
ell 312, elapsed: 0.0014429092407226562
ell 311, elapsed: 0.000759124755859375
ell 310, elapsed: 0.0007679462432861328
ell 309, elapsed: 0.0007600784301757812
ell 308, elapsed: 0.0007672309875488281
ell 302, elapsed: 0.0015130043029785156
ell 301, elapsed: 0.0007798671722412109
ell 300, elapsed: 0.000762939453125
ell 299, elapsed: 0.0007691383361816406
ell 298, elapsed: 0.0007638931274414062
ell 292, elapsed: 0.0014889240264892578
ell 291, elapsed: 0.0007710456848144531
ell 290, elapsed: 0.0007791519165039062
ell 289, elapsed: 0.0007510185241699219
ell 288, elapsed: 0.0007610321044921875
ell 282, elapsed: 0.0014379024505615234
ell 281, elapsed: 0.0007681846618652344
ell 280, elapsed: 0.0007789134979248047
ell 279, elapsed: 0.0007679462432861328
ell 278, elapsed: 0.0007600784301757812
ell 272, elapsed: 0.001497030258178711
ell 271, elapsed: 0.0007860660552978516
ell 270, elapsed: 0.0007650852203369141
ell 269, elapsed: 0.0007569789886474609
ell 268, elapsed: 0.0007610321044921875
ell 262, elapsed: 0.0015549659729003906
ell 261, elapsed: 0.0007619857788085938
ell 260, elapsed: 0.0007660388946533203
ell 259, elapsed: 0.0007548332214355469
ell 258, elapsed: 0.0007741451263427734
ell 252, elapsed: 0.0015599727630615234
ell 251, elapsed: 0.0007779598236083984
ell 250, elapsed: 0.0008280277252197266
ell 249, elapsed: 0.0007948875427246094
ell 248, elapsed: 0.0007610321044921875
ell 242, elapsed: 0.0015110969543457031
ell 241, elapsed: 0.0007650852203369141
ell 240, elapsed: 0.0007860660552978516
ell 239, elapsed: 0.0007560253143310547
ell 238, elapsed: 0.0007658004760742188
ell 232, elapsed: 0.0014309883117675781
ell 231, elapsed: 0.0007691383361816406
ell 230, elapsed: 0.0007688999176025391
ell 229, elapsed: 0.000759124755859375
ell 228, elapsed: 0.0007679462432861328
ell 222, elapsed: 0.001522064208984375
ell 221, elapsed: 0.0007610321044921875
ell 220, elapsed: 0.0007610321044921875
ell 219, elapsed: 0.0008389949798583984
ell 218, elapsed: 0.0007660388946533203
ell 212, elapsed: 0.0015299320220947266
ell 211, elapsed: 0.000762939453125
ell 210, elapsed: 0.0007650852203369141
ell 209, elapsed: 0.0007560253143310547
ell 208, elapsed: 0.0007750988006591797
ell 202, elapsed: 0.0014472007751464844
ell 201, elapsed: 0.0007529258728027344
ell 200, elapsed: 0.0007631778717041016
ell 199, elapsed: 0.0007700920104980469
ell 198, elapsed: 0.0007660388946533203
ell 192, elapsed: 0.0015208721160888672
ell 191, elapsed: 0.0007970333099365234
ell 190, elapsed: 0.0007860660552978516
ell 189, elapsed: 0.0007631778717041016
ell 188, elapsed: 0.0007700920104980469
ell 182, elapsed: 0.0015079975128173828
ell 181, elapsed: 0.0007979869842529297
ell 180, elapsed: 0.0007691383361816406
ell 179, elapsed: 0.000762939453125
ell 178, elapsed: 0.0007648468017578125
ell 172, elapsed: 0.0015001296997070312
ell 171, elapsed: 0.0007789134979248047
ell 170, elapsed: 0.0008242130279541016
ell 169, elapsed: 0.0007879734039306641
ell 168, elapsed: 0.0007648468017578125
ell 162, elapsed: 0.0015020370483398438
ell 161, elapsed: 0.0007729530334472656
ell 160, elapsed: 0.0007691383361816406
ell 159, elapsed: 0.0007658004760742188
ell 158, elapsed: 0.0007851123809814453
ell 152, elapsed: 0.0014748573303222656
ell 151, elapsed: 0.0007741451263427734
ell 150, elapsed: 0.0007610321044921875
ell 149, elapsed: 0.0007710456848144531
ell 148, elapsed: 0.0007650852203369141
ell 142, elapsed: 0.0014688968658447266
ell 141, elapsed: 0.0007841587066650391
ell 140, elapsed: 0.0007710456848144531
ell 139, elapsed: 0.0007519721984863281
ell 138, elapsed: 0.0007638931274414062
ell 132, elapsed: 0.0013048648834228516
ell 131, elapsed: 0.0007128715515136719
ell 130, elapsed: 0.0007431507110595703
ell 129, elapsed: 0.0007028579711914062
ell 128, elapsed: 0.0007100105285644531
ell 122, elapsed: 0.0012359619140625
ell 121, elapsed: 0.0007040500640869141
ell 120, elapsed: 0.000759124755859375
ell 119, elapsed: 0.0007369518280029297
ell 118, elapsed: 0.0007510185241699219
ell 112, elapsed: 0.00140380859375
ell 111, elapsed: 0.0007450580596923828
ell 110, elapsed: 0.0007610321044921875
ell 109, elapsed: 0.0007491111755371094
ell 108, elapsed: 0.0007650852203369141
ell 102, elapsed: 0.0014162063598632812
ell 101, elapsed: 0.003259897232055664
ell 100, elapsed: 0.003223896026611328
ell 99, elapsed: 0.0033121109008789062
ell 98, elapsed: 0.0033359527587890625
ell 92, elapsed: 0.005980014801025391
ell 91, elapsed: 0.003304004669189453
ell 90, elapsed: 0.003331899642944336
ell 89, elapsed: 0.0033168792724609375
ell 88, elapsed: 0.0033111572265625
ell 82, elapsed: 0.006058931350708008
ell 81, elapsed: 0.003306150436401367
ell 80, elapsed: 0.002933025360107422
ell 79, elapsed: 0.0030198097229003906
ell 78, elapsed: 0.003348112106323242
ell 72, elapsed: 0.006093025207519531
ell 71, elapsed: 0.003359079360961914
ell 70, elapsed: 0.0033178329467773438
ell 69, elapsed: 0.0030641555786132812
ell 68, elapsed: 0.0030889511108398438
ell 62, elapsed: 0.0057790279388427734
ell 61, elapsed: 0.002991914749145508
ell 60, elapsed: 0.0029761791229248047
ell 59, elapsed: 0.0032110214233398438
ell 58, elapsed: 0.0030798912048339844
ell 52, elapsed: 0.005678892135620117
ell 51, elapsed: 0.0033130645751953125
ell 50, elapsed: 0.0032339096069335938
ell 49, elapsed: 0.0032618045806884766
ell 48, elapsed: 0.0031800270080566406
ell 42, elapsed: 0.006006002426147461
ell 41, elapsed: 0.0031659603118896484
ell 40, elapsed: 0.0033309459686279297
ell 39, elapsed: 0.0033559799194335938
ell 38, elapsed: 0.0032129287719726562
ell 32, elapsed: 0.005964040756225586
ell 31, elapsed: 0.003153085708618164
ell 30, elapsed: 0.0032949447631835938
ell 29, elapsed: 0.0033311843872070312
ell 28, elapsed: 0.003304004669189453
ell 22, elapsed: 0.005981922149658203
ell 21, elapsed: 0.0035028457641601562
ell 20, elapsed: 0.0033330917358398438
ell 19, elapsed: 0.003216981887817383
ell 18, elapsed: 0.003393888473510742
ell 12, elapsed: 0.006189107894897461
ell 11, elapsed: 0.0034041404724121094
ell 10, elapsed: 0.003367900848388672
ell 9, elapsed: 0.003462076187133789
ell 8, elapsed: 0.0034399032592773438
  0.721298 seconds (97.44 k allocations: 12.617 MiB)
elapsed: 0.0040018558502197266
step:          0.063309 sec (0 allocations: 0 byte, 0.0% gc time)
swapping:      0.00063 sec (0 allocations: 0 byte, 0.0% gc time)
calc_Mellell!: 0.041774 sec (0 allocations: 0 byte, 0.0% gc time)
  t0 :  0.008521 sec (0 allocations: 0 byte, 0.0% gc time)
  tm2 : 0.071477 sec (0 allocations: 0 byte, 0.0% gc time)
  tm2s: 0.006996 sec (0 allocations: 0 byte, 0.0% gc time)
  tm4 : 0.175987 sec (0 allocations: 0 byte, 0.0% gc time)
  tp2 : 0.0 sec (0 allocations: 0 byte, 0.0% gc time)
  tp2s: 0.0 sec (0 allocations: 0 byte, 0.0% gc time)
  tp4 : 0.0 sec (0 allocations: 0 byte, 0.0% gc time)
calc_wtdll!:   0.501379 sec (48.6 k allocations: 11.096 MB, 0.0% gc time)
calc_wljj!:    0.036928 sec (69 allocations: 1.078 KB, 0.0% gc time)
mult_prefac!:  0.0 sec (0 allocations: 0 byte, 0.0% gc time)
convert:       0.0 sec (0 allocations: 0 byte, 0.0% gc time)
write:         0.032865 sec (0 allocations: 0 byte, 0.0% gc time)
test_rand_2f1: 0.0 sec (0 allocations: 0 byte, 0.0% gc time)
Closing outfile out/MlCache/MlCache.bin...   0.000006 seconds
xi, l=0, nu=0:   0.379357 seconds (603.02 k allocations: 32.975 MiB)
xi, l=0, nu=-2:  0.002956 seconds (114 allocations: 148.969 KiB)
Created 'out/xi.tsv'.
  q=1.1, R=0.6:	  0.982068 seconds (264.51 k allocations: 38.097 MiB)
  q=1.1, R=0.7:	  1.019271 seconds (276.48 k allocations: 40.118 MiB, 1.22% gc time)
  q=1.1, R=0.8:	  0.993571 seconds (271.73 k allocations: 39.310 MiB, 1.02% gc time)
  q=1.1, R=0.9:	  1.131637 seconds (266.62 k allocations: 38.459 MiB, 0.63% gc time)
  q=1.1, R=0.998:	 20.300895 seconds (114.96 k allocations: 7.588 MiB)
  q=1.1, R=1.0:	  0.003931 seconds (8.20 k allocations: 704.344 KiB)

ℓ = 1000
Δℓ = 4
ΔℓRg1 = -4
N = 4096
q = 1.1
kmin = 1.0e-5
kmax = 1000.0
χ0 = 0.001
RR = RR.tsv
ℓmax = ℓmax.bin
f21 = f21.bin
kmin = 1.0e-5
kmax = 1000.0
dlrec    = 4
dlrecRg1 = -4
Output size: 1573632 bytes = 0.0014655590057373047 GiB
Output size: 786816 bytes = 0.0007327795028686523 GiB
Reading 'out/F21EllCache'...   0.001557 seconds (198 allocations: 533.078 KiB)
ellmax: 1002
lmaxcache: 1000
fell[:,1,1] = ComplexF64[1.726292812820208e-224 - 4.2281979352226965e-240im, 1.7282693092099638e-224 - 4.233038955177178e-240im]
ell 1002, elapsed: 3.695487976074219e-5
ell 1001, elapsed: 0.0006740093231201172
ell 1000, elapsed: 0.0006809234619140625
ell 999, elapsed: 0.004908084869384766
ell 998, elapsed: 0.005028963088989258
ell 44, elapsed: 0.7074730396270752
ell 43, elapsed: 0.0055119991302490234
ell 42, elapsed: 0.005589962005615234
ell 41, elapsed: 0.005787849426269531
ell 40, elapsed: 0.005633115768432617
  0.748706 seconds (5.04 k allocations: 329.172 KiB)
elapsed: 0.006078958511352539
step:          0.703395 sec (0 allocations: 0 byte, 0.0% gc time)
swapping:      0.000623 sec (0 allocations: 0 byte, 0.0% gc time)
calc_Mellell!: 0.001188 sec (0 allocations: 0 byte, 0.0% gc time)
  t0 :  0.000431 sec (0 allocations: 0 byte, 0.0% gc time)
  tm2 : 0.009288 sec (0 allocations: 0 byte, 0.0% gc time)
  tm2s: 0.000268 sec (0 allocations: 0 byte, 0.0% gc time)
  tm4 : 0.025943 sec (0 allocations: 0 byte, 0.0% gc time)
  tp2 : 0.0 sec (0 allocations: 0 byte, 0.0% gc time)
  tp2s: 0.0 sec (0 allocations: 0 byte, 0.0% gc time)
  tp4 : 0.0 sec (0 allocations: 0 byte, 0.0% gc time)
calc_wtdll!:   0.036133 sec (480 allocations: 52.5 KB, 0.0% gc time)
calc_wljj!:    0.001563 sec (1 allocations: 16 byte, 0.0% gc time)
mult_prefac!:  0.0 sec (0 allocations: 0 byte, 0.0% gc time)
convert:       0.0 sec (0 allocations: 0 byte, 0.0% gc time)
write:         0.000968 sec (0 allocations: 0 byte, 0.0% gc time)
test_rand_2f1: 0.0 sec (0 allocations: 0 byte, 0.0% gc time)
Closing outfile out/MlCache/MlCache.bin...   0.000012 seconds
  0.498233 seconds (38 allocations: 66.859 KiB)
make_phi():   0.011657 seconds (65 allocations: 275.984 KiB)
  0.048195 seconds (11.42 k allocations: 711.851 KiB)
tskip:       1.0e-6 sec (0 allocations: 0 byte, 0.0% gc time)
tread:       0.000952 sec (17 allocations: 1.266 KB, 0.0% gc time)
tmultphi:    0.00055 sec (0 allocations: 0 byte, 0.0% gc time)
tbrfft:      0.001589 sec (0 allocations: 0 byte, 0.0% gc time)
tmultprefac: 0.000911 sec (0 allocations: 0 byte, 0.0% gc time)
toutfunc:    0.000169 sec (0 allocations: 0 byte, 0.0% gc time)
Created 'out/wl42_jj00.tsv'.
Created 'out/wl42_jj02.tsv'.
    Testing TwoFAST tests passed 
