Julia Version 1.6.0-DEV.1034
Commit b1e1bb3138 (2020-09-24 17:32 UTC)
Platform Info:
  OS: Linux (x86_64-linux-gnu)
  CPU: Intel(R) Xeon(R) Silver 4114 CPU @ 2.20GHz
  WORD_SIZE: 64
  LIBM: libopenlibm
  LLVM: libLLVM-9.0.1 (ORCJIT, skylake-avx512)
Environment:
  JULIA_DEPOT_PATH = ::/usr/local/share/julia
  JULIA_NUM_THREADS = 2

  Resolving package versions...
  Installed Readables ──────────────────── v0.3.3
  Installed MKL_jll ────────────────────── v2020.2.254+0
  Installed AbstractFFTs ───────────────── v0.5.0
  Installed FFTW ───────────────────────── v1.2.4
  Installed SpecialFunctions ───────────── v0.10.3
  Installed BinaryProvider ─────────────── v0.5.10
  Installed GenericSchur ───────────────── v0.4.0
  Installed FFTW_jll ───────────────────── v3.3.9+5
  Installed IntelOpenMP_jll ────────────── v2018.0.3+0
  Installed GenericSVD ─────────────────── v0.3.0
  Installed CompilerSupportLibraries_jll ─ v0.3.3+0
  Installed OpenSpecFun_jll ────────────── v0.5.3+3
  Installed Reexport ───────────────────── v0.2.0
  Installed TwoFAST ────────────────────── v0.1.3
  Installed ArbNumerics ────────────────── v1.2.1
Updating `~/.julia/environments/v1.6/Project.toml`
  [0dd23c3e] + TwoFAST v0.1.3
Updating `~/.julia/environments/v1.6/Manifest.toml`
  [621f4979] + AbstractFFTs v0.5.0
  [7e558dbc] + ArbNumerics v1.2.1
  [b99e7846] + BinaryProvider v0.5.10
  [e66e0078] + CompilerSupportLibraries_jll v0.3.3+0
  [7a1cc6ca] + FFTW v1.2.4
  [f5851436] + FFTW_jll v3.3.9+5
  [01680d73] + GenericSVD v0.3.0
  [c145ed77] + GenericSchur v0.4.0
  [1d5cc7b8] + IntelOpenMP_jll v2018.0.3+0
  [856f044c] + MKL_jll v2020.2.254+0
  [efe28fd5] + OpenSpecFun_jll v0.5.3+3
  [0d4725de] + Readables v0.3.3
  [189a3867] + Reexport v0.2.0
  [276daf66] + SpecialFunctions v0.10.3
  [0dd23c3e] + TwoFAST v0.1.3
  [56f22d72] + Artifacts
  [2a0f44e3] + Base64
  [ade2ca70] + Dates
  [8bb1440f] + DelimitedFiles
  [8ba89e20] + Distributed
  [b77e0a4c] + InteractiveUtils
  [76f85450] + LibGit2
  [8f399da3] + Libdl
  [37e2e46d] + LinearAlgebra
  [56ddb016] + Logging
  [d6f4376e] + Markdown
  [a63ad114] + Mmap
  [44cfe95a] + Pkg
  [de0858da] + Printf
  [3fa0cd96] + REPL
  [9a3f8284] + Random
  [ea8e919c] + SHA
  [9e88b42a] + Serialization
  [6462fe0b] + Sockets
  [fa267f1f] + TOML
  [8dfed614] + Test
  [cf7118a7] + UUIDs
  [4ec0a83e] + Unicode
   Building FFTW ───────→ `~/.julia/packages/FFTW/DMUbN/deps/build.log`
   Building ArbNumerics → `~/.julia/packages/ArbNumerics/joGFm/deps/build.log`
    Testing TwoFAST
Status `/tmp/jl_HgIOsl/Project.toml`
  [7e558dbc] ArbNumerics v1.2.1
  [39dd38d3] Dierckx v0.5.0
  [7a1cc6ca] FFTW v1.2.4
  [276daf66] SpecialFunctions v0.10.3
  [0dd23c3e] TwoFAST v0.1.3
  [8bb1440f] DelimitedFiles
  [37e2e46d] LinearAlgebra
  [56ddb016] Logging
  [8dfed614] Test
Status `/tmp/jl_HgIOsl/Manifest.toml`
  [621f4979] AbstractFFTs v0.5.0
  [7e558dbc] ArbNumerics v1.2.1
  [b99e7846] BinaryProvider v0.5.10
  [e66e0078] CompilerSupportLibraries_jll v0.3.3+0
  [39dd38d3] Dierckx v0.5.0
  [cd4c43a9] Dierckx_jll v0.0.1+0
  [7a1cc6ca] FFTW v1.2.4
  [f5851436] FFTW_jll v3.3.9+5
  [01680d73] GenericSVD v0.3.0
  [c145ed77] GenericSchur v0.4.0
  [1d5cc7b8] IntelOpenMP_jll v2018.0.3+0
  [856f044c] MKL_jll v2020.2.254+0
  [efe28fd5] OpenSpecFun_jll v0.5.3+3
  [0d4725de] Readables v0.3.3
  [189a3867] Reexport v0.2.0
  [276daf66] SpecialFunctions v0.10.3
  [0dd23c3e] TwoFAST v0.1.3
  [56f22d72] Artifacts
  [2a0f44e3] Base64
  [ade2ca70] Dates
  [8bb1440f] DelimitedFiles
  [8ba89e20] Distributed
  [b77e0a4c] InteractiveUtils
  [76f85450] LibGit2
  [8f399da3] Libdl
  [37e2e46d] LinearAlgebra
  [56ddb016] Logging
  [d6f4376e] Markdown
  [a63ad114] Mmap
  [44cfe95a] Pkg
  [de0858da] Printf
  [3fa0cd96] REPL
  [9a3f8284] Random
  [ea8e919c] SHA
  [9e88b42a] Serialization
  [6462fe0b] Sockets
  [fa267f1f] TOML
  [8dfed614] Test
  [cf7118a7] UUIDs
  [4ec0a83e] Unicode
    Testing Running tests...
WARNING: could not import Printf.ini_hex into ArbNumerics
WARNING: could not import Printf.ini_HEX into ArbNumerics
t = 0.0 sec (0 allocations: 0 byte, 0.0% gc time)
typeof(t) = NamedTuple{(:value, :time, :bytes, :gctime, :gcstats), Tuple{DataType, Float64, Int64, Float64, Base.GC_Diff}}
TwoFAST.PerformanceStats.TimedType = Union{NamedTuple{(:value, :time, :bytes, :gctime, :gcstats), Tuple{T, Float64, Int64, Float64, Base.GC_Diff}}, Tuple{Any, Float64, Int64, Float64, Base.GC_Diff}} where T
t = 0.0 sec (0 allocations: 0 byte, 0.0% gc time)
t: 0.0 sec (0 allocations: 0 byte, 0.0% gc time)
Testing ξ(r), ℓ=0, ν=-1 ... passed
Testing ξ(r), ℓ=0, ν=0 ... passed
Testing ξ(r), ℓ=0, ν=1 ... passed
Testing ξ(r), ℓ=0, ν=2 ... passed
Testing ξ(r), ℓ=0, ν=3 ... passed
Testing ξ(r), ℓ=1, ν=0 ... passed
Testing ξ(r), ℓ=1, ν=1 ... passed
Testing ξ(r), ℓ=1, ν=2 ... passed
Testing ξ(r), ℓ=1, ν=3 ... passed
Testing ξ(r), ℓ=2, ν=-1 ... passed
Testing ξ(r), ℓ=2, ν=0 ... passed
Testing ξ(r), ℓ=2, ν=1 ... passed
Testing ξ(r), ℓ=2, ν=2 ... passed
Testing ξ(r), ℓ=2, ν=3 ... passed
Testing ξ(r), ℓ=3, ν=-1 ... passed
Testing ξ(r), ℓ=3, ν=0 ... passed
Testing ξ(r), ℓ=3, ν=1 ... passed
Testing ξ(r), ℓ=3, ν=2 ... passed
Testing ξ(r), ℓ=3, ν=3 ... passed
Testing ξ(r), ℓ=4, ν=-1 ... passed
Testing ξ(r), ℓ=4, ν=0 ... passed
Testing ξ(r), ℓ=4, ν=1 ... passed
Testing ξ(r), ℓ=4, ν=2 ... passed
Testing ξ(r), ℓ=4, ν=3 ... passed
Testing ξ(r) ... passed
Testing ξ′(r) ... passed
Testing ξ″(r) ... passed
Calculating fmax: 
  dlrec    = 4
  dlrecRg1 = -4
  q=1.1, R=1.1:	  4.218338 seconds (842.92 k allocations: 53.890 MiB, 0.72% gc time)

  4.242858 seconds (855.59 k allocations: 54.680 MiB, 0.72% gc time)
ℓ = 1202
Δℓ = 4
ΔℓRg1 = -4
N = 1600
q = 1.1
kmin = 1.0e-5
kmax = 100000.00000000004
χ0 = 0.023029999999999995
RR = RR.tsv
ℓmax = ℓmax.bin
f21 = f21.bin
kmin = 1.0e-5
kmax = 100000.0
dlrec    = 4
dlrecRg1 = -4
Output size: 5741568 bytes = 0.005347251892089844 GiB
Output size: 51264 bytes = 4.774332046508789e-5 GiB
Reading 'out/F21EllCache'...   0.721594 seconds (395.13 k allocations: 23.197 MiB, 8.85% gc time)
ellmax: 1202
lmaxcache: 1202
fell[:,1,1] = ComplexF64[3.9583795592771634e-52 - 9.695233714158177e-68im, 3.990121772925759e-52 - 9.772979714843386e-68im]
ell 1202, elapsed: 4.100799560546875e-5
ell 1201, elapsed: 1.3390910625457764
ell 1200, elapsed: 0.0007081031799316406
ell 1199, elapsed: 0.0006020069122314453
ell 1198, elapsed: 0.0006117820739746094
ell 1002, elapsed: 0.011661052703857422
ell 1001, elapsed: 0.0005829334259033203
ell 1000, elapsed: 0.0005669593811035156
ell 999, elapsed: 0.0005681514739990234
ell 998, elapsed: 0.0005691051483154297
ell 902, elapsed: 0.006324052810668945
ell 901, elapsed: 0.0004990100860595703
ell 900, elapsed: 0.0004839897155761719
ell 899, elapsed: 0.0004849433898925781
ell 898, elapsed: 0.0004830360412597656
ell 802, elapsed: 0.006339073181152344
ell 801, elapsed: 0.0005819797515869141
ell 800, elapsed: 0.0005738735198974609
ell 799, elapsed: 0.0005650520324707031
ell 798, elapsed: 0.0006561279296875
ell 702, elapsed: 0.0063629150390625
ell 701, elapsed: 0.0005779266357421875
ell 700, elapsed: 0.0005679130554199219
ell 699, elapsed: 0.0005919933319091797
ell 698, elapsed: 0.0005688667297363281
ell 602, elapsed: 0.0062978267669677734
ell 601, elapsed: 0.0005960464477539062
ell 600, elapsed: 0.0006079673767089844
ell 599, elapsed: 0.0005719661712646484
ell 598, elapsed: 0.0006139278411865234
ell 502, elapsed: 0.006334066390991211
ell 501, elapsed: 0.00055694580078125
ell 500, elapsed: 0.0005030632019042969
ell 499, elapsed: 0.0005998611450195312
ell 498, elapsed: 0.0005750656127929688
ell 402, elapsed: 0.005741119384765625
ell 401, elapsed: 0.0004971027374267578
ell 400, elapsed: 0.0005278587341308594
ell 399, elapsed: 0.0004940032958984375
ell 398, elapsed: 0.0004889965057373047
ell 302, elapsed: 0.0062329769134521484
ell 301, elapsed: 0.0006639957427978516
ell 300, elapsed: 0.0005741119384765625
ell 299, elapsed: 0.0005719661712646484
ell 298, elapsed: 0.0005741119384765625
ell 202, elapsed: 0.006495952606201172
ell 201, elapsed: 0.0006029605865478516
ell 200, elapsed: 0.0005879402160644531
ell 199, elapsed: 0.0005910396575927734
ell 198, elapsed: 0.0005888938903808594
ell 152, elapsed: 0.0034799575805664062
ell 151, elapsed: 0.0005731582641601562
ell 150, elapsed: 0.0006468296051025391
ell 149, elapsed: 0.0005669593811035156
ell 148, elapsed: 0.0005681514739990234
ell 127, elapsed: 0.001834869384765625
ell 126, elapsed: 0.0005710124969482422
ell 125, elapsed: 0.0005698204040527344
ell 124, elapsed: 0.0005660057067871094
ell 123, elapsed: 0.0005669593811035156
ell 114, elapsed: 0.0011229515075683594
ell 113, elapsed: 0.0005679130554199219
ell 112, elapsed: 0.0006430149078369141
ell 111, elapsed: 0.0005679130554199219
ell 110, elapsed: 0.0005669593811035156
ell 102, elapsed: 0.0010569095611572266
ell 101, elapsed: 0.0005669593811035156
ell 100, elapsed: 0.0005688667297363281
ell 99, elapsed: 0.0007619857788085938
ell 98, elapsed: 0.0005910396575927734
ell 97, elapsed: 0.0006430149078369141
ell 96, elapsed: 0.0006289482116699219
ell 95, elapsed: 0.0006341934204101562
ell 94, elapsed: 0.0007300376892089844
ell 93, elapsed: 0.000720977783203125
ell 92, elapsed: 0.0006549358367919922
ell 91, elapsed: 0.0006289482116699219
ell 90, elapsed: 0.0006320476531982422
ell 89, elapsed: 0.0006330013275146484
ell 88, elapsed: 0.0007009506225585938
ell 87, elapsed: 0.0006270408630371094
ell 86, elapsed: 0.0006310939788818359
ell 85, elapsed: 0.0006511211395263672
ell 84, elapsed: 0.0007219314575195312
ell 83, elapsed: 0.0006539821624755859
ell 82, elapsed: 0.00074005126953125
ell 81, elapsed: 0.0006761550903320312
ell 80, elapsed: 0.0006310939788818359
ell 79, elapsed: 0.0006871223449707031
ell 78, elapsed: 0.0006728172302246094
ell 77, elapsed: 0.0007569789886474609
ell 76, elapsed: 0.0007021427154541016
ell 75, elapsed: 0.0006589889526367188
ell 74, elapsed: 0.0006651878356933594
ell 73, elapsed: 0.0006570816040039062
ell 72, elapsed: 0.0006589889526367188
ell 71, elapsed: 0.0007691383361816406
ell 70, elapsed: 0.0007469654083251953
ell 69, elapsed: 0.0007469654083251953
ell 68, elapsed: 0.0007419586181640625
ell 67, elapsed: 0.0007388591766357422
ell 66, elapsed: 0.0008320808410644531
ell 65, elapsed: 0.00074005126953125
ell 64, elapsed: 0.0007491111755371094
ell 63, elapsed: 0.00074005126953125
ell 62, elapsed: 0.0008180141448974609
ell 61, elapsed: 0.0007238388061523438
ell 60, elapsed: 0.0008549690246582031
ell 59, elapsed: 0.0007510185241699219
ell 58, elapsed: 0.0006530284881591797
ell 57, elapsed: 0.0006608963012695312
ell 56, elapsed: 0.0006589889526367188
ell 55, elapsed: 0.0006551742553710938
ell 54, elapsed: 0.0006611347198486328
ell 53, elapsed: 0.0005049705505371094
ell 52, elapsed: 0.00046515464782714844
ell 51, elapsed: 0.0004608631134033203
ell 50, elapsed: 0.0006089210510253906
ell 49, elapsed: 0.0005919933319091797
ell 48, elapsed: 0.0005381107330322266
ell 47, elapsed: 0.0005559921264648438
ell 46, elapsed: 0.0005419254302978516
ell 45, elapsed: 0.0005409717559814453
ell 44, elapsed: 0.0005490779876708984
ell 43, elapsed: 0.0006470680236816406
ell 42, elapsed: 0.0005750656127929688
ell 41, elapsed: 0.0005681514739990234
ell 40, elapsed: 0.0005700588226318359
ell 39, elapsed: 0.0005700588226318359
ell 38, elapsed: 0.0005660057067871094
ell 37, elapsed: 0.0006680488586425781
ell 36, elapsed: 0.0008339881896972656
ell 35, elapsed: 0.0006918907165527344
ell 34, elapsed: 0.0005078315734863281
ell 33, elapsed: 0.0005040168762207031
ell 32, elapsed: 0.0005040168762207031
ell 31, elapsed: 0.0005731582641601562
ell 30, elapsed: 0.0005080699920654297
ell 29, elapsed: 0.0005030632019042969
ell 28, elapsed: 0.0005040168762207031
ell 27, elapsed: 0.0005059242248535156
ell 26, elapsed: 0.0005011558532714844
ell 25, elapsed: 0.0005049705505371094
ell 24, elapsed: 0.0005040168762207031
ell 23, elapsed: 0.0006661415100097656
ell 22, elapsed: 0.0006392002105712891
ell 21, elapsed: 0.0006308555603027344
ell 20, elapsed: 0.0006392002105712891
ell 19, elapsed: 0.0006470680236816406
ell 18, elapsed: 0.0006380081176757812
ell 17, elapsed: 0.0005640983581542969
ell 16, elapsed: 0.0005300045013427734
ell 15, elapsed: 0.000537872314453125
ell 14, elapsed: 0.0005309581756591797
ell 13, elapsed: 0.0005259513854980469
ell 12, elapsed: 0.0005249977111816406
ell 11, elapsed: 0.0005369186401367188
ell 10, elapsed: 0.0005340576171875
ell 9, elapsed: 0.0005218982696533203
ell 8, elapsed: 0.0005059242248535156
ell 7, elapsed: 0.0005340576171875
ell 6, elapsed: 0.0005211830139160156
ell 5, elapsed: 0.0005240440368652344
ell 4, elapsed: 0.0005431175231933594
ell 3, elapsed: 0.0005090236663818359
ell 2, elapsed: 0.0005059242248535156
ell 1, elapsed: 0.0005400180816650391
ell 0, elapsed: 0.0006041526794433594
  2.165564 seconds (1.30 M allocations: 70.965 MiB, 4.22% gc time)
elapsed: 0.0007650852203369141
step:          0.371931 sec (311.142 k allocations: 16.962 MB, 6.16% gc time)
swapping:      0.000506 sec (0 allocations: 0 byte, 0.0% gc time)
calc_Mellell!: 0.159592 sec (135.742 k allocations: 7.433 MB, 0.0% gc time)
  t0 :  0.0 sec (0 allocations: 0 byte, 0.0% gc time)
  tm2 : 0.0 sec (0 allocations: 0 byte, 0.0% gc time)
  tm2s: 0.0 sec (0 allocations: 0 byte, 0.0% gc time)
  tm4 : 0.0 sec (0 allocations: 0 byte, 0.0% gc time)
  tp2 : 0.0 sec (0 allocations: 0 byte, 0.0% gc time)
  tp2s: 0.0 sec (0 allocations: 0 byte, 0.0% gc time)
  tp4 : 0.0 sec (0 allocations: 0 byte, 0.0% gc time)
calc_wtdll!:   0.957286 sec (509.618 k allocations: 28.2 MB, 0.0% gc time)
calc_wljj!:    0.003201 sec (6 allocations: 96 byte, 0.0% gc time)
mult_prefac!:  0.0 sec (0 allocations: 0 byte, 0.0% gc time)
convert:       0.0 sec (0 allocations: 0 byte, 0.0% gc time)
write:         0.003853 sec (0 allocations: 0 byte, 0.0% gc time)
test_rand_2f1: 0.0 sec (0 allocations: 0 byte, 0.0% gc time)
Closing outfile out/Ml21-cache.bin...   0.000007 seconds
  1.276693 seconds (246.27 k allocations: 14.217 MiB)
make_phi():   0.014691 seconds (8.18 k allocations: 237.844 KiB)
  0.296628 seconds (87.57 k allocations: 4.749 MiB)
tskip:       2.7e-5 sec (0 allocations: 0 byte, 0.0% gc time)
tread:       0.003308 sec (17 allocations: 2.125 KB, 0.0% gc time)
tmultphi:    0.063321 sec (21.425 k allocations: 1.287 MB, 0.0% gc time)
tbrfft:      0.006862 sec (0 allocations: 0 byte, 0.0% gc time)
tmultprefac: 0.004819 sec (0 allocations: 0 byte, 0.0% gc time)
toutfunc:    0.171249 sec (64.484 k allocations: 3.33 MB, 0.0% gc time)
Testing R=1.1 ... passed
Calculating fmax: 
  dlrec    = 4
  dlrecRg1 = -4
  q=1.1, R=1.0:	  0.001677 seconds (3.20 k allocations: 275.344 KiB)

  0.001886 seconds (3.35 k allocations: 311.750 KiB)
ℓ = 1202
Δℓ = 4
ΔℓRg1 = -4
N = 1600
q = 1.1
kmin = 1.0e-5
kmax = 100000.00000000004
χ0 = 0.023029999999999995
RR = RR.tsv
ℓmax = ℓmax.bin
f21 = f21.bin
kmin = 1.0e-5
kmax = 100000.0
dlrec    = 4
dlrecRg1 = -4
Output size: 61465536 bytes = 0.05724424123764038 GiB
Output size: 51264 bytes = 4.774332046508789e-5 GiB
Reading 'out/F21EllCache'...   0.001170 seconds (197 allocations: 84.203 KiB)
ellmax: 1202
lmaxcache: 1202
fell[:,1,1] = ComplexF64[809.6031528389767 - 1.9829558194077161e-13im, 0.0 + 0.0im]
ell 1202, elapsed: 3.600120544433594e-5
ell 1201, elapsed: 0.015086889266967773
ell 1200, elapsed: 0.01588892936706543
ell 1199, elapsed: 0.0005168914794921875
ell 1198, elapsed: 0.0004220008850097656
ell 1197, elapsed: 0.0006458759307861328
ell 1196, elapsed: 0.0005090236663818359
ell 1195, elapsed: 0.0004367828369140625
ell 1194, elapsed: 0.0004360675811767578
ell 1193, elapsed: 0.00043201446533203125
ell 1192, elapsed: 0.0004382133483886719
ell 1191, elapsed: 0.0005710124969482422
ell 1190, elapsed: 0.00043320655822753906
ell 1189, elapsed: 0.000431060791015625
ell 1188, elapsed: 0.00043487548828125
ell 1187, elapsed: 0.0004410743713378906
ell 1186, elapsed: 0.00043082237243652344
ell 1185, elapsed: 0.00043392181396484375
ell 1184, elapsed: 0.00043892860412597656
ell 1183, elapsed: 0.002580881118774414
ell 1182, elapsed: 0.00045609474182128906
ell 1181, elapsed: 0.0004401206970214844
ell 1180, elapsed: 0.00045490264892578125
ell 1179, elapsed: 0.0005581378936767578
ell 1178, elapsed: 0.0005450248718261719
ell 1177, elapsed: 0.0004448890686035156
ell 1176, elapsed: 0.00043487548828125
ell 1175, elapsed: 0.00043487548828125
ell 1174, elapsed: 0.0004918575286865234
ell 1173, elapsed: 0.0008580684661865234
ell 1172, elapsed: 0.0004429817199707031
ell 1171, elapsed: 0.0004432201385498047
ell 1170, elapsed: 0.0004401206970214844
ell 1169, elapsed: 0.00042819976806640625
ell 1168, elapsed: 0.0004329681396484375
ell 1167, elapsed: 0.00043892860412597656
ell 1166, elapsed: 0.0004329681396484375
ell 1165, elapsed: 0.0009260177612304688
ell 1164, elapsed: 0.0005688667297363281
ell 1163, elapsed: 0.0004360675811767578
ell 1162, elapsed: 0.0033121109008789062
ell 1161, elapsed: 0.00046896934509277344
ell 1160, elapsed: 0.0004589557647705078
ell 1159, elapsed: 0.0004398822784423828
ell 1158, elapsed: 0.0004401206970214844
ell 1157, elapsed: 0.00044918060302734375
ell 1156, elapsed: 0.0004589557647705078
ell 1155, elapsed: 0.0005860328674316406
ell 1154, elapsed: 0.0005209445953369141
ell 1153, elapsed: 0.0005979537963867188
ell 1152, elapsed: 0.000514984130859375
ell 1151, elapsed: 0.00043487548828125
ell 1150, elapsed: 0.00043892860412597656
ell 1149, elapsed: 0.00386810302734375
ell 1148, elapsed: 0.00047397613525390625
ell 1147, elapsed: 0.000453948974609375
ell 1146, elapsed: 0.0004420280456542969
ell 1145, elapsed: 0.00044918060302734375
ell 1144, elapsed: 0.0004489421844482422
ell 1143, elapsed: 0.0004329681396484375
ell 1142, elapsed: 0.0004420280456542969
ell 1141, elapsed: 0.0004401206970214844
ell 1140, elapsed: 0.00879812240600586
ell 1139, elapsed: 0.0006940364837646484
ell 1138, elapsed: 0.0006859302520751953
ell 1137, elapsed: 0.0006868839263916016
ell 1136, elapsed: 0.0006990432739257812
ell 1135, elapsed: 0.0022869110107421875
ell 1134, elapsed: 0.0004570484161376953
ell 1133, elapsed: 0.0006189346313476562
ell 1132, elapsed: 0.0005509853363037109
ell 1131, elapsed: 0.0004401206970214844
ell 1130, elapsed: 0.00043582916259765625
ell 1129, elapsed: 0.0004439353942871094
ell 1128, elapsed: 0.0004329681396484375
ell 1127, elapsed: 0.00043392181396484375
ell 1126, elapsed: 0.00044918060302734375
ell 1125, elapsed: 0.00043201446533203125
ell 1124, elapsed: 0.0007839202880859375
ell 1123, elapsed: 0.00061798095703125
ell 1122, elapsed: 0.0004870891571044922
ell 1121, elapsed: 0.0004489421844482422
ell 1120, elapsed: 0.0004398822784423828
ell 1119, elapsed: 0.0004429817199707031
ell 1118, elapsed: 0.00043582916259765625
ell 1117, elapsed: 0.0005519390106201172
ell 1116, elapsed: 0.0004451274871826172
ell 1115, elapsed: 0.00044417381286621094
ell 1114, elapsed: 0.00045299530029296875
ell 1113, elapsed: 0.0004420280456542969
ell 1112, elapsed: 0.0004379749298095703
ell 1111, elapsed: 0.00044608116149902344
ell 1110, elapsed: 0.00044083595275878906
ell 1109, elapsed: 0.0005381107330322266
ell 1108, elapsed: 0.00043892860412597656
ell 1107, elapsed: 0.00045108795166015625
ell 1106, elapsed: 0.00043392181396484375
ell 1105, elapsed: 0.0004341602325439453
ell 1104, elapsed: 0.0004360675811767578
ell 1103, elapsed: 0.00043201446533203125
ell 1102, elapsed: 0.0004298686981201172
ell 1101, elapsed: 0.0005319118499755859
ell 1100, elapsed: 0.000701904296875
ell 1099, elapsed: 0.0004601478576660156
ell 1098, elapsed: 0.0006079673767089844
ell 1097, elapsed: 0.0005309581756591797
ell 1096, elapsed: 0.00043487548828125
ell 1095, elapsed: 0.0004420280456542969
ell 1094, elapsed: 0.0007259845733642578
ell 1093, elapsed: 0.0004601478576660156
ell 1092, elapsed: 0.0004341602325439453
ell 1091, elapsed: 0.0004398822784423828
ell 1090, elapsed: 0.00044798851013183594
ell 1089, elapsed: 0.00043392181396484375
ell 1088, elapsed: 0.00043201446533203125
ell 1087, elapsed: 0.0005400180816650391
ell 1086, elapsed: 0.0004329681396484375
ell 1085, elapsed: 0.0004279613494873047
ell 1084, elapsed: 0.0004439353942871094
ell 1083, elapsed: 0.0004279613494873047
ell 1082, elapsed: 0.00043201446533203125
ell 1081, elapsed: 0.000431060791015625
ell 1080, elapsed: 0.0004432201385498047
ell 1079, elapsed: 0.0005428791046142578
ell 1078, elapsed: 0.00045013427734375
ell 1077, elapsed: 0.0005140304565429688
ell 1076, elapsed: 0.0006041526794433594
ell 1075, elapsed: 0.000431060791015625
ell 1074, elapsed: 0.0004439353942871094
ell 1073, elapsed: 0.00043392181396484375
ell 1072, elapsed: 0.00044417381286621094
ell 1071, elapsed: 0.0006208419799804688
ell 1070, elapsed: 0.0006389617919921875
ell 1069, elapsed: 0.00044798851013183594
ell 1068, elapsed: 0.0004398822784423828
ell 1067, elapsed: 0.00044798851013183594
ell 1066, elapsed: 0.00044417381286621094
ell 1065, elapsed: 0.0005278587341308594
ell 1064, elapsed: 0.0008511543273925781
ell 1063, elapsed: 0.00043392181396484375
ell 1062, elapsed: 0.00043392181396484375
ell 1061, elapsed: 0.0004279613494873047
ell 1060, elapsed: 0.000431060791015625
ell 1059, elapsed: 0.00043702125549316406
ell 1058, elapsed: 0.0004341602325439453
ell 1057, elapsed: 0.0005178451538085938
ell 1056, elapsed: 0.0005471706390380859
ell 1055, elapsed: 0.0005919933319091797
ell 1054, elapsed: 0.0004401206970214844
ell 1053, elapsed: 0.0006339550018310547
ell 1052, elapsed: 0.0005481243133544922
ell 1051, elapsed: 0.0006628036499023438
ell 1050, elapsed: 0.00043702125549316406
ell 1049, elapsed: 0.0004329681396484375
ell 1048, elapsed: 0.000431060791015625
ell 1047, elapsed: 0.0004398822784423828
ell 1046, elapsed: 0.00042700767517089844
ell 1045, elapsed: 0.0004439353942871094
ell 1044, elapsed: 0.0004398822784423828
ell 1043, elapsed: 0.0004360675811767578
ell 1042, elapsed: 0.0004520416259765625
ell 1041, elapsed: 0.00044798851013183594
ell 1040, elapsed: 0.00045299530029296875
ell 1039, elapsed: 0.0004429817199707031
ell 1038, elapsed: 0.00043892860412597656
ell 1037, elapsed: 0.0004398822784423828
ell 1036, elapsed: 0.00043702125549316406
ell 1035, elapsed: 0.0004420280456542969
ell 1034, elapsed: 0.0004429817199707031
ell 1033, elapsed: 0.00043582916259765625
ell 1032, elapsed: 0.00043487548828125
ell 1031, elapsed: 0.00043702125549316406
ell 1030, elapsed: 0.0006508827209472656
ell 1029, elapsed: 0.0004699230194091797
ell 1028, elapsed: 0.00043702125549316406
ell 1027, elapsed: 0.0009338855743408203
ell 1026, elapsed: 0.000431060791015625
ell 1025, elapsed: 0.0004470348358154297
ell 1024, elapsed: 0.0004482269287109375
ell 1023, elapsed: 0.0004379749298095703
ell 1022, elapsed: 0.00044417381286621094
ell 1021, elapsed: 0.0004410743713378906
ell 1020, elapsed: 0.003423929214477539
ell 1019, elapsed: 0.0004520416259765625
ell 1018, elapsed: 0.0004589557647705078
ell 1017, elapsed: 0.00044417381286621094
ell 1016, elapsed: 0.0004420280456542969
ell 1015, elapsed: 0.00044083595275878906
ell 1014, elapsed: 0.0004391670227050781
ell 1013, elapsed: 0.0004341602325439453
ell 1012, elapsed: 0.0004410743713378906
ell 1011, elapsed: 0.00043082237243652344
ell 1010, elapsed: 0.0005738735198974609
ell 1009, elapsed: 0.0004458427429199219
ell 1008, elapsed: 0.0004401206970214844
ell 1007, elapsed: 0.00043487548828125
ell 1006, elapsed: 0.00043487548828125
ell 1005, elapsed: 0.0004360675811767578
ell 1004, elapsed: 0.0004291534423828125
ell 1003, elapsed: 0.0004429817199707031
ell 1002, elapsed: 0.0005481243133544922
ell 1001, elapsed: 0.0004341602325439453
ell 1000, elapsed: 0.0004410743713378906
ell 999, elapsed: 0.0004360675811767578
ell 998, elapsed: 0.00043702125549316406
ell 997, elapsed: 0.0004379749298095703
ell 996, elapsed: 0.0004401206970214844
ell 995, elapsed: 0.00044798851013183594
ell 994, elapsed: 0.00055694580078125
ell 993, elapsed: 0.0004639625549316406
ell 992, elapsed: 0.0004417896270751953
ell 991, elapsed: 0.0005121231079101562
ell 990, elapsed: 0.0005910396575927734
ell 989, elapsed: 0.0004401206970214844
ell 988, elapsed: 0.0004429817199707031
ell 987, elapsed: 0.0006079673767089844
ell 986, elapsed: 0.0006051063537597656
ell 985, elapsed: 0.0004448890686035156
ell 984, elapsed: 0.00043511390686035156
ell 983, elapsed: 0.0004439353942871094
ell 982, elapsed: 0.0004429817199707031
ell 981, elapsed: 0.0005109310150146484
ell 980, elapsed: 0.0006878376007080078
ell 979, elapsed: 0.0004451274871826172
ell 978, elapsed: 0.0004410743713378906
ell 977, elapsed: 0.0004379749298095703
ell 976, elapsed: 0.0004391670227050781
ell 975, elapsed: 0.0004429817199707031
ell 974, elapsed: 0.0006210803985595703
ell 973, elapsed: 0.0006091594696044922
ell 972, elapsed: 0.0004360675811767578
ell 971, elapsed: 0.0004448890686035156
ell 970, elapsed: 0.00044083595275878906
ell 969, elapsed: 0.00043511390686035156
ell 968, elapsed: 0.0004379749298095703
ell 967, elapsed: 0.0004341602325439453
ell 966, elapsed: 0.0004398822784423828
ell 965, elapsed: 0.0007109642028808594
ell 964, elapsed: 0.0006761550903320312
ell 963, elapsed: 0.0006878376007080078
ell 962, elapsed: 0.0006809234619140625
ell 961, elapsed: 0.0006699562072753906
ell 960, elapsed: 0.0008339881896972656
ell 959, elapsed: 0.0006768703460693359
ell 958, elapsed: 0.0006721019744873047
ell 957, elapsed: 0.0006809234619140625
ell 956, elapsed: 0.0006771087646484375
ell 955, elapsed: 0.0008749961853027344
ell 954, elapsed: 0.0006809234619140625
ell 953, elapsed: 0.0006721019744873047
ell 952, elapsed: 0.000659942626953125
ell 951, elapsed: 0.0006520748138427734
ell 950, elapsed: 0.0006618499755859375
ell 949, elapsed: 0.0006721019744873047
ell 948, elapsed: 0.0006670951843261719
ell 947, elapsed: 0.000659942626953125
ell 946, elapsed: 0.0006721019744873047
ell 945, elapsed: 0.0006630420684814453
ell 944, elapsed: 0.0008130073547363281
ell 943, elapsed: 0.0006721019744873047
ell 942, elapsed: 0.0007939338684082031
ell 941, elapsed: 0.0006759166717529297
ell 940, elapsed: 0.0006699562072753906
ell 939, elapsed: 0.0006880760192871094
ell 938, elapsed: 0.0006921291351318359
ell 937, elapsed: 0.0006718635559082031
ell 936, elapsed: 0.0009021759033203125
ell 935, elapsed: 0.0006818771362304688
ell 934, elapsed: 0.0006990432739257812
ell 933, elapsed: 0.0006861686706542969
ell 932, elapsed: 0.0006680488586425781
ell 931, elapsed: 0.0006849765777587891
ell 930, elapsed: 0.0006749629974365234
ell 929, elapsed: 0.0028531551361083984
ell 928, elapsed: 0.0006749629974365234
ell 927, elapsed: 0.0006859302520751953
ell 926, elapsed: 0.0006690025329589844
ell 925, elapsed: 0.0006837844848632812
ell 924, elapsed: 0.0006740093231201172
ell 923, elapsed: 0.0006859302520751953
ell 922, elapsed: 0.0006711483001708984
ell 921, elapsed: 0.0008580684661865234
ell 920, elapsed: 0.0005750656127929688
ell 919, elapsed: 0.0005459785461425781
ell 918, elapsed: 0.0006649494171142578
ell 917, elapsed: 0.0006661415100097656
ell 916, elapsed: 0.0008778572082519531
ell 915, elapsed: 0.0006659030914306641
ell 914, elapsed: 0.0006661415100097656
ell 913, elapsed: 0.0006659030914306641
ell 912, elapsed: 0.0006611347198486328
ell 911, elapsed: 0.0006930828094482422
ell 910, elapsed: 0.0006661415100097656
ell 909, elapsed: 0.0006740093231201172
ell 908, elapsed: 0.0006759166717529297
ell 907, elapsed: 0.0006761550903320312
ell 906, elapsed: 0.0005609989166259766
ell 905, elapsed: 0.0006570816040039062
ell 904, elapsed: 0.0007359981536865234
ell 903, elapsed: 0.0007288455963134766
ell 902, elapsed: 0.0007300376892089844
ell 901, elapsed: 0.0007278919219970703
ell 900, elapsed: 0.0008008480072021484
ell 899, elapsed: 0.0005071163177490234
ell 898, elapsed: 0.0006029605865478516
ell 897, elapsed: 0.0006771087646484375
ell 896, elapsed: 0.0005660057067871094
ell 895, elapsed: 0.0006091594696044922
ell 894, elapsed: 0.0008368492126464844
ell 893, elapsed: 0.0007369518280029297
ell 892, elapsed: 0.0007300376892089844
ell 891, elapsed: 0.0007231235504150391
ell 890, elapsed: 0.00084686279296875
ell 889, elapsed: 0.0007388591766357422
ell 888, elapsed: 0.0007112026214599609
ell 887, elapsed: 0.0007259845733642578
ell 886, elapsed: 0.0006949901580810547
ell 885, elapsed: 0.0008511543273925781
ell 884, elapsed: 0.0007309913635253906
ell 883, elapsed: 0.0007240772247314453
ell 882, elapsed: 0.0007250308990478516
ell 881, elapsed: 0.0007240772247314453
ell 880, elapsed: 0.0008199214935302734
ell 879, elapsed: 0.0007338523864746094
ell 878, elapsed: 0.0007178783416748047
ell 877, elapsed: 0.0007359981536865234
ell 876, elapsed: 0.0007281303405761719
ell 875, elapsed: 0.0008320808410644531
ell 874, elapsed: 0.0007100105285644531
ell 873, elapsed: 0.000720977783203125
ell 872, elapsed: 0.0007290840148925781
ell 871, elapsed: 0.0007300376892089844
ell 870, elapsed: 0.0008339881896972656
ell 869, elapsed: 0.0006990432739257812
ell 868, elapsed: 0.0007200241088867188
ell 867, elapsed: 0.0007309913635253906
ell 866, elapsed: 0.0007200241088867188
ell 865, elapsed: 0.0007390975952148438
ell 864, elapsed: 0.0007150173187255859
ell 863, elapsed: 0.0007240772247314453
ell 862, elapsed: 0.0007278919219970703
ell 861, elapsed: 0.0008289813995361328
ell 860, elapsed: 0.0007541179656982422
ell 859, elapsed: 0.0007250308990478516
ell 858, elapsed: 0.0007159709930419922
ell 857, elapsed: 0.0007250308990478516
ell 856, elapsed: 0.0008258819580078125
ell 855, elapsed: 0.00074005126953125
ell 854, elapsed: 0.000720977783203125
ell 853, elapsed: 0.0007259845733642578
ell 852, elapsed: 0.0007309913635253906
ell 851, elapsed: 0.0008628368377685547
ell 850, elapsed: 0.0007388591766357422
ell 849, elapsed: 0.000720977783203125
ell 848, elapsed: 0.0007200241088867188
ell 847, elapsed: 0.0007269382476806641
ell 846, elapsed: 0.0008418560028076172
ell 845, elapsed: 0.0007369518280029297
ell 844, elapsed: 0.0007159709930419922
ell 843, elapsed: 0.0007369518280029297
ell 842, elapsed: 0.0007240772247314453
ell 841, elapsed: 0.0008378028869628906
ell 840, elapsed: 0.0007309913635253906
ell 839, elapsed: 0.0007250308990478516
ell 838, elapsed: 0.0007231235504150391
ell 837, elapsed: 0.0007228851318359375
ell 836, elapsed: 0.0007390975952148438
ell 835, elapsed: 0.0007290840148925781
ell 834, elapsed: 0.0007219314575195312
ell 833, elapsed: 0.0007300376892089844
ell 832, elapsed: 0.0008389949798583984
ell 831, elapsed: 0.0007228851318359375
ell 830, elapsed: 0.0007338523864746094
ell 829, elapsed: 0.0007212162017822266
ell 828, elapsed: 0.0007269382476806641
ell 827, elapsed: 0.0008378028869628906
ell 826, elapsed: 0.0007150173187255859
ell 825, elapsed: 0.0007269382476806641
ell 824, elapsed: 0.0007231235504150391
ell 823, elapsed: 0.0007309913635253906
ell 822, elapsed: 0.0008330345153808594
ell 821, elapsed: 0.0007030963897705078
ell 820, elapsed: 0.0007300376892089844
ell 819, elapsed: 0.0006859302520751953
ell 818, elapsed: 0.0007371902465820312
ell 817, elapsed: 0.0008540153503417969
ell 816, elapsed: 0.0007150173187255859
ell 815, elapsed: 0.0007238388061523438
ell 814, elapsed: 0.0007240772247314453
ell 813, elapsed: 0.0007288455963134766
ell 812, elapsed: 0.0008449554443359375
ell 811, elapsed: 0.0007300376892089844
ell 810, elapsed: 0.0007228851318359375
ell 809, elapsed: 0.0007200241088867188
ell 808, elapsed: 0.0008361339569091797
ell 807, elapsed: 0.0007309913635253906
ell 806, elapsed: 0.0007328987121582031
ell 805, elapsed: 0.0007250308990478516
ell 804, elapsed: 0.0007231235504150391
ell 803, elapsed: 0.0008490085601806641
ell 802, elapsed: 0.000720977783203125
ell 801, elapsed: 0.0007350444793701172
ell 800, elapsed: 0.0007238388061523438
ell 799, elapsed: 0.0007300376892089844
ell 798, elapsed: 0.0008509159088134766
ell 797, elapsed: 0.0007390975952148438
ell 796, elapsed: 0.0007278919219970703
ell 795, elapsed: 0.0007309913635253906
ell 794, elapsed: 0.0007259845733642578
ell 793, elapsed: 0.0007619857788085938
ell 792, elapsed: 0.0007331371307373047
ell 791, elapsed: 0.0007441043853759766
ell 790, elapsed: 0.0007271766662597656
ell 789, elapsed: 0.0007290840148925781
ell 788, elapsed: 0.0008380413055419922
ell 787, elapsed: 0.0007297992706298828
ell 786, elapsed: 0.0007259845733642578
ell 785, elapsed: 0.0007231235504150391
ell 784, elapsed: 0.0007238388061523438
ell 783, elapsed: 0.0007309913635253906
ell 782, elapsed: 0.0007212162017822266
ell 781, elapsed: 0.0007281303405761719
ell 780, elapsed: 0.0007200241088867188
ell 779, elapsed: 0.0007410049438476562
ell 778, elapsed: 0.0007328987121582031
ell 777, elapsed: 0.0007281303405761719
ell 776, elapsed: 0.0007269382476806641
ell 775, elapsed: 0.0007221698760986328
ell 774, elapsed: 0.0007469654083251953
ell 773, elapsed: 0.0007309913635253906
ell 772, elapsed: 0.0007259845733642578
ell 771, elapsed: 0.0007140636444091797
ell 770, elapsed: 0.0006871223449707031
ell 769, elapsed: 0.00045609474182128906
ell 768, elapsed: 0.0004589557647705078
ell 767, elapsed: 0.0004470348358154297
ell 766, elapsed: 0.0004470348358154297
ell 765, elapsed: 0.0004458427429199219
ell 764, elapsed: 0.0004508495330810547
ell 763, elapsed: 0.00045490264892578125
ell 762, elapsed: 0.0004467964172363281
ell 761, elapsed: 0.0004489421844482422
ell 760, elapsed: 0.0046460628509521484
ell 759, elapsed: 0.0005519390106201172
ell 758, elapsed: 0.00046706199645996094
ell 757, elapsed: 0.0004558563232421875
ell 756, elapsed: 0.00045609474182128906
ell 755, elapsed: 0.00045013427734375
ell 754, elapsed: 0.0004520416259765625
ell 753, elapsed: 0.0004889965057373047
ell 752, elapsed: 0.0004589557647705078
ell 751, elapsed: 0.0004489421844482422
ell 750, elapsed: 0.0004551410675048828
ell 749, elapsed: 0.0004551410675048828
ell 748, elapsed: 0.0004489421844482422
ell 747, elapsed: 0.0004630088806152344
ell 746, elapsed: 0.00044608116149902344
ell 745, elapsed: 0.00047278404235839844
ell 744, elapsed: 0.00045800209045410156
ell 743, elapsed: 0.00044798851013183594
ell 742, elapsed: 0.00045990943908691406
ell 741, elapsed: 0.00044608116149902344
ell 740, elapsed: 0.0006089210510253906
ell 739, elapsed: 0.00051116943359375
ell 738, elapsed: 0.0006539821624755859
ell 737, elapsed: 0.0004940032958984375
ell 736, elapsed: 0.0005469322204589844
ell 735, elapsed: 0.0006079673767089844
ell 734, elapsed: 0.0004520416259765625
ell 733, elapsed: 0.0006542205810546875
ell 732, elapsed: 0.0004961490631103516
ell 731, elapsed: 0.0004649162292480469
ell 730, elapsed: 0.0006089210510253906
ell 729, elapsed: 0.0005390644073486328
ell 728, elapsed: 0.0006461143493652344
ell 727, elapsed: 0.0004990100860595703
ell 726, elapsed: 0.0005950927734375
ell 725, elapsed: 0.0005660057067871094
ell 724, elapsed: 0.0004489421844482422
ell 723, elapsed: 0.0004451274871826172
ell 722, elapsed: 0.0006070137023925781
ell 721, elapsed: 0.0005669593811035156
ell 720, elapsed: 0.0004429817199707031
ell 719, elapsed: 0.0006020069122314453
ell 718, elapsed: 0.0005500316619873047
ell 717, elapsed: 0.0006439685821533203
ell 716, elapsed: 0.0005521774291992188
ell 715, elapsed: 0.0006618499755859375
ell 714, elapsed: 0.0006029605865478516
ell 713, elapsed: 0.0005571842193603516
ell 712, elapsed: 0.00047898292541503906
ell 711, elapsed: 0.0004470348358154297
ell 710, elapsed: 0.0005371570587158203
ell 709, elapsed: 0.0005991458892822266
ell 708, elapsed: 0.0005669593811035156
ell 707, elapsed: 0.0005810260772705078
ell 706, elapsed: 0.0004451274871826172
ell 705, elapsed: 0.0006661415100097656
ell 704, elapsed: 0.0005488395690917969
ell 703, elapsed: 0.00044989585876464844
ell 702, elapsed: 0.0004620552062988281
ell 701, elapsed: 0.00044083595275878906
ell 700, elapsed: 0.0004451274871826172
ell 699, elapsed: 0.0004432201385498047
ell 698, elapsed: 0.0006699562072753906
ell 697, elapsed: 0.0006029605865478516
ell 696, elapsed: 0.0007328987121582031
ell 695, elapsed: 0.0007350444793701172
ell 694, elapsed: 0.0007112026214599609
ell 693, elapsed: 0.00048804283142089844
ell 692, elapsed: 0.00045990943908691406
ell 691, elapsed: 0.0004439353942871094
ell 690, elapsed: 0.0004470348358154297
ell 689, elapsed: 0.0004410743713378906
ell 688, elapsed: 0.0004458427429199219
ell 687, elapsed: 0.0006170272827148438
ell 686, elapsed: 0.0005300045013427734
ell 685, elapsed: 0.0004658699035644531
ell 684, elapsed: 0.00045108795166015625
ell 683, elapsed: 0.0005822181701660156
ell 682, elapsed: 0.0005340576171875
ell 681, elapsed: 0.0005741119384765625
ell 680, elapsed: 0.0006091594696044922
ell 679, elapsed: 0.0006191730499267578
ell 678, elapsed: 0.0017850399017333984
ell 677, elapsed: 0.0006852149963378906
ell 676, elapsed: 0.0006780624389648438
ell 675, elapsed: 0.0006730556488037109
ell 674, elapsed: 0.0006799697875976562
ell 673, elapsed: 0.0005919933319091797
ell 672, elapsed: 0.0006089210510253906
ell 671, elapsed: 0.0006740093231201172
ell 670, elapsed: 0.0006389617919921875
ell 669, elapsed: 0.0007908344268798828
ell 668, elapsed: 0.0006339550018310547
ell 667, elapsed: 0.0004649162292480469
ell 666, elapsed: 0.0006129741668701172
ell 665, elapsed: 0.0005872249603271484
ell 664, elapsed: 0.0006709098815917969
ell 663, elapsed: 0.0006139278411865234
ell 662, elapsed: 0.0004379749298095703
ell 661, elapsed: 0.0004429817199707031
ell 660, elapsed: 0.0006148815155029297
ell 659, elapsed: 0.0006041526794433594
ell 658, elapsed: 0.0006160736083984375
ell 657, elapsed: 0.0004451274871826172
ell 656, elapsed: 0.0004589557647705078
ell 655, elapsed: 0.0004360675811767578
ell 654, elapsed: 0.00043892860412597656
ell 653, elapsed: 0.0004570484161376953
ell 652, elapsed: 0.0004467964172363281
ell 651, elapsed: 0.0004410743713378906
ell 650, elapsed: 0.0004391670227050781
ell 649, elapsed: 0.0006289482116699219
ell 648, elapsed: 0.0005309581756591797
ell 647, elapsed: 0.0004360675811767578
ell 646, elapsed: 0.00042891502380371094
ell 645, elapsed: 0.00042700767517089844
ell 644, elapsed: 0.00041985511779785156
ell 643, elapsed: 0.0005238056182861328
ell 642, elapsed: 0.0006160736083984375
ell 641, elapsed: 0.000457763671875
ell 640, elapsed: 0.0006051063537597656
ell 639, elapsed: 0.0005390644073486328
ell 638, elapsed: 0.000576019287109375
ell 637, elapsed: 0.0005419254302978516
ell 636, elapsed: 0.00043702125549316406
ell 635, elapsed: 0.0004379749298095703
ell 634, elapsed: 0.000476837158203125
ell 633, elapsed: 0.0005919933319091797
ell 632, elapsed: 0.0005419254302978516
ell 631, elapsed: 0.00043511390686035156
ell 630, elapsed: 0.0004489421844482422
ell 629, elapsed: 0.000431060791015625
ell 628, elapsed: 0.00043511390686035156
ell 627, elapsed: 0.00047898292541503906
ell 626, elapsed: 0.0005500316619873047
ell 625, elapsed: 0.0005738735198974609
ell 624, elapsed: 0.0006039142608642578
ell 623, elapsed: 0.0005729198455810547
ell 622, elapsed: 0.0005559921264648438
ell 621, elapsed: 0.0005819797515869141
ell 620, elapsed: 0.0004601478576660156
ell 619, elapsed: 0.0004401206970214844
ell 618, elapsed: 0.0004470348358154297
ell 617, elapsed: 0.0006678104400634766
ell 616, elapsed: 0.0005598068237304688
ell 615, elapsed: 0.00045299530029296875
ell 614, elapsed: 0.00043702125549316406
ell 613, elapsed: 0.0006330013275146484
ell 612, elapsed: 0.0006659030914306641
ell 611, elapsed: 0.0006887912750244141
ell 610, elapsed: 0.0006799697875976562
ell 609, elapsed: 0.0005409717559814453
ell 608, elapsed: 0.0007138252258300781
ell 607, elapsed: 0.0004601478576660156
ell 606, elapsed: 0.00042510032653808594
ell 605, elapsed: 0.00043082237243652344
ell 604, elapsed: 0.0004229545593261719
ell 603, elapsed: 0.0004360675811767578
ell 602, elapsed: 0.00043487548828125
ell 601, elapsed: 0.0004470348358154297
ell 600, elapsed: 0.0006530284881591797
ell 599, elapsed: 0.0005600452423095703
ell 598, elapsed: 0.0004429817199707031
ell 597, elapsed: 0.0005240440368652344
ell 596, elapsed: 0.0005650520324707031
ell 595, elapsed: 0.00043392181396484375
ell 594, elapsed: 0.00043201446533203125
ell 593, elapsed: 0.0005388259887695312
ell 592, elapsed: 0.0004379749298095703
ell 591, elapsed: 0.0006368160247802734
ell 590, elapsed: 0.0005919933319091797
ell 589, elapsed: 0.0004382133483886719
ell 588, elapsed: 0.0004999637603759766
ell 587, elapsed: 0.0006058216094970703
ell 586, elapsed: 0.00043392181396484375
ell 585, elapsed: 0.00043702125549316406
ell 584, elapsed: 0.00043702125549316406
ell 583, elapsed: 0.0006051063537597656
ell 582, elapsed: 0.0004818439483642578
ell 581, elapsed: 0.0005359649658203125
ell 580, elapsed: 0.0005581378936767578
ell 579, elapsed: 0.0005309581756591797
ell 578, elapsed: 0.00044918060302734375
ell 577, elapsed: 0.00043702125549316406
ell 576, elapsed: 0.0006351470947265625
ell 575, elapsed: 0.0005819797515869141
ell 574, elapsed: 0.00043702125549316406
ell 573, elapsed: 0.0005128383636474609
ell 572, elapsed: 0.0006029605865478516
ell 571, elapsed: 0.00043511390686035156
ell 570, elapsed: 0.0004291534423828125
ell 569, elapsed: 0.0004279613494873047
ell 568, elapsed: 0.00043892860412597656
ell 567, elapsed: 0.00042700767517089844
ell 566, elapsed: 0.0004298686981201172
ell 565, elapsed: 0.00043201446533203125
ell 564, elapsed: 0.00044417381286621094
ell 563, elapsed: 0.000431060791015625
ell 562, elapsed: 0.0004401206970214844
ell 561, elapsed: 0.0004429817199707031
ell 560, elapsed: 0.0004439353942871094
ell 559, elapsed: 0.00044608116149902344
ell 558, elapsed: 0.0005810260772705078
ell 557, elapsed: 0.0005950927734375
ell 556, elapsed: 0.00043487548828125
ell 555, elapsed: 0.00043392181396484375
ell 554, elapsed: 0.0004508495330810547
ell 553, elapsed: 0.00043892860412597656
ell 552, elapsed: 0.00043892860412597656
ell 551, elapsed: 0.0004429817199707031
ell 550, elapsed: 0.0004839897155761719
ell 549, elapsed: 0.0007419586181640625
ell 548, elapsed: 0.00043487548828125
ell 547, elapsed: 0.00043702125549316406
ell 546, elapsed: 0.0004439353942871094
ell 545, elapsed: 0.0004451274871826172
ell 544, elapsed: 0.0005199909210205078
ell 543, elapsed: 0.0006079673767089844
ell 542, elapsed: 0.0004291534423828125
ell 541, elapsed: 0.0004379749298095703
ell 540, elapsed: 0.0004429817199707031
ell 539, elapsed: 0.0004410743713378906
ell 538, elapsed: 0.00043892860412597656
ell 537, elapsed: 0.00043511390686035156
ell 536, elapsed: 0.0004429817199707031
ell 535, elapsed: 0.0007269382476806641
ell 534, elapsed: 0.00044417381286621094
ell 533, elapsed: 0.00043201446533203125
ell 532, elapsed: 0.00045013427734375
ell 531, elapsed: 0.0005228519439697266
ell 530, elapsed: 0.0005979537963867188
ell 529, elapsed: 0.00044608116149902344
ell 528, elapsed: 0.00045299530029296875
ell 527, elapsed: 0.00043892860412597656
ell 526, elapsed: 0.0005400180816650391
ell 525, elapsed: 0.000576019287109375
ell 524, elapsed: 0.0004470348358154297
ell 523, elapsed: 0.0004329681396484375
ell 522, elapsed: 0.0004360675811767578
ell 521, elapsed: 0.0004260540008544922
ell 520, elapsed: 0.00045990943908691406
ell 519, elapsed: 0.00043892860412597656
ell 518, elapsed: 0.0004918575286865234
ell 517, elapsed: 0.0006911754608154297
ell 516, elapsed: 0.0006299018859863281
ell 515, elapsed: 0.0006830692291259766
ell 514, elapsed: 0.0007190704345703125
ell 513, elapsed: 0.0004780292510986328
ell 512, elapsed: 0.000431060791015625
ell 511, elapsed: 0.0004229545593261719
ell 510, elapsed: 0.0004329681396484375
ell 509, elapsed: 0.0006170272827148438
ell 508, elapsed: 0.0005939006805419922
ell 507, elapsed: 0.0007128715515136719
ell 506, elapsed: 0.0005769729614257812
ell 505, elapsed: 0.0004420280456542969
ell 504, elapsed: 0.0004489421844482422
ell 503, elapsed: 0.0005888938903808594
ell 502, elapsed: 0.0005350112915039062
ell 501, elapsed: 0.0004401206970214844
ell 500, elapsed: 0.00046515464782714844
ell 499, elapsed: 0.0006039142608642578
ell 498, elapsed: 0.000675201416015625
ell 497, elapsed: 0.0006759166717529297
ell 496, elapsed: 0.0006139278411865234
ell 495, elapsed: 0.0005819797515869141
ell 494, elapsed: 0.0006341934204101562
ell 493, elapsed: 0.00043010711669921875
ell 492, elapsed: 0.0006182193756103516
ell 491, elapsed: 0.0006608963012695312
ell 490, elapsed: 0.00061798095703125
ell 489, elapsed: 0.0006821155548095703
ell 488, elapsed: 0.0007028579711914062
ell 487, elapsed: 0.00067901611328125
ell 486, elapsed: 0.0006320476531982422
ell 485, elapsed: 0.0006811618804931641
ell 484, elapsed: 0.0005729198455810547
ell 483, elapsed: 0.0006520748138427734
ell 482, elapsed: 0.0006818771362304688
ell 481, elapsed: 0.0006079673767089844
ell 480, elapsed: 0.0005731582641601562
ell 479, elapsed: 0.0006690025329589844
ell 478, elapsed: 0.0005719661712646484
ell 477, elapsed: 0.0007131099700927734
ell 476, elapsed: 0.0006799697875976562
ell 475, elapsed: 0.0006899833679199219
ell 474, elapsed: 0.0006439685821533203
ell 473, elapsed: 0.0006759166717529297
ell 472, elapsed: 0.0006937980651855469
ell 471, elapsed: 0.0006670951843261719
ell 470, elapsed: 0.0006899833679199219
ell 469, elapsed: 0.0006840229034423828
ell 468, elapsed: 0.0006809234619140625
ell 467, elapsed: 0.0007040500640869141
ell 466, elapsed: 0.0006210803985595703
ell 465, elapsed: 0.0006909370422363281
ell 464, elapsed: 0.0006811618804931641
ell 463, elapsed: 0.0005879402160644531
ell 462, elapsed: 0.0005688667297363281
ell 461, elapsed: 0.0007319450378417969
ell 460, elapsed: 0.0006060600280761719
ell 459, elapsed: 0.0004410743713378906
ell 458, elapsed: 0.0004417896270751953
ell 457, elapsed: 0.0004379749298095703
ell 456, elapsed: 0.0005080699920654297
ell 455, elapsed: 0.0006420612335205078
ell 454, elapsed: 0.0005469322204589844
ell 453, elapsed: 0.0005900859832763672
ell 452, elapsed: 0.00045800209045410156
ell 451, elapsed: 0.0006549358367919922
ell 450, elapsed: 0.0004379749298095703
ell 449, elapsed: 0.0004210472106933594
ell 448, elapsed: 0.0004298686981201172
ell 447, elapsed: 0.0004429817199707031
ell 446, elapsed: 0.0004467964172363281
ell 445, elapsed: 0.0005860328674316406
ell 444, elapsed: 0.0005309581756591797
ell 443, elapsed: 0.0004329681396484375
ell 442, elapsed: 0.0004410743713378906
ell 441, elapsed: 0.00044798851013183594
ell 440, elapsed: 0.000453948974609375
ell 439, elapsed: 0.0004260540008544922
ell 438, elapsed: 0.0004241466522216797
ell 437, elapsed: 0.0004181861877441406
ell 436, elapsed: 0.0004360675811767578
ell 435, elapsed: 0.0004367828369140625
ell 434, elapsed: 0.00043892860412597656
ell 433, elapsed: 0.00043582916259765625
ell 432, elapsed: 0.0004718303680419922
ell 431, elapsed: 0.0004448890686035156
ell 430, elapsed: 0.0005431175231933594
ell 429, elapsed: 0.0006110668182373047
ell 428, elapsed: 0.00043201446533203125
ell 427, elapsed: 0.0004329681396484375
ell 426, elapsed: 0.0005099773406982422
ell 425, elapsed: 0.016728878021240234
ell 424, elapsed: 0.0005950927734375
ell 423, elapsed: 0.0007030963897705078
ell 422, elapsed: 0.0005941390991210938
ell 421, elapsed: 0.0005581378936767578
ell 420, elapsed: 0.0007600784301757812
ell 419, elapsed: 0.000453948974609375
ell 418, elapsed: 0.0004341602325439453
ell 417, elapsed: 0.0004489421844482422
ell 416, elapsed: 0.0004401206970214844
ell 415, elapsed: 0.00043511390686035156
ell 414, elapsed: 0.0004420280456542969
ell 413, elapsed: 0.0004379749298095703
ell 412, elapsed: 0.0004811286926269531
ell 411, elapsed: 0.0006449222564697266
ell 410, elapsed: 0.0004508495330810547
ell 409, elapsed: 0.0004448890686035156
ell 408, elapsed: 0.0004329681396484375
ell 407, elapsed: 0.0004329681396484375
ell 406, elapsed: 0.00043511390686035156
ell 405, elapsed: 0.00043487548828125
ell 404, elapsed: 0.0004658699035644531
ell 403, elapsed: 0.0004439353942871094
ell 402, elapsed: 0.0004360675811767578
ell 401, elapsed: 0.00043892860412597656
ell 400, elapsed: 0.0004439353942871094
ell 399, elapsed: 0.00042891502380371094
ell 398, elapsed: 0.00043201446533203125
ell 397, elapsed: 0.00044608116149902344
ell 396, elapsed: 0.004840850830078125
ell 395, elapsed: 0.0004570484161376953
ell 394, elapsed: 0.00043892860412597656
ell 393, elapsed: 0.00043582916259765625
ell 392, elapsed: 0.0004379749298095703
ell 391, elapsed: 0.0004341602325439453
ell 390, elapsed: 0.00043511390686035156
ell 389, elapsed: 0.00042700767517089844
ell 388, elapsed: 0.0004551410675048828
ell 387, elapsed: 0.00044989585876464844
ell 386, elapsed: 0.0004298686981201172
ell 385, elapsed: 0.0004470348358154297
ell 384, elapsed: 0.0004489421844482422
ell 383, elapsed: 0.0004439353942871094
ell 382, elapsed: 0.0004448890686035156
ell 381, elapsed: 0.0004401206970214844
ell 380, elapsed: 0.00045299530029296875
ell 379, elapsed: 0.0004398822784423828
ell 378, elapsed: 0.00045013427734375
ell 377, elapsed: 0.0004379749298095703
ell 376, elapsed: 0.00043511390686035156
ell 375, elapsed: 0.00044608116149902344
ell 374, elapsed: 0.00045990943908691406
ell 373, elapsed: 0.00046896934509277344
ell 372, elapsed: 0.0004439353942871094
ell 371, elapsed: 0.0004329681396484375
ell 370, elapsed: 0.00044798851013183594
ell 369, elapsed: 0.0006470680236816406
ell 368, elapsed: 0.0004980564117431641
ell 367, elapsed: 0.0006170272827148438
ell 366, elapsed: 0.0004949569702148438
ell 365, elapsed: 0.00044918060302734375
ell 364, elapsed: 0.0004451274871826172
ell 363, elapsed: 0.00044798851013183594
ell 362, elapsed: 0.00044608116149902344
ell 361, elapsed: 0.00043201446533203125
ell 360, elapsed: 0.00043892860412597656
ell 359, elapsed: 0.0004329681396484375
ell 358, elapsed: 0.0006361007690429688
ell 357, elapsed: 0.0005061626434326172
ell 356, elapsed: 0.0004520416259765625
ell 355, elapsed: 0.0004439353942871094
ell 354, elapsed: 0.00043702125549316406
ell 353, elapsed: 0.0004420280456542969
ell 352, elapsed: 0.0006132125854492188
ell 351, elapsed: 0.0005130767822265625
ell 350, elapsed: 0.00045800209045410156
ell 349, elapsed: 0.00044918060302734375
ell 348, elapsed: 0.0004439353942871094
ell 347, elapsed: 0.0004470348358154297
ell 346, elapsed: 0.0004379749298095703
ell 345, elapsed: 0.00043892860412597656
ell 344, elapsed: 0.0004429817199707031
ell 343, elapsed: 0.00046706199645996094
ell 342, elapsed: 0.0005860328674316406
ell 341, elapsed: 0.0005638599395751953
ell 340, elapsed: 0.0005309581756591797
ell 339, elapsed: 0.0007028579711914062
ell 338, elapsed: 0.0006170272827148438
ell 337, elapsed: 0.0007159709930419922
ell 336, elapsed: 0.0006120204925537109
ell 335, elapsed: 0.0005519390106201172
ell 334, elapsed: 0.0006299018859863281
ell 333, elapsed: 0.0004980564117431641
ell 332, elapsed: 0.0004341602325439453
ell 331, elapsed: 0.00044798851013183594
ell 330, elapsed: 0.0004448890686035156
ell 329, elapsed: 0.0004429817199707031
ell 328, elapsed: 0.0005970001220703125
ell 327, elapsed: 0.0005109310150146484
ell 326, elapsed: 0.00043892860412597656
ell 325, elapsed: 0.00043392181396484375
ell 324, elapsed: 0.0004489421844482422
ell 323, elapsed: 0.00045490264892578125
ell 322, elapsed: 0.000637054443359375
ell 321, elapsed: 0.00047397613525390625
ell 320, elapsed: 0.0004930496215820312
ell 319, elapsed: 0.000637054443359375
ell 318, elapsed: 0.00044798851013183594
ell 317, elapsed: 0.00043702125549316406
ell 316, elapsed: 0.00045299530029296875
ell 315, elapsed: 0.0004391670227050781
ell 314, elapsed: 0.00043392181396484375
ell 313, elapsed: 0.0004410743713378906
ell 312, elapsed: 0.0004429817199707031
ell 311, elapsed: 0.0004429817199707031
ell 310, elapsed: 0.00044798851013183594
ell 309, elapsed: 0.00042891502380371094
ell 308, elapsed: 0.0005040168762207031
ell 307, elapsed: 0.0004260540008544922
ell 306, elapsed: 0.0006108283996582031
ell 305, elapsed: 0.0005300045013427734
ell 304, elapsed: 0.00045013427734375
ell 303, elapsed: 0.00042891502380371094
ell 302, elapsed: 0.00043201446533203125
ell 301, elapsed: 0.00043201446533203125
ell 300, elapsed: 0.0004429817199707031
ell 299, elapsed: 0.0004410743713378906
ell 298, elapsed: 0.00043892860412597656
ell 297, elapsed: 0.00043702125549316406
ell 296, elapsed: 0.00044918060302734375
ell 295, elapsed: 0.0004420280456542969
ell 294, elapsed: 0.0004489421844482422
ell 293, elapsed: 0.0005471706390380859
ell 292, elapsed: 0.0004630088806152344
ell 291, elapsed: 0.0004429817199707031
ell 290, elapsed: 0.0004420280456542969
ell 289, elapsed: 0.0004391670227050781
ell 288, elapsed: 0.00044083595275878906
ell 287, elapsed: 0.00044989585876464844
ell 286, elapsed: 0.00044417381286621094
ell 285, elapsed: 0.0005691051483154297
ell 284, elapsed: 0.0004298686981201172
ell 283, elapsed: 0.00043201446533203125
ell 282, elapsed: 0.0005018711090087891
ell 281, elapsed: 0.0006918907165527344
ell 280, elapsed: 0.0006849765777587891
ell 279, elapsed: 0.0008540153503417969
ell 278, elapsed: 0.0006837844848632812
ell 277, elapsed: 0.0006780624389648438
ell 276, elapsed: 0.0006570816040039062
ell 275, elapsed: 0.0006818771362304688
ell 274, elapsed: 0.0006041526794433594
ell 273, elapsed: 0.0007009506225585938
ell 272, elapsed: 0.0005929470062255859
ell 271, elapsed: 0.0004439353942871094
ell 270, elapsed: 0.0004239082336425781
ell 269, elapsed: 0.0004239082336425781
ell 268, elapsed: 0.0004279613494873047
ell 267, elapsed: 0.00045490264892578125
ell 266, elapsed: 0.0005609989166259766
ell 265, elapsed: 0.0004410743713378906
ell 264, elapsed: 0.0004410743713378906
ell 263, elapsed: 0.00043487548828125
ell 262, elapsed: 0.0004470348358154297
ell 261, elapsed: 0.0004341602325439453
ell 260, elapsed: 0.0004398822784423828
ell 259, elapsed: 0.00043511390686035156
ell 258, elapsed: 0.0005540847778320312
ell 257, elapsed: 0.0006229877471923828
ell 256, elapsed: 0.0004889965057373047
ell 255, elapsed: 0.000431060791015625
ell 254, elapsed: 0.0004329681396484375
ell 253, elapsed: 0.000431060791015625
ell 252, elapsed: 0.0005369186401367188
ell 251, elapsed: 0.0005929470062255859
ell 250, elapsed: 0.0004439353942871094
ell 249, elapsed: 0.00043010711669921875
ell 248, elapsed: 0.0004398822784423828
ell 247, elapsed: 0.0004410743713378906
ell 246, elapsed: 0.00044417381286621094
ell 245, elapsed: 0.0004401206970214844
ell 244, elapsed: 0.00041985511779785156
ell 243, elapsed: 0.0004520416259765625
ell 242, elapsed: 0.0004398822784423828
ell 241, elapsed: 0.00043702125549316406
ell 240, elapsed: 0.0004429817199707031
ell 239, elapsed: 0.0004329681396484375
ell 238, elapsed: 0.0005300045013427734
ell 237, elapsed: 0.0005791187286376953
ell 236, elapsed: 0.00043201446533203125
ell 235, elapsed: 0.0005919933319091797
ell 234, elapsed: 0.0005950927734375
ell 233, elapsed: 0.0006000995635986328
ell 232, elapsed: 0.00042510032653808594
ell 231, elapsed: 0.0004260540008544922
ell 230, elapsed: 0.0004241466522216797
ell 229, elapsed: 0.0004298686981201172
ell 228, elapsed: 0.00049591064453125
ell 227, elapsed: 0.0004239082336425781
ell 226, elapsed: 0.0004210472106933594
ell 225, elapsed: 0.0004200935363769531
ell 224, elapsed: 0.0005290508270263672
ell 223, elapsed: 0.000576019287109375
ell 222, elapsed: 0.00043392181396484375
ell 221, elapsed: 0.0006349086761474609
ell 220, elapsed: 0.0005161762237548828
ell 219, elapsed: 0.0004329681396484375
ell 218, elapsed: 0.0004410743713378906
ell 217, elapsed: 0.0005259513854980469
ell 216, elapsed: 0.0006811618804931641
ell 215, elapsed: 0.0005581378936767578
ell 214, elapsed: 0.0004558563232421875
ell 213, elapsed: 0.000453948974609375
ell 212, elapsed: 0.0004341602325439453
ell 211, elapsed: 0.00043892860412597656
ell 210, elapsed: 0.00045299530029296875
ell 209, elapsed: 0.0005519390106201172
ell 208, elapsed: 0.0005509853363037109
ell 207, elapsed: 0.0004458427429199219
ell 206, elapsed: 0.0004448890686035156
ell 205, elapsed: 0.00044083595275878906
ell 204, elapsed: 0.0004329681396484375
ell 203, elapsed: 0.0004451274871826172
ell 202, elapsed: 0.0004329681396484375
ell 201, elapsed: 0.0004439353942871094
ell 200, elapsed: 0.0004291534423828125
ell 199, elapsed: 0.0006668567657470703
ell 198, elapsed: 0.00046896934509277344
ell 197, elapsed: 0.00042700767517089844
ell 196, elapsed: 0.00042891502380371094
ell 195, elapsed: 0.0005869865417480469
ell 194, elapsed: 0.0005300045013427734
ell 193, elapsed: 0.0005788803100585938
ell 192, elapsed: 0.0005929470062255859
ell 191, elapsed: 0.0004439353942871094
ell 190, elapsed: 0.0004451274871826172
ell 189, elapsed: 0.0004379749298095703
ell 188, elapsed: 0.0004448890686035156
ell 187, elapsed: 0.0004999637603759766
ell 186, elapsed: 0.0006709098815917969
ell 185, elapsed: 0.0006301403045654297
ell 184, elapsed: 0.0005359649658203125
ell 183, elapsed: 0.0005688667297363281
ell 182, elapsed: 0.00043201446533203125
ell 181, elapsed: 0.0006129741668701172
ell 180, elapsed: 0.0004971027374267578
ell 179, elapsed: 0.000431060791015625
ell 178, elapsed: 0.00045800209045410156
ell 177, elapsed: 0.0004360675811767578
ell 176, elapsed: 0.00044608116149902344
ell 175, elapsed: 0.0005960464477539062
ell 174, elapsed: 0.0005121231079101562
ell 173, elapsed: 0.0006201267242431641
ell 172, elapsed: 0.0006189346313476562
ell 171, elapsed: 0.0005209445953369141
ell 170, elapsed: 0.0005319118499755859
ell 169, elapsed: 0.0006959438323974609
ell 168, elapsed: 0.0006959438323974609
ell 167, elapsed: 0.0005269050598144531
ell 166, elapsed: 0.00035691261291503906
ell 165, elapsed: 0.0006339550018310547
ell 164, elapsed: 0.0006809234619140625
ell 163, elapsed: 0.0006830692291259766
ell 162, elapsed: 0.00067901611328125
ell 161, elapsed: 0.0006890296936035156
ell 160, elapsed: 0.0006899833679199219
ell 159, elapsed: 0.0005381107330322266
ell 158, elapsed: 0.00033593177795410156
ell 157, elapsed: 0.0003249645233154297
ell 156, elapsed: 0.00032806396484375
ell 155, elapsed: 0.0003230571746826172
ell 154, elapsed: 0.0003418922424316406
ell 153, elapsed: 0.00032401084899902344
ell 152, elapsed: 0.0003209114074707031
ell 151, elapsed: 0.00032901763916015625
ell 150, elapsed: 0.0003211498260498047
ell 149, elapsed: 0.00036597251892089844
ell 148, elapsed: 0.0003218650817871094
ell 147, elapsed: 0.00032401084899902344
ell 146, elapsed: 0.00032711029052734375
ell 145, elapsed: 0.0003228187561035156
ell 144, elapsed: 0.00032591819763183594
ell 143, elapsed: 0.00032401084899902344
ell 142, elapsed: 0.0003211498260498047
ell 141, elapsed: 0.00032806396484375
ell 140, elapsed: 0.0003218650817871094
ell 139, elapsed: 0.00032782554626464844
ell 138, elapsed: 0.0005249977111816406
ell 137, elapsed: 0.0005779266357421875
ell 136, elapsed: 0.0005140304565429688
ell 135, elapsed: 0.0005850791931152344
ell 134, elapsed: 0.0004279613494873047
ell 133, elapsed: 0.0004489421844482422
ell 132, elapsed: 0.0004410743713378906
ell 131, elapsed: 0.0005209445953369141
ell 130, elapsed: 0.0004379749298095703
ell 129, elapsed: 0.0004279613494873047
ell 128, elapsed: 0.00042700767517089844
ell 127, elapsed: 0.00043487548828125
ell 126, elapsed: 0.00043201446533203125
ell 125, elapsed: 0.00043702125549316406
ell 124, elapsed: 0.00044083595275878906
ell 123, elapsed: 0.0005810260772705078
ell 122, elapsed: 0.0006990432739257812
ell 121, elapsed: 0.0005841255187988281
ell 120, elapsed: 0.00044798851013183594
ell 119, elapsed: 0.0004439353942871094
ell 118, elapsed: 0.0004439353942871094
ell 117, elapsed: 0.0004558563232421875
ell 116, elapsed: 0.0005278587341308594
ell 115, elapsed: 0.0006361007690429688
ell 114, elapsed: 0.0005009174346923828
ell 113, elapsed: 0.0004379749298095703
ell 112, elapsed: 0.00045299530029296875
ell 111, elapsed: 0.00043702125549316406
ell 110, elapsed: 0.0004367828369140625
ell 109, elapsed: 0.0005948543548583984
ell 108, elapsed: 0.0007009506225585938
ell 107, elapsed: 0.0006270408630371094
ell 106, elapsed: 0.0004417896270751953
ell 105, elapsed: 0.00045180320739746094
ell 104, elapsed: 0.0005459785461425781
ell 103, elapsed: 0.0005559921264648438
ell 102, elapsed: 0.000637054443359375
ell 101, elapsed: 0.0005190372467041016
ell 100, elapsed: 0.00044989585876464844
ell 99, elapsed: 0.00045490264892578125
ell 98, elapsed: 0.0004470348358154297
ell 97, elapsed: 0.00044608116149902344
ell 96, elapsed: 0.0004248619079589844
ell 95, elapsed: 0.0004570484161376953
ell 94, elapsed: 0.00045418739318847656
ell 93, elapsed: 0.0006589889526367188
ell 92, elapsed: 0.0007128715515136719
ell 91, elapsed: 0.0005049705505371094
ell 90, elapsed: 0.0004470348358154297
ell 89, elapsed: 0.0004401206970214844
ell 88, elapsed: 0.0006740093231201172
ell 87, elapsed: 0.0007009506225585938
ell 86, elapsed: 0.0006890296936035156
ell 85, elapsed: 0.0007050037384033203
ell 84, elapsed: 0.0006849765777587891
ell 83, elapsed: 0.0007429122924804688
ell 82, elapsed: 0.0007050037384033203
ell 81, elapsed: 0.0007100105285644531
ell 80, elapsed: 0.0007140636444091797
ell 79, elapsed: 0.0007109642028808594
ell 78, elapsed: 0.0007181167602539062
ell 77, elapsed: 0.0004780292510986328
ell 76, elapsed: 0.0004239082336425781
ell 75, elapsed: 0.00042891502380371094
ell 74, elapsed: 0.0004169940948486328
ell 73, elapsed: 0.0004420280456542969
ell 72, elapsed: 0.0004668235778808594
ell 71, elapsed: 0.00043702125549316406
ell 70, elapsed: 0.0004699230194091797
ell 69, elapsed: 0.0005900859832763672
ell 68, elapsed: 0.0005960464477539062
ell 67, elapsed: 0.00043702125549316406
ell 66, elapsed: 0.0004398822784423828
ell 65, elapsed: 0.0004360675811767578
ell 64, elapsed: 0.0004451274871826172
ell 63, elapsed: 0.0005218982696533203
ell 62, elapsed: 0.0006999969482421875
ell 61, elapsed: 0.000640869140625
ell 60, elapsed: 0.0004360675811767578
ell 59, elapsed: 0.0004341602325439453
ell 58, elapsed: 0.000514984130859375
ell 57, elapsed: 0.0005998611450195312
ell 56, elapsed: 0.00044798851013183594
ell 55, elapsed: 0.00042891502380371094
ell 54, elapsed: 0.00042700767517089844
ell 53, elapsed: 0.00043511390686035156
ell 52, elapsed: 0.00043511390686035156
ell 51, elapsed: 0.0004291534423828125
ell 50, elapsed: 0.000431060791015625
ell 49, elapsed: 0.0004379749298095703
ell 48, elapsed: 0.0005328655242919922
ell 47, elapsed: 0.0006279945373535156
ell 46, elapsed: 0.00045108795166015625
ell 45, elapsed: 0.0004439353942871094
ell 44, elapsed: 0.00044417381286621094
ell 43, elapsed: 0.0004470348358154297
ell 42, elapsed: 0.0004429817199707031
ell 41, elapsed: 0.0004668235778808594
ell 40, elapsed: 0.0004589557647705078
ell 39, elapsed: 0.0005939006805419922
ell 38, elapsed: 0.0005438327789306641
ell 37, elapsed: 0.0004520416259765625
ell 36, elapsed: 0.00043702125549316406
ell 35, elapsed: 0.00043511390686035156
ell 34, elapsed: 0.00043201446533203125
ell 33, elapsed: 0.00045609474182128906
ell 32, elapsed: 0.0004248619079589844
ell 31, elapsed: 0.00042700767517089844
ell 30, elapsed: 0.0005500316619873047
ell 29, elapsed: 0.0005459785461425781
ell 28, elapsed: 0.0004482269287109375
ell 27, elapsed: 0.0004439353942871094
ell 26, elapsed: 0.00044608116149902344
ell 25, elapsed: 0.00045490264892578125
ell 24, elapsed: 0.0004429817199707031
ell 23, elapsed: 0.00044608116149902344
ell 22, elapsed: 0.0004520416259765625
ell 21, elapsed: 0.0004458427429199219
ell 20, elapsed: 0.0004470348358154297
ell 19, elapsed: 0.0004711151123046875
ell 18, elapsed: 0.00044798851013183594
ell 17, elapsed: 0.0006110668182373047
ell 16, elapsed: 0.0005218982696533203
ell 15, elapsed: 0.0004489421844482422
ell 14, elapsed: 0.0005910396575927734
ell 13, elapsed: 0.0005300045013427734
ell 12, elapsed: 0.00042700767517089844
ell 11, elapsed: 0.00047588348388671875
ell 10, elapsed: 0.0006470680236816406
ell 9, elapsed: 0.0007481575012207031
ell 8, elapsed: 0.0007150173187255859
ell 7, elapsed: 0.0007379055023193359
ell 6, elapsed: 0.0005409717559814453
ell 5, elapsed: 0.0004718303680419922
ell 4, elapsed: 0.00045990943908691406
ell 3, elapsed: 0.0004439353942871094
ell 2, elapsed: 0.000453948974609375
ell 1, elapsed: 0.00045800209045410156
ell 0, elapsed: 0.00044798851013183594
  0.803300 seconds (103.44 k allocations: 3.967 MiB)
elapsed: 0.0007350444793701172
step:          0.083036 sec (0 allocations: 0 byte, 0.0% gc time)
swapping:      0.000783 sec (0 allocations: 0 byte, 0.0% gc time)
calc_Mellell!: 0.012558 sec (0 allocations: 0 byte, 0.0% gc time)
  t0 :  0.002492 sec (0 allocations: 0 byte, 0.0% gc time)
  tm2 : 0.127914 sec (0 allocations: 0 byte, 0.0% gc time)
  tm2s: 0.001774 sec (0 allocations: 0 byte, 0.0% gc time)
  tm4 : 0.332724 sec (0 allocations: 0 byte, 0.0% gc time)
  tp2 : 0.0 sec (0 allocations: 0 byte, 0.0% gc time)
  tp2s: 0.0 sec (0 allocations: 0 byte, 0.0% gc time)
  tp4 : 0.0 sec (0 allocations: 0 byte, 0.0% gc time)
calc_wtdll!:   0.499867 sec (9.9 k allocations: 1.047 MB, 0.0% gc time)
calc_wljj!:    0.049744 sec (689 allocations: 10.766 KB, 0.0% gc time)
mult_prefac!:  0.0 sec (0 allocations: 0 byte, 0.0% gc time)
convert:       0.0 sec (0 allocations: 0 byte, 0.0% gc time)
write:         0.049036 sec (0 allocations: 0 byte, 0.0% gc time)
test_rand_2f1: 0.0 sec (0 allocations: 0 byte, 0.0% gc time)
Closing outfile out/Ml21-cache.bin...   0.000018 seconds
  0.000440 seconds (36 allocations: 27.953 KiB)
make_phi():   0.002750 seconds (8.18 k allocations: 237.844 KiB)
  0.263338 seconds (141.90 k allocations: 3.483 MiB)
tskip:       0.001766 sec (0 allocations: 0 byte, 0.0% gc time)
tread:       0.033213 sec (17 allocations: 10.641 KB, 0.0% gc time)
tmultphi:    0.016555 sec (0 allocations: 0 byte, 0.0% gc time)
tbrfft:      0.071893 sec (0 allocations: 0 byte, 0.0% gc time)
tmultprefac: 0.051402 sec (0 allocations: 0 byte, 0.0% gc time)
toutfunc:    0.083558 sec (127.507 k allocations: 2.312 MB, 0.0% gc time)
Testing R=1.0 ... passed
Calculating fmax: 
  dlrec    = 4
  dlrecRg1 = -4
  q=1.1, R=0.9:	  0.506845 seconds (105.76 k allocations: 15.287 MiB)

  0.507600 seconds (105.98 k allocations: 15.323 MiB)
ℓ = 1202
Δℓ = 4
ΔℓRg1 = -4
N = 1600
q = 1.1
kmin = 1.0e-5
kmax = 100000.00000000004
χ0 = 0.023029999999999995
RR = RR.tsv
ℓmax = ℓmax.bin
f21 = f21.bin
kmin = 1.0e-5
kmax = 100000.0
dlrec    = 4
dlrecRg1 = -4
Output size: 5741568 bytes = 0.005347251892089844 GiB
Output size: 51264 bytes = 4.774332046508789e-5 GiB
Reading 'out/F21EllCache'...   0.002023 seconds (197 allocations: 84.203 KiB)
ellmax: 1202
lmaxcache: 1202
fell[:,1,1] = ComplexF64[1.3482014726274674e-57 - 3.302141236118086e-73im, 1.357860004724329e-57 - 3.3257978169518355e-73im]
ell 1202, elapsed: 2.6941299438476562e-5
ell 1201, elapsed: 0.00043582916259765625
ell 1200, elapsed: 0.0004010200500488281
ell 1199, elapsed: 0.00038909912109375
ell 1198, elapsed: 0.0003941059112548828
ell 1002, elapsed: 0.011898040771484375
ell 1001, elapsed: 0.0003590583801269531
ell 1000, elapsed: 0.0005590915679931641
ell 999, elapsed: 0.0006110668182373047
ell 998, elapsed: 0.0005090236663818359
ell 902, elapsed: 0.007707834243774414
ell 901, elapsed: 0.0003540515899658203
ell 900, elapsed: 0.00034308433532714844
ell 899, elapsed: 0.0003399848937988281
ell 898, elapsed: 0.0003421306610107422
ell 802, elapsed: 0.007717132568359375
ell 801, elapsed: 0.00035500526428222656
ell 800, elapsed: 0.000347137451171875
ell 799, elapsed: 0.0004000663757324219
ell 798, elapsed: 0.00029277801513671875
ell 702, elapsed: 0.005421876907348633
ell 701, elapsed: 0.0003829002380371094
ell 700, elapsed: 0.00036406517028808594
ell 699, elapsed: 0.0003590583801269531
ell 698, elapsed: 0.0004420280456542969
ell 602, elapsed: 0.005750894546508789
ell 601, elapsed: 0.00039196014404296875
ell 600, elapsed: 0.0003719329833984375
ell 599, elapsed: 0.00037384033203125
ell 598, elapsed: 0.00036406517028808594
ell 502, elapsed: 0.005707979202270508
ell 501, elapsed: 0.0003809928894042969
ell 500, elapsed: 0.0003619194030761719
ell 499, elapsed: 0.0004999637603759766
ell 498, elapsed: 0.0005941390991210938
ell 402, elapsed: 0.006392955780029297
ell 401, elapsed: 0.00038123130798339844
ell 400, elapsed: 0.0003559589385986328
ell 399, elapsed: 0.0003578662872314453
ell 398, elapsed: 0.00035500526428222656
ell 302, elapsed: 0.015769004821777344
ell 301, elapsed: 0.0004508495330810547
ell 300, elapsed: 0.0030090808868408203
ell 299, elapsed: 0.00044608116149902344
ell 298, elapsed: 0.00043892860412597656
ell 202, elapsed: 0.007429838180541992
ell 201, elapsed: 0.0004470348358154297
ell 200, elapsed: 0.003139972686767578
ell 199, elapsed: 0.0004429817199707031
ell 198, elapsed: 0.00044083595275878906
ell 152, elapsed: 0.0035648345947265625
ell 151, elapsed: 0.000347137451171875
ell 150, elapsed: 0.0003459453582763672
ell 149, elapsed: 0.0003440380096435547
ell 148, elapsed: 0.00034499168395996094
ell 127, elapsed: 0.001397848129272461
ell 126, elapsed: 0.0003490447998046875
ell 125, elapsed: 0.0003440380096435547
ell 124, elapsed: 0.0006959438323974609
ell 123, elapsed: 0.0006389617919921875
ell 114, elapsed: 0.0015380382537841797
ell 113, elapsed: 0.0006389617919921875
ell 112, elapsed: 0.0007479190826416016
ell 111, elapsed: 0.0006411075592041016
ell 110, elapsed: 0.0006279945373535156
ell 102, elapsed: 0.0014591217041015625
ell 101, elapsed: 0.0007340908050537109
ell 100, elapsed: 0.0005519390106201172
ell 99, elapsed: 0.0005278587341308594
ell 98, elapsed: 0.0005350112915039062
ell 97, elapsed: 0.0006449222564697266
ell 96, elapsed: 0.0006361007690429688
ell 95, elapsed: 0.0008080005645751953
ell 94, elapsed: 0.0006270408630371094
ell 93, elapsed: 0.000640869140625
ell 92, elapsed: 0.000640869140625
ell 91, elapsed: 0.0006461143493652344
ell 90, elapsed: 0.0007510185241699219
ell 89, elapsed: 0.0006289482116699219
ell 88, elapsed: 0.0007278919219970703
ell 87, elapsed: 0.0007460117340087891
ell 86, elapsed: 0.0006451606750488281
ell 85, elapsed: 0.0008261203765869141
ell 84, elapsed: 0.0006451606750488281
ell 83, elapsed: 0.0006380081176757812
ell 82, elapsed: 0.0006430149078369141
ell 81, elapsed: 0.0006420612335205078
ell 80, elapsed: 0.0007750988006591797
ell 79, elapsed: 0.0006439685821533203
ell 78, elapsed: 0.000637054443359375
ell 77, elapsed: 0.0006299018859863281
ell 76, elapsed: 0.0006461143493652344
ell 75, elapsed: 0.0006389617919921875
ell 74, elapsed: 0.0006880760192871094
ell 73, elapsed: 0.0006399154663085938
ell 72, elapsed: 0.000431060791015625
ell 71, elapsed: 0.000392913818359375
ell 70, elapsed: 0.00039005279541015625
ell 69, elapsed: 0.0003921985626220703
ell 68, elapsed: 0.00039315223693847656
ell 67, elapsed: 0.0007090568542480469
ell 66, elapsed: 0.0006561279296875
ell 65, elapsed: 0.0006189346313476562
ell 64, elapsed: 0.0007369518280029297
ell 63, elapsed: 0.0006480216979980469
ell 62, elapsed: 0.0007989406585693359
ell 61, elapsed: 0.0006639957427978516
ell 60, elapsed: 0.0006580352783203125
ell 59, elapsed: 0.0006749629974365234
ell 58, elapsed: 0.0006468296051025391
ell 57, elapsed: 0.0008161067962646484
ell 56, elapsed: 0.0006539821624755859
ell 55, elapsed: 0.0006570816040039062
ell 54, elapsed: 0.0006628036499023438
ell 53, elapsed: 0.0004241466522216797
ell 52, elapsed: 0.0003879070281982422
ell 51, elapsed: 0.0003981590270996094
ell 50, elapsed: 0.0005199909210205078
ell 49, elapsed: 0.0005171298980712891
ell 48, elapsed: 0.0005071163177490234
ell 47, elapsed: 0.00039505958557128906
ell 46, elapsed: 0.00040411949157714844
ell 45, elapsed: 0.0003941059112548828
ell 44, elapsed: 0.0004031658172607422
ell 43, elapsed: 0.0003979206085205078
ell 42, elapsed: 0.0004029273986816406
ell 41, elapsed: 0.0004050731658935547
ell 40, elapsed: 0.00039315223693847656
ell 39, elapsed: 0.0004010200500488281
ell 38, elapsed: 0.000392913818359375
ell 37, elapsed: 0.0004019737243652344
ell 36, elapsed: 0.0004029273986816406
ell 35, elapsed: 0.00039505958557128906
ell 34, elapsed: 0.0003998279571533203
ell 33, elapsed: 0.0005629062652587891
ell 32, elapsed: 0.0005121231079101562
ell 31, elapsed: 0.0005199909210205078
ell 30, elapsed: 0.000514984130859375
ell 29, elapsed: 0.0005199909210205078
ell 28, elapsed: 0.0005118846893310547
ell 27, elapsed: 0.0005171298980712891
ell 26, elapsed: 0.0005199909210205078
ell 25, elapsed: 0.00046515464782714844
ell 24, elapsed: 0.0003981590270996094
ell 23, elapsed: 0.000392913818359375
ell 22, elapsed: 0.0004000663757324219
ell 21, elapsed: 0.00039005279541015625
ell 20, elapsed: 0.00039887428283691406
ell 19, elapsed: 0.0003979206085205078
ell 18, elapsed: 0.0004589557647705078
ell 17, elapsed: 0.00034308433532714844
ell 16, elapsed: 0.0003399848937988281
ell 15, elapsed: 0.0003399848937988281
ell 14, elapsed: 0.0003571510314941406
ell 13, elapsed: 0.00033783912658691406
ell 12, elapsed: 0.0003409385681152344
ell 11, elapsed: 0.0003330707550048828
ell 10, elapsed: 0.00033211708068847656
ell 9, elapsed: 0.0003349781036376953
ell 8, elapsed: 0.00039196014404296875
ell 7, elapsed: 0.0007770061492919922
ell 6, elapsed: 0.0007829666137695312
ell 5, elapsed: 0.0007719993591308594
ell 4, elapsed: 0.0005331039428710938
ell 3, elapsed: 0.00039696693420410156
ell 2, elapsed: 0.0006549358367919922
ell 1, elapsed: 0.0007348060607910156
ell 0, elapsed: 0.0006651878356933594
  0.177048 seconds (19.54 k allocations: 845.047 KiB)
elapsed: 0.0007960796356201172
step:          0.082112 sec (0 allocations: 0 byte, 0.0% gc time)
swapping:      0.000617 sec (0 allocations: 0 byte, 0.0% gc time)
calc_Mellell!: 0.001662 sec (0 allocations: 0 byte, 0.0% gc time)
  t0 :  0.000374 sec (0 allocations: 0 byte, 0.0% gc time)
  tm2 : 0.016352 sec (0 allocations: 0 byte, 0.0% gc time)
  tm2s: 0.000294 sec (0 allocations: 0 byte, 0.0% gc time)
  tm4 : 0.048036 sec (0 allocations: 0 byte, 0.0% gc time)
  tp2 : 0.0 sec (0 allocations: 0 byte, 0.0% gc time)
  tp2s: 0.0 sec (0 allocations: 0 byte, 0.0% gc time)
  tp4 : 0.0 sec (0 allocations: 0 byte, 0.0% gc time)
calc_wtdll!:   0.065922 sec (1.344 k allocations: 147.0 KB, 0.0% gc time)
calc_wljj!:    0.004118 sec (6 allocations: 96 byte, 0.0% gc time)
mult_prefac!:  0.0 sec (0 allocations: 0 byte, 0.0% gc time)
convert:       0.0 sec (0 allocations: 0 byte, 0.0% gc time)
write:         0.005227 sec (0 allocations: 0 byte, 0.0% gc time)
test_rand_2f1: 0.0 sec (0 allocations: 0 byte, 0.0% gc time)
Closing outfile out/Ml21-cache.bin...   0.000007 seconds
  0.000255 seconds (36 allocations: 27.953 KiB)
make_phi():   0.002216 seconds (8.18 k allocations: 237.844 KiB)
  0.031639 seconds (11.65 k allocations: 308.688 KiB)
tskip:       4.3e-5 sec (0 allocations: 0 byte, 0.0% gc time)
tread:       0.003932 sec (17 allocations: 2.125 KB, 0.0% gc time)
tmultphi:    0.00195 sec (0 allocations: 0 byte, 0.0% gc time)
tbrfft:      0.008747 sec (0 allocations: 0 byte, 0.0% gc time)
tmultprefac: 0.00614 sec (0 allocations: 0 byte, 0.0% gc time)
toutfunc:    0.01015 sec (10.304 k allocations: 196.0 KB, 0.0% gc time)
Testing R=0.9 ... passed
Calculating fmax: 
  dlrec    = 4
  dlrecRg1 = -4
  q=1.1, R=0.8:	  0.408561 seconds (103.25 k allocations: 14.856 MiB)

  0.408856 seconds (103.48 k allocations: 14.893 MiB)
ℓ = 1202
Δℓ = 4
ΔℓRg1 = -4
N = 1600
q = 1.1
kmin = 1.0e-5
kmax = 100000.00000000004
χ0 = 0.023029999999999995
RR = RR.tsv
ℓmax = ℓmax.bin
f21 = f21.bin
kmin = 1.0e-5
kmax = 100000.0
dlrec    = 4
dlrecRg1 = -4
Output size: 5741568 bytes = 0.005347251892089844 GiB
Output size: 51264 bytes = 4.774332046508789e-5 GiB
Reading 'out/F21EllCache'...   0.001117 seconds (197 allocations: 84.203 KiB)
ellmax: 1202
lmaxcache: 1202
fell[:,1,1] = ComplexF64[7.519068145690986e-120 - 1.8416405474382574e-135im, 7.541664537386155e-120 - 1.847175067190611e-135im]
ell 1202, elapsed: 2.4080276489257812e-5
ell 1201, elapsed: 0.00046515464782714844
ell 1200, elapsed: 0.0003829002380371094
ell 1199, elapsed: 0.00037479400634765625
ell 1198, elapsed: 0.0004200935363769531
ell 1002, elapsed: 0.011255979537963867
ell 1001, elapsed: 0.0005331039428710938
ell 1000, elapsed: 0.0004298686981201172
ell 999, elapsed: 0.00037384033203125
ell 998, elapsed: 0.0003750324249267578
ell 902, elapsed: 0.005527973175048828
ell 901, elapsed: 0.0005180835723876953
ell 900, elapsed: 0.0004620552062988281
ell 899, elapsed: 0.00036907196044921875
ell 898, elapsed: 0.0003688335418701172
ell 802, elapsed: 0.005414009094238281
ell 801, elapsed: 0.00039196014404296875
ell 800, elapsed: 0.0005300045013427734
ell 799, elapsed: 0.00043201446533203125
ell 798, elapsed: 0.00036597251892089844
ell 702, elapsed: 0.0056879520416259766
ell 701, elapsed: 0.0003809928894042969
ell 700, elapsed: 0.0003669261932373047
ell 699, elapsed: 0.0003631114959716797
ell 698, elapsed: 0.0003681182861328125
ell 602, elapsed: 0.005340099334716797
ell 601, elapsed: 0.0004100799560546875
ell 600, elapsed: 0.0003771781921386719
ell 599, elapsed: 0.00036597251892089844
ell 598, elapsed: 0.00037217140197753906
ell 502, elapsed: 0.0056400299072265625
ell 501, elapsed: 0.0005450248718261719
ell 500, elapsed: 0.0004990100860595703
ell 499, elapsed: 0.00037097930908203125
ell 498, elapsed: 0.0003719329833984375
ell 402, elapsed: 0.0057048797607421875
ell 401, elapsed: 0.0003821849822998047
ell 400, elapsed: 0.000370025634765625
ell 399, elapsed: 0.00042700767517089844
ell 398, elapsed: 0.00036907196044921875
ell 302, elapsed: 0.005352973937988281
ell 301, elapsed: 0.0005340576171875
ell 300, elapsed: 0.0004382133483886719
ell 299, elapsed: 0.0004868507385253906
ell 298, elapsed: 0.0006580352783203125
ell 202, elapsed: 0.005313873291015625
ell 201, elapsed: 0.000553131103515625
ell 200, elapsed: 0.00043892860412597656
ell 199, elapsed: 0.0003669261932373047
ell 198, elapsed: 0.0004839897155761719
ell 152, elapsed: 0.002920866012573242
ell 151, elapsed: 0.0003540515899658203
ell 150, elapsed: 0.0003440380096435547
ell 149, elapsed: 0.000370025634765625
ell 148, elapsed: 0.0005269050598144531
ell 127, elapsed: 0.0016269683837890625
ell 126, elapsed: 0.0003561973571777344
ell 125, elapsed: 0.0004279613494873047
ell 124, elapsed: 0.0005669593811035156
ell 123, elapsed: 0.0005350112915039062
ell 114, elapsed: 0.0008950233459472656
ell 113, elapsed: 0.00037789344787597656
ell 112, elapsed: 0.0003781318664550781
ell 111, elapsed: 0.00047397613525390625
ell 110, elapsed: 0.0004971027374267578
ell 102, elapsed: 0.0010890960693359375
ell 101, elapsed: 0.0003829002380371094
ell 100, elapsed: 0.00037097930908203125
ell 99, elapsed: 0.0003681182861328125
ell 98, elapsed: 0.00036907196044921875
ell 97, elapsed: 0.00044798851013183594
ell 96, elapsed: 0.0004398822784423828
ell 95, elapsed: 0.0004448890686035156
ell 94, elapsed: 0.00046181678771972656
ell 93, elapsed: 0.0005011558532714844
ell 92, elapsed: 0.0006029605865478516
ell 91, elapsed: 0.0004451274871826172
ell 90, elapsed: 0.0006248950958251953
ell 89, elapsed: 0.0004940032958984375
ell 88, elapsed: 0.0005140304565429688
ell 87, elapsed: 0.0005738735198974609
ell 86, elapsed: 0.0004360675811767578
ell 85, elapsed: 0.00043392181396484375
ell 84, elapsed: 0.0004448890686035156
ell 83, elapsed: 0.0004398822784423828
ell 82, elapsed: 0.0005841255187988281
ell 81, elapsed: 0.0004839897155761719
ell 80, elapsed: 0.00045680999755859375
ell 79, elapsed: 0.0004229545593261719
ell 78, elapsed: 0.00043702125549316406
ell 77, elapsed: 0.0004360675811767578
ell 76, elapsed: 0.0004401206970214844
ell 75, elapsed: 0.00042700767517089844
ell 74, elapsed: 0.00044083595275878906
ell 73, elapsed: 0.00043487548828125
ell 72, elapsed: 0.0005850791931152344
ell 71, elapsed: 0.000514984130859375
ell 70, elapsed: 0.0005910396575927734
ell 69, elapsed: 0.0005109310150146484
ell 68, elapsed: 0.0005519390106201172
ell 67, elapsed: 0.0006549358367919922
ell 66, elapsed: 0.0006351470947265625
ell 65, elapsed: 0.000431060791015625
ell 64, elapsed: 0.0004489421844482422
ell 63, elapsed: 0.00043702125549316406
ell 62, elapsed: 0.0004379749298095703
ell 61, elapsed: 0.0004360675811767578
ell 60, elapsed: 0.0004379749298095703
ell 59, elapsed: 0.0005850791931152344
ell 58, elapsed: 0.0005469322204589844
ell 57, elapsed: 0.0006380081176757812
ell 56, elapsed: 0.0005919933319091797
ell 55, elapsed: 0.0005738735198974609
ell 54, elapsed: 0.0004980564117431641
ell 53, elapsed: 0.0006239414215087891
ell 52, elapsed: 0.0004558563232421875
ell 51, elapsed: 0.00043702125549316406
ell 50, elapsed: 0.00043702125549316406
ell 49, elapsed: 0.0004410743713378906
ell 48, elapsed: 0.00043201446533203125
ell 47, elapsed: 0.00043511390686035156
ell 46, elapsed: 0.0005090236663818359
ell 45, elapsed: 0.0006871223449707031
ell 44, elapsed: 0.0006451606750488281
ell 43, elapsed: 0.0005509853363037109
ell 42, elapsed: 0.0006089210510253906
[...]
ell 789, elapsed: 0.0008029937744140625
ell 788, elapsed: 0.0008261203765869141
ell 782, elapsed: 0.0014240741729736328
ell 781, elapsed: 0.0008590221405029297
ell 780, elapsed: 0.000885009765625
ell 779, elapsed: 0.0008649826049804688
ell 778, elapsed: 0.0008769035339355469
ell 772, elapsed: 0.0014989376068115234
ell 771, elapsed: 0.0008199214935302734
ell 770, elapsed: 0.0008320808410644531
ell 769, elapsed: 0.0008180141448974609
ell 768, elapsed: 0.0008299350738525391
ell 762, elapsed: 0.001634836196899414
ell 761, elapsed: 0.0010809898376464844
ell 760, elapsed: 0.0008211135864257812
ell 759, elapsed: 0.0008919239044189453
ell 758, elapsed: 0.0007839202880859375
ell 752, elapsed: 0.0014319419860839844
ell 751, elapsed: 0.0007939338684082031
ell 750, elapsed: 0.0013289451599121094
ell 749, elapsed: 0.0008070468902587891
ell 748, elapsed: 0.0010669231414794922
ell 742, elapsed: 0.04144287109375
ell 741, elapsed: 0.0006210803985595703
ell 740, elapsed: 0.0006349086761474609
ell 739, elapsed: 0.0007569789886474609
ell 738, elapsed: 0.0006358623504638672
ell 732, elapsed: 0.0015799999237060547
ell 731, elapsed: 0.0008940696716308594
ell 730, elapsed: 0.0007741451263427734
ell 729, elapsed: 0.0008330345153808594
ell 728, elapsed: 0.0010409355163574219
ell 722, elapsed: 0.0018010139465332031
ell 721, elapsed: 0.0011849403381347656
ell 720, elapsed: 0.0007848739624023438
ell 719, elapsed: 0.0011641979217529297
ell 718, elapsed: 0.0011959075927734375
ell 712, elapsed: 0.001911163330078125
ell 711, elapsed: 0.0007100105285644531
ell 710, elapsed: 0.0007700920104980469
ell 709, elapsed: 0.0008211135864257812
ell 708, elapsed: 0.0008912086486816406
ell 702, elapsed: 0.0015931129455566406
ell 701, elapsed: 0.0008909702301025391
ell 700, elapsed: 0.0010998249053955078
ell 699, elapsed: 0.0008788108825683594
ell 698, elapsed: 0.0008859634399414062
ell 692, elapsed: 0.001867055892944336
ell 691, elapsed: 0.0007770061492919922
ell 690, elapsed: 0.0009419918060302734
ell 689, elapsed: 0.0009808540344238281
ell 688, elapsed: 0.0010509490966796875
ell 682, elapsed: 0.0017960071563720703
ell 681, elapsed: 0.0009520053863525391
ell 680, elapsed: 0.0010528564453125
ell 679, elapsed: 0.0009818077087402344
ell 678, elapsed: 0.0009899139404296875
ell 672, elapsed: 0.0018239021301269531
ell 671, elapsed: 0.000988006591796875
ell 670, elapsed: 0.0009851455688476562
ell 669, elapsed: 0.0007529258728027344
ell 668, elapsed: 0.0007131099700927734
ell 662, elapsed: 0.001547098159790039
ell 661, elapsed: 0.0006668567657470703
ell 660, elapsed: 0.0007760524749755859
ell 659, elapsed: 0.0006949901580810547
ell 658, elapsed: 0.0007710456848144531
ell 652, elapsed: 0.0019099712371826172
ell 651, elapsed: 0.0006549358367919922
ell 650, elapsed: 0.0007867813110351562
ell 649, elapsed: 0.0008251667022705078
ell 648, elapsed: 0.0007929801940917969
ell 642, elapsed: 0.0013270378112792969
ell 641, elapsed: 0.0008039474487304688
ell 640, elapsed: 0.0011649131774902344
ell 639, elapsed: 0.0007748603820800781
ell 638, elapsed: 0.0007789134979248047
ell 632, elapsed: 0.0015339851379394531
ell 631, elapsed: 0.0007710456848144531
ell 630, elapsed: 0.001049041748046875
ell 629, elapsed: 0.0010619163513183594
ell 628, elapsed: 0.0008270740509033203
ell 622, elapsed: 0.0013089179992675781
ell 621, elapsed: 0.0007619857788085938
ell 620, elapsed: 0.0007860660552978516
ell 619, elapsed: 0.0008149147033691406
ell 618, elapsed: 0.0007541179656982422
ell 612, elapsed: 0.001310110092163086
ell 611, elapsed: 0.0010449886322021484
ell 610, elapsed: 0.0008001327514648438
ell 609, elapsed: 0.0007579326629638672
ell 608, elapsed: 0.0007581710815429688
ell 602, elapsed: 0.0013768672943115234
ell 601, elapsed: 0.0008060932159423828
ell 600, elapsed: 0.0007669925689697266
ell 599, elapsed: 0.0007548332214355469
ell 598, elapsed: 0.0007810592651367188
ell 592, elapsed: 0.0015881061553955078
ell 591, elapsed: 0.0007040500640869141
ell 590, elapsed: 0.0007550716400146484
ell 589, elapsed: 0.0007529258728027344
ell 588, elapsed: 0.0008020401000976562
ell 582, elapsed: 0.0012898445129394531
ell 581, elapsed: 0.0007631778717041016
ell 580, elapsed: 0.0008060932159423828
ell 579, elapsed: 0.0007510185241699219
ell 578, elapsed: 0.0008351802825927734
ell 572, elapsed: 0.0013148784637451172
ell 571, elapsed: 0.0011451244354248047
ell 570, elapsed: 0.0008449554443359375
ell 569, elapsed: 0.0007510185241699219
ell 568, elapsed: 0.0007579326629638672
ell 562, elapsed: 0.0013670921325683594
ell 561, elapsed: 0.0014119148254394531
ell 560, elapsed: 0.0008139610290527344
ell 559, elapsed: 0.0007719993591308594
ell 558, elapsed: 0.0008268356323242188
ell 552, elapsed: 0.0015740394592285156
ell 551, elapsed: 0.0008311271667480469
ell 550, elapsed: 0.0009658336639404297
ell 549, elapsed: 0.0008289813995361328
ell 548, elapsed: 0.0008909702301025391
ell 542, elapsed: 0.0014958381652832031
ell 541, elapsed: 0.0011031627655029297
ell 540, elapsed: 0.000885009765625
ell 539, elapsed: 0.0008258819580078125
ell 538, elapsed: 0.0008308887481689453
ell 532, elapsed: 0.0014939308166503906
ell 531, elapsed: 0.0009090900421142578
ell 530, elapsed: 0.0008318424224853516
ell 529, elapsed: 0.0008289813995361328
ell 528, elapsed: 0.0008339881896972656
ell 522, elapsed: 0.0018057823181152344
ell 521, elapsed: 0.0007770061492919922
ell 520, elapsed: 0.0008320808410644531
ell 519, elapsed: 0.000823974609375
ell 518, elapsed: 0.0009028911590576172
ell 512, elapsed: 0.001528024673461914
ell 511, elapsed: 0.0008289813995361328
ell 510, elapsed: 0.0008401870727539062
ell 509, elapsed: 0.0008602142333984375
ell 508, elapsed: 0.0008401870727539062
ell 502, elapsed: 0.001528024673461914
ell 501, elapsed: 0.000904083251953125
ell 500, elapsed: 0.0008380413055419922
ell 499, elapsed: 0.0008270740509033203
ell 498, elapsed: 0.0008358955383300781
ell 492, elapsed: 0.013824939727783203
ell 491, elapsed: 0.0010521411895751953
ell 490, elapsed: 0.0010099411010742188
ell 489, elapsed: 0.0011591911315917969
ell 488, elapsed: 0.0010929107666015625
ell 482, elapsed: 0.0017290115356445312
ell 481, elapsed: 0.0008640289306640625
ell 480, elapsed: 0.0008199214935302734
ell 479, elapsed: 0.0009930133819580078
ell 478, elapsed: 0.0010099411010742188
ell 472, elapsed: 0.0020270347595214844
ell 471, elapsed: 0.0010251998901367188
ell 470, elapsed: 0.0010209083557128906
ell 469, elapsed: 0.0012710094451904297
ell 468, elapsed: 0.0012128353118896484
ell 462, elapsed: 0.0017609596252441406
ell 461, elapsed: 0.0008318424224853516
ell 460, elapsed: 0.0008368492126464844
ell 459, elapsed: 0.0009980201721191406
ell 458, elapsed: 0.0009400844573974609
ell 452, elapsed: 0.0033769607543945312
ell 451, elapsed: 0.0008549690246582031
ell 450, elapsed: 0.0008349418640136719
ell 449, elapsed: 0.0010309219360351562
ell 448, elapsed: 0.0008349418640136719
ell 442, elapsed: 0.002043008804321289
ell 441, elapsed: 0.0017352104187011719
ell 440, elapsed: 0.0011839866638183594
ell 439, elapsed: 0.0008242130279541016
ell 438, elapsed: 0.0008141994476318359
ell 432, elapsed: 0.001489877700805664
ell 431, elapsed: 0.0009980201721191406
ell 430, elapsed: 0.0008440017700195312
ell 429, elapsed: 0.0008060932159423828
ell 428, elapsed: 0.0008170604705810547
ell 422, elapsed: 0.0015299320220947266
ell 421, elapsed: 0.0008330345153808594
ell 420, elapsed: 0.0010678768157958984
ell 419, elapsed: 0.000843048095703125
ell 418, elapsed: 0.001168966293334961
ell 412, elapsed: 0.0016510486602783203
ell 411, elapsed: 0.0008890628814697266
ell 410, elapsed: 0.0008690357208251953
ell 409, elapsed: 0.0008261203765869141
ell 408, elapsed: 0.0008108615875244141
ell 402, elapsed: 0.0015170574188232422
ell 401, elapsed: 0.0011150836944580078
ell 400, elapsed: 0.0008180141448974609
ell 399, elapsed: 0.0008070468902587891
ell 398, elapsed: 0.0008161067962646484
ell 392, elapsed: 0.00150299072265625
ell 391, elapsed: 0.0008091926574707031
ell 390, elapsed: 0.0008139610290527344
ell 389, elapsed: 0.0008020401000976562
ell 388, elapsed: 0.0008552074432373047
ell 382, elapsed: 0.001499176025390625
ell 381, elapsed: 0.000823974609375
ell 380, elapsed: 0.0008471012115478516
ell 379, elapsed: 0.0008099079132080078
ell 378, elapsed: 0.0008149147033691406
ell 372, elapsed: 0.0014731884002685547
ell 371, elapsed: 0.0008280277252197266
ell 370, elapsed: 0.0008149147033691406
ell 369, elapsed: 0.000804901123046875
ell 368, elapsed: 0.0008139610290527344
ell 362, elapsed: 0.001505136489868164
ell 361, elapsed: 0.001085042953491211
ell 360, elapsed: 0.0007951259613037109
ell 359, elapsed: 0.0008289813995361328
ell 358, elapsed: 0.0008552074432373047
ell 352, elapsed: 0.0015060901641845703
ell 351, elapsed: 0.0008339881896972656
ell 350, elapsed: 0.0010979175567626953
ell 349, elapsed: 0.0008602142333984375
ell 348, elapsed: 0.0008358955383300781
ell 342, elapsed: 0.0017228126525878906
ell 341, elapsed: 0.0008881092071533203
ell 340, elapsed: 0.0008330345153808594
ell 339, elapsed: 0.0008280277252197266
ell 338, elapsed: 0.0008320808410644531
ell 332, elapsed: 0.0016529560089111328
ell 331, elapsed: 0.0008318424224853516
ell 330, elapsed: 0.0008320808410644531
ell 329, elapsed: 0.0008308887481689453
ell 328, elapsed: 0.003531932830810547
ell 322, elapsed: 0.0015900135040283203
ell 321, elapsed: 0.0008358955383300781
ell 320, elapsed: 0.0008330345153808594
ell 319, elapsed: 0.000827789306640625
ell 318, elapsed: 0.0008349418640136719
ell 312, elapsed: 0.0012280941009521484
ell 311, elapsed: 0.0006849765777587891
ell 310, elapsed: 0.0006871223449707031
ell 309, elapsed: 0.0007870197296142578
ell 308, elapsed: 0.0008070468902587891
ell 302, elapsed: 0.0014681816101074219
ell 301, elapsed: 0.0008070468902587891
ell 300, elapsed: 0.0008118152618408203
ell 299, elapsed: 0.0008230209350585938
ell 298, elapsed: 0.0008120536804199219
ell 292, elapsed: 0.0014619827270507812
ell 291, elapsed: 0.0008058547973632812
ell 290, elapsed: 0.0007510185241699219
ell 289, elapsed: 0.0006818771362304688
ell 288, elapsed: 0.0006840229034423828
ell 282, elapsed: 0.001194000244140625
ell 281, elapsed: 0.0006799697875976562
ell 280, elapsed: 0.0011129379272460938
ell 279, elapsed: 0.0008268356323242188
ell 278, elapsed: 0.0008308887481689453
ell 272, elapsed: 0.0014569759368896484
ell 271, elapsed: 0.0006821155548095703
ell 270, elapsed: 0.0006899833679199219
ell 269, elapsed: 0.0006778240203857422
ell 268, elapsed: 0.0006852149963378906
ell 262, elapsed: 0.0013489723205566406
ell 261, elapsed: 0.0008280277252197266
ell 260, elapsed: 0.0008308887481689453
ell 259, elapsed: 0.0008208751678466797
ell 258, elapsed: 0.0008230209350585938
ell 252, elapsed: 0.0013849735260009766
ell 251, elapsed: 0.0006861686706542969
ell 250, elapsed: 0.0006890296936035156
ell 249, elapsed: 0.0006749629974365234
ell 248, elapsed: 0.0008051395416259766
ell 242, elapsed: 0.0014410018920898438
ell 241, elapsed: 0.000804901123046875
ell 240, elapsed: 0.0008101463317871094
ell 239, elapsed: 0.0007281303405761719
ell 238, elapsed: 0.0006868839263916016
ell 232, elapsed: 0.001165151596069336
ell 231, elapsed: 0.0006771087646484375
ell 230, elapsed: 0.0006852149963378906
ell 229, elapsed: 0.0008330345153808594
ell 228, elapsed: 0.001013040542602539
ell 222, elapsed: 0.0015180110931396484
ell 221, elapsed: 0.0007650852203369141
ell 220, elapsed: 0.0006899833679199219
ell 219, elapsed: 0.0007100105285644531
ell 218, elapsed: 0.0007610321044921875
ell 212, elapsed: 0.0012271404266357422
ell 211, elapsed: 0.0009009838104248047
ell 210, elapsed: 0.0009150505065917969
ell 209, elapsed: 0.0008270740509033203
ell 208, elapsed: 0.0008299350738525391
ell 202, elapsed: 0.0012729167938232422
ell 201, elapsed: 0.0006818771362304688
ell 200, elapsed: 0.0006849765777587891
ell 199, elapsed: 0.00067901611328125
ell 198, elapsed: 0.0006899833679199219
ell 192, elapsed: 0.0015239715576171875
ell 191, elapsed: 0.0008089542388916016
ell 190, elapsed: 0.0008108615875244141
ell 189, elapsed: 0.0008039474487304688
ell 188, elapsed: 0.0007579326629638672
ell 182, elapsed: 0.0013051033020019531
ell 181, elapsed: 0.0006859302520751953
ell 180, elapsed: 0.0006859302520751953
ell 179, elapsed: 0.0007970333099365234
ell 178, elapsed: 0.0008299350738525391
ell 172, elapsed: 0.0015039443969726562
ell 171, elapsed: 0.0008180141448974609
ell 170, elapsed: 0.0008909702301025391
ell 169, elapsed: 0.00080108642578125
ell 168, elapsed: 0.0009288787841796875
ell 162, elapsed: 0.0016720294952392578
ell 161, elapsed: 0.0006880760192871094
ell 160, elapsed: 0.0006949901580810547
ell 159, elapsed: 0.0006802082061767578
ell 158, elapsed: 0.00078582763671875
ell 152, elapsed: 0.0012819766998291016
ell 151, elapsed: 0.0007870197296142578
ell 150, elapsed: 0.0010309219360351562
ell 149, elapsed: 0.0007560253143310547
ell 148, elapsed: 0.0007929801940917969
ell 142, elapsed: 0.001455068588256836
ell 141, elapsed: 0.0008530616760253906
ell 140, elapsed: 0.0008578300476074219
ell 139, elapsed: 0.0007460117340087891
ell 138, elapsed: 0.0006949901580810547
ell 132, elapsed: 0.001302957534790039
ell 131, elapsed: 0.0007531642913818359
ell 130, elapsed: 0.0007688999176025391
ell 129, elapsed: 0.0008978843688964844
ell 128, elapsed: 0.0009150505065917969
ell 122, elapsed: 0.0012760162353515625
ell 121, elapsed: 0.0008687973022460938
ell 120, elapsed: 0.0007548332214355469
ell 119, elapsed: 0.0008978843688964844
ell 118, elapsed: 0.0007550716400146484
ell 112, elapsed: 0.001795053482055664
ell 111, elapsed: 0.00090789794921875
ell 110, elapsed: 0.0009720325469970703
ell 109, elapsed: 0.00096893310546875
ell 108, elapsed: 0.0010330677032470703
ell 102, elapsed: 0.001332998275756836
ell 101, elapsed: 0.0035359859466552734
ell 100, elapsed: 0.003374814987182617
ell 99, elapsed: 0.00339508056640625
ell 98, elapsed: 0.0038309097290039062
ell 92, elapsed: 0.005627870559692383
ell 91, elapsed: 0.0037431716918945312
ell 90, elapsed: 0.0030760765075683594
ell 89, elapsed: 0.0032379627227783203
ell 88, elapsed: 0.0032460689544677734
ell 82, elapsed: 0.005659818649291992
ell 81, elapsed: 0.003086090087890625
ell 80, elapsed: 0.0030961036682128906
ell 79, elapsed: 0.003100156784057617
ell 78, elapsed: 0.003412961959838867
ell 72, elapsed: 0.005799055099487305
ell 71, elapsed: 0.003332853317260742
ell 70, elapsed: 0.003323793411254883
ell 69, elapsed: 0.0033249855041503906
ell 68, elapsed: 0.0033409595489501953
ell 62, elapsed: 0.006131887435913086
ell 61, elapsed: 0.0032989978790283203
ell 60, elapsed: 0.0033447742462158203
ell 59, elapsed: 0.0038001537322998047
ell 58, elapsed: 0.008833169937133789
ell 52, elapsed: 0.008199214935302734
ell 51, elapsed: 0.004400014877319336
ell 50, elapsed: 0.0031440258026123047
ell 49, elapsed: 0.003187894821166992
ell 48, elapsed: 0.0031270980834960938
ell 42, elapsed: 0.005641937255859375
ell 41, elapsed: 0.0026230812072753906
ell 40, elapsed: 0.003979921340942383
ell 39, elapsed: 0.0055389404296875
ell 38, elapsed: 0.005338907241821289
ell 32, elapsed: 0.008209943771362305
ell 31, elapsed: 0.00410008430480957
ell 30, elapsed: 0.003662109375
ell 29, elapsed: 0.0039370059967041016
ell 28, elapsed: 0.004116058349609375
ell 22, elapsed: 0.008314847946166992
ell 21, elapsed: 0.0031011104583740234
ell 20, elapsed: 0.0033838748931884766
ell 19, elapsed: 0.003362894058227539
ell 18, elapsed: 0.003403902053833008
ell 12, elapsed: 0.006303071975708008
ell 11, elapsed: 0.005157947540283203
ell 10, elapsed: 0.004488945007324219
ell 9, elapsed: 0.004069805145263672
ell 8, elapsed: 0.003233194351196289
  0.874550 seconds (97.32 k allocations: 12.615 MiB)
elapsed: 0.0037009716033935547
step:          0.068796 sec (0 allocations: 0 byte, 0.0% gc time)
swapping:      0.000684 sec (0 allocations: 0 byte, 0.0% gc time)
calc_Mellell!: 0.040734 sec (0 allocations: 0 byte, 0.0% gc time)
  t0 :  0.009418 sec (0 allocations: 0 byte, 0.0% gc time)
  tm2 : 0.083428 sec (0 allocations: 0 byte, 0.0% gc time)
  tm2s: 0.00753 sec (0 allocations: 0 byte, 0.0% gc time)
  tm4 : 0.181956 sec (0 allocations: 0 byte, 0.0% gc time)
  tp2 : 4.3e-5 sec (0 allocations: 0 byte, 0.0% gc time)
  tp2s: 0.0 sec (0 allocations: 0 byte, 0.0% gc time)
  tp4 : 0.0 sec (0 allocations: 0 byte, 0.0% gc time)
calc_wtdll!:   0.556656 sec (48.6 k allocations: 11.096 MB, 0.0% gc time)
calc_wljj!:    0.035307 sec (69 allocations: 1.078 KB, 0.0% gc time)
mult_prefac!:  0.0 sec (0 allocations: 0 byte, 0.0% gc time)
convert:       0.0 sec (0 allocations: 0 byte, 0.0% gc time)
write:         0.075497 sec (0 allocations: 0 byte, 0.0% gc time)
test_rand_2f1: 0.0 sec (0 allocations: 0 byte, 0.0% gc time)
Closing outfile out/MlCache/MlCache.bin...   0.000007 seconds
xi, l=0, nu=0:   0.330348 seconds (602.88 k allocations: 32.969 MiB)
xi, l=0, nu=-2:  0.002941 seconds (114 allocations: 148.969 KiB)
Created 'out/xi.tsv'.
  q=1.1, R=0.6:	  0.784481 seconds (264.51 k allocations: 38.097 MiB)
  q=1.1, R=0.7:	  0.906107 seconds (276.48 k allocations: 40.118 MiB, 1.62% gc time)
  q=1.1, R=0.8:	  0.971432 seconds (271.73 k allocations: 39.310 MiB, 1.54% gc time)
  q=1.1, R=0.9:	  1.024214 seconds (266.62 k allocations: 38.459 MiB, 0.71% gc time)
  q=1.1, R=0.998:	 21.196260 seconds (114.96 k allocations: 7.588 MiB)
  q=1.1, R=1.0:	  0.004786 seconds (8.20 k allocations: 704.344 KiB)

ℓ = 1000
Δℓ = 4
ΔℓRg1 = -4
N = 4096
q = 1.1
kmin = 1.0e-5
kmax = 1000.0
χ0 = 0.001
RR = RR.tsv
ℓmax = ℓmax.bin
f21 = f21.bin
kmin = 1.0e-5
kmax = 1000.0
dlrec    = 4
dlrecRg1 = -4
Output size: 1573632 bytes = 0.0014655590057373047 GiB
Output size: 786816 bytes = 0.0007327795028686523 GiB
Reading 'out/F21EllCache'...   0.001598 seconds (198 allocations: 533.078 KiB)
ellmax: 1002
lmaxcache: 1000
fell[:,1,1] = ComplexF64[1.726292812820208e-224 - 4.2281979352226965e-240im, 1.7282693092099638e-224 - 4.233038955177178e-240im]
ell 1002, elapsed: 2.2172927856445312e-5
ell 1001, elapsed: 0.0013630390167236328
ell 1000, elapsed: 0.0011630058288574219
ell 999, elapsed: 0.00825190544128418
ell 998, elapsed: 0.007179975509643555
ell 44, elapsed: 0.7391259670257568
ell 43, elapsed: 0.005667924880981445
ell 42, elapsed: 0.006018161773681641
ell 41, elapsed: 0.006218910217285156
ell 40, elapsed: 0.0058400630950927734
  0.789364 seconds (5.06 k allocations: 329.484 KiB)
elapsed: 0.00722193717956543
step:          0.733813 sec (0 allocations: 0 byte, 0.0% gc time)
swapping:      0.000547 sec (0 allocations: 0 byte, 0.0% gc time)
calc_Mellell!: 0.001552 sec (0 allocations: 0 byte, 0.0% gc time)
  t0 :  0.000879 sec (0 allocations: 0 byte, 0.0% gc time)
  tm2 : 0.011366 sec (0 allocations: 0 byte, 0.0% gc time)
  tm2s: 0.000753 sec (0 allocations: 0 byte, 0.0% gc time)
  tm4 : 0.032188 sec (0 allocations: 0 byte, 0.0% gc time)
  tp2 : 0.0 sec (0 allocations: 0 byte, 0.0% gc time)
  tp2s: 0.0 sec (0 allocations: 0 byte, 0.0% gc time)
  tp4 : 0.0 sec (0 allocations: 0 byte, 0.0% gc time)
calc_wtdll!:   0.045463 sec (480 allocations: 52.5 KB, 0.0% gc time)
calc_wljj!:    0.00146 sec (1 allocations: 16 byte, 0.0% gc time)
mult_prefac!:  0.0 sec (0 allocations: 0 byte, 0.0% gc time)
convert:       0.0 sec (0 allocations: 0 byte, 0.0% gc time)
write:         0.000934 sec (0 allocations: 0 byte, 0.0% gc time)
test_rand_2f1: 0.0 sec (0 allocations: 0 byte, 0.0% gc time)
Closing outfile out/MlCache/MlCache.bin...   0.000035 seconds
  0.496813 seconds (38 allocations: 66.859 KiB)
make_phi():   0.010530 seconds (65 allocations: 275.984 KiB)
  0.044387 seconds (11.42 k allocations: 711.851 KiB)
tskip:       1.0e-6 sec (0 allocations: 0 byte, 0.0% gc time)
tread:       0.000935 sec (17 allocations: 1.266 KB, 0.0% gc time)
tmultphi:    0.000366 sec (0 allocations: 0 byte, 0.0% gc time)
tbrfft:      0.001769 sec (0 allocations: 0 byte, 0.0% gc time)
tmultprefac: 0.000979 sec (0 allocations: 0 byte, 0.0% gc time)
toutfunc:    0.000208 sec (0 allocations: 0 byte, 0.0% gc time)
Created 'out/wl42_jj00.tsv'.
Created 'out/wl42_jj02.tsv'.
    Testing TwoFAST tests passed 
