Julia Version 1.6.0-DEV.1130
Commit ab451cdcd6 (2020-10-05 03:24 UTC)
Platform Info:
  OS: Linux (x86_64-linux-gnu)
  CPU: AMD EPYC 7502 32-Core Processor
  WORD_SIZE: 64
  LIBM: libopenlibm
  LLVM: libLLVM-10.0.1 (ORCJIT, znver2)
Environment:
  JULIA_DEPOT_PATH = ::/usr/local/share/julia
  JULIA_NUM_THREADS = 2

  Resolving package versions...
  Installed Readables ──────────────────── v0.3.3
  Installed MKL_jll ────────────────────── v2020.2.254+0
  Installed GenericSVD ─────────────────── v0.3.0
  Installed OpenSpecFun_jll ────────────── v0.5.3+3
  Installed AbstractFFTs ───────────────── v0.5.0
  Installed FFTW ───────────────────────── v1.2.4
  Installed ArbNumerics ────────────────── v1.2.1
  Installed IntelOpenMP_jll ────────────── v2018.0.3+0
  Installed FFTW_jll ───────────────────── v3.3.9+5
  Installed GenericSchur ───────────────── v0.4.0
  Installed BinaryProvider ─────────────── v0.5.10
  Installed TwoFAST ────────────────────── v0.1.3
  Installed Reexport ───────────────────── v0.2.0
  Installed CompilerSupportLibraries_jll ─ v0.3.3+0
  Installed SpecialFunctions ───────────── v0.10.3
Updating `~/.julia/environments/v1.6/Project.toml`
  [0dd23c3e] + TwoFAST v0.1.3
Updating `~/.julia/environments/v1.6/Manifest.toml`
  [621f4979] + AbstractFFTs v0.5.0
  [7e558dbc] + ArbNumerics v1.2.1
  [b99e7846] + BinaryProvider v0.5.10
  [e66e0078] + CompilerSupportLibraries_jll v0.3.3+0
  [7a1cc6ca] + FFTW v1.2.4
  [f5851436] + FFTW_jll v3.3.9+5
  [01680d73] + GenericSVD v0.3.0
  [c145ed77] + GenericSchur v0.4.0
  [1d5cc7b8] + IntelOpenMP_jll v2018.0.3+0
  [856f044c] + MKL_jll v2020.2.254+0
  [efe28fd5] + OpenSpecFun_jll v0.5.3+3
  [0d4725de] + Readables v0.3.3
  [189a3867] + Reexport v0.2.0
  [276daf66] + SpecialFunctions v0.10.3
  [0dd23c3e] + TwoFAST v0.1.3
  [56f22d72] + Artifacts
  [2a0f44e3] + Base64
  [ade2ca70] + Dates
  [8bb1440f] + DelimitedFiles
  [8ba89e20] + Distributed
  [b77e0a4c] + InteractiveUtils
  [76f85450] + LibGit2
  [8f399da3] + Libdl
  [37e2e46d] + LinearAlgebra
  [56ddb016] + Logging
  [d6f4376e] + Markdown
  [a63ad114] + Mmap
  [44cfe95a] + Pkg
  [de0858da] + Printf
  [3fa0cd96] + REPL
  [9a3f8284] + Random
  [ea8e919c] + SHA
  [9e88b42a] + Serialization
  [6462fe0b] + Sockets
  [fa267f1f] + TOML
  [8dfed614] + Test
  [cf7118a7] + UUIDs
  [4ec0a83e] + Unicode
   Building ArbNumerics → `~/.julia/scratchspaces/44cfe95a-1eb2-52ea-b672-e2afdf69b78f/329a81d67c64e3a51c176a243b6424fbe39213d0/build.log`
   Building FFTW ───────→ `~/.julia/scratchspaces/44cfe95a-1eb2-52ea-b672-e2afdf69b78f/8b7c16b56936047ca41bf25effa137ae0b381ae8/build.log`
    Testing TwoFAST
Status `/tmp/jl_QeF8U4/Project.toml`
  [7e558dbc] ArbNumerics v1.2.1
  [39dd38d3] Dierckx v0.5.0
  [7a1cc6ca] FFTW v1.2.4
  [276daf66] SpecialFunctions v0.10.3
  [0dd23c3e] TwoFAST v0.1.3
  [8bb1440f] DelimitedFiles
  [37e2e46d] LinearAlgebra
  [56ddb016] Logging
  [8dfed614] Test
Status `/tmp/jl_QeF8U4/Manifest.toml`
  [621f4979] AbstractFFTs v0.5.0
  [7e558dbc] ArbNumerics v1.2.1
  [b99e7846] BinaryProvider v0.5.10
  [e66e0078] CompilerSupportLibraries_jll v0.3.3+0
  [39dd38d3] Dierckx v0.5.0
  [cd4c43a9] Dierckx_jll v0.0.1+0
  [7a1cc6ca] FFTW v1.2.4
  [f5851436] FFTW_jll v3.3.9+5
  [01680d73] GenericSVD v0.3.0
  [c145ed77] GenericSchur v0.4.0
  [1d5cc7b8] IntelOpenMP_jll v2018.0.3+0
  [856f044c] MKL_jll v2020.2.254+0
  [efe28fd5] OpenSpecFun_jll v0.5.3+3
  [0d4725de] Readables v0.3.3
  [189a3867] Reexport v0.2.0
  [276daf66] SpecialFunctions v0.10.3
  [0dd23c3e] TwoFAST v0.1.3
  [56f22d72] Artifacts
  [2a0f44e3] Base64
  [ade2ca70] Dates
  [8bb1440f] DelimitedFiles
  [8ba89e20] Distributed
  [b77e0a4c] InteractiveUtils
  [76f85450] LibGit2
  [8f399da3] Libdl
  [37e2e46d] LinearAlgebra
  [56ddb016] Logging
  [d6f4376e] Markdown
  [a63ad114] Mmap
  [44cfe95a] Pkg
  [de0858da] Printf
  [3fa0cd96] REPL
  [9a3f8284] Random
  [ea8e919c] SHA
  [9e88b42a] Serialization
  [6462fe0b] Sockets
  [fa267f1f] TOML
  [8dfed614] Test
  [cf7118a7] UUIDs
  [4ec0a83e] Unicode
    Testing Running tests...
WARNING: could not import Printf.ini_hex into ArbNumerics
WARNING: could not import Printf.ini_HEX into ArbNumerics
t = 0.0 sec (0 allocations: 0 byte, 0.0% gc time)
typeof(t) = NamedTuple{(:value, :time, :bytes, :gctime, :gcstats), Tuple{DataType, Float64, Int64, Float64, Base.GC_Diff}}
TwoFAST.PerformanceStats.TimedType = Union{NamedTuple{(:value, :time, :bytes, :gctime, :gcstats), Tuple{T, Float64, Int64, Float64, Base.GC_Diff}}, Tuple{Any, Float64, Int64, Float64, Base.GC_Diff}} where T
t = 0.0 sec (0 allocations: 0 byte, 0.0% gc time)
t: 0.0 sec (0 allocations: 0 byte, 0.0% gc time)
Testing ξ(r), ℓ=0, ν=-1 ... passed
Testing ξ(r), ℓ=0, ν=0 ... passed
Testing ξ(r), ℓ=0, ν=1 ... passed
Testing ξ(r), ℓ=0, ν=2 ... passed
Testing ξ(r), ℓ=0, ν=3 ... passed
Testing ξ(r), ℓ=1, ν=0 ... passed
Testing ξ(r), ℓ=1, ν=1 ... passed
Testing ξ(r), ℓ=1, ν=2 ... passed
Testing ξ(r), ℓ=1, ν=3 ... passed
Testing ξ(r), ℓ=2, ν=-1 ... passed
Testing ξ(r), ℓ=2, ν=0 ... passed
Testing ξ(r), ℓ=2, ν=1 ... passed
Testing ξ(r), ℓ=2, ν=2 ... passed
Testing ξ(r), ℓ=2, ν=3 ... passed
Testing ξ(r), ℓ=3, ν=-1 ... passed
Testing ξ(r), ℓ=3, ν=0 ... passed
Testing ξ(r), ℓ=3, ν=1 ... passed
Testing ξ(r), ℓ=3, ν=2 ... passed
Testing ξ(r), ℓ=3, ν=3 ... passed
Testing ξ(r), ℓ=4, ν=-1 ... passed
Testing ξ(r), ℓ=4, ν=0 ... passed
Testing ξ(r), ℓ=4, ν=1 ... passed
Testing ξ(r), ℓ=4, ν=2 ... passed
Testing ξ(r), ℓ=4, ν=3 ... passed
Testing ξ(r) ... passed
Testing ξ′(r) ... passed
Testing ξ″(r) ... passed
Calculating fmax: 
  dlrec    = 4
  dlrecRg1 = -4
  q=1.1, R=1.1:	  3.513894 seconds (854.74 k allocations: 54.898 MiB, 0.89% gc time, 92.60% compilation time)

  3.532287 seconds (867.58 k allocations: 55.713 MiB, 0.89% gc time, 92.63% compilation time)
ℓ = 1202
Δℓ = 4
ΔℓRg1 = -4
N = 1600
q = 1.1
kmin = 1.0e-5
kmax = 100000.00000000004
χ0 = 0.023029999999999995
RR = RR.tsv
ℓmax = ℓmax.bin
f21 = f21.bin
kmin = 1.0e-5
kmax = 100000.0
dlrec    = 4
dlrecRg1 = -4
Output size: 5741568 bytes = 0.005347251892089844 GiB
Output size: 51264 bytes = 4.774332046508789e-5 GiB
Reading 'out/F21EllCache'...   0.623739 seconds (436.89 k allocations: 25.783 MiB, 99.61% compilation time)
ellmax: 1202
lmaxcache: 1202
fell[:,1,1] = ComplexF64[3.9583795592771634e-52 - 9.695233714158177e-68im, 3.990121772925759e-52 - 9.772979714843386e-68im]
ell 1202, elapsed: 4.00543212890625e-5
ell 1201, elapsed: 1.0457050800323486
ell 1200, elapsed: 0.0005369186401367188
ell 1199, elapsed: 0.0005059242248535156
ell 1198, elapsed: 0.0007510185241699219
ell 1002, elapsed: 0.009931802749633789
ell 1001, elapsed: 0.0004620552062988281
ell 1000, elapsed: 0.00044798851013183594
ell 999, elapsed: 0.0006878376007080078
ell 998, elapsed: 0.00046706199645996094
ell 902, elapsed: 0.004717111587524414
ell 901, elapsed: 0.0003859996795654297
ell 900, elapsed: 0.0003848075866699219
ell 899, elapsed: 0.0003809928894042969
ell 898, elapsed: 0.0003771781921386719
ell 802, elapsed: 0.004290103912353516
ell 801, elapsed: 0.0004448890686035156
ell 800, elapsed: 0.0003788471221923828
ell 799, elapsed: 0.00037598609924316406
ell 798, elapsed: 0.00037407875061035156
ell 702, elapsed: 0.004028797149658203
ell 701, elapsed: 0.00037097930908203125
ell 700, elapsed: 0.000370025634765625
ell 699, elapsed: 0.0003731250762939453
ell 698, elapsed: 0.00037407875061035156
ell 602, elapsed: 0.00410008430480957
ell 601, elapsed: 0.00037598609924316406
ell 600, elapsed: 0.000370025634765625
ell 599, elapsed: 0.0003829002380371094
ell 598, elapsed: 0.00036907196044921875
ell 502, elapsed: 0.004008054733276367
ell 501, elapsed: 0.0003879070281982422
ell 500, elapsed: 0.00036406517028808594
ell 499, elapsed: 0.0003612041473388672
ell 498, elapsed: 0.0003628730773925781
ell 402, elapsed: 0.003942012786865234
ell 401, elapsed: 0.00037217140197753906
ell 400, elapsed: 0.00037288665771484375
ell 399, elapsed: 0.0003750324249267578
ell 398, elapsed: 0.0003619194030761719
ell 302, elapsed: 0.003970146179199219
ell 301, elapsed: 0.00040411949157714844
ell 300, elapsed: 0.00036907196044921875
ell 299, elapsed: 0.0003619194030761719
ell 298, elapsed: 0.0003609657287597656
ell 202, elapsed: 0.003946065902709961
ell 201, elapsed: 0.00036597251892089844
ell 200, elapsed: 0.0003731250762939453
ell 199, elapsed: 0.0003688335418701172
ell 198, elapsed: 0.0003688335418701172
ell 152, elapsed: 0.0021288394927978516
ell 151, elapsed: 0.00036406517028808594
ell 150, elapsed: 0.00040793418884277344
ell 149, elapsed: 0.00037217140197753906
ell 148, elapsed: 0.00037288665771484375
ell 127, elapsed: 0.001149892807006836
ell 126, elapsed: 0.00039196014404296875
ell 125, elapsed: 0.00036597251892089844
ell 124, elapsed: 0.000370025634765625
ell 123, elapsed: 0.0003650188446044922
ell 114, elapsed: 0.0006909370422363281
ell 113, elapsed: 0.0003600120544433594
ell 112, elapsed: 0.0003669261932373047
ell 111, elapsed: 0.0003750324249267578
ell 110, elapsed: 0.00038504600524902344
ell 102, elapsed: 0.0007379055023193359
ell 101, elapsed: 0.0003719329833984375
ell 100, elapsed: 0.0003638267517089844
ell 99, elapsed: 0.0003590583801269531
ell 98, elapsed: 0.00036406517028808594
ell 97, elapsed: 0.000392913818359375
ell 96, elapsed: 0.0004010200500488281
ell 95, elapsed: 0.0003941059112548828
ell 94, elapsed: 0.0004000663757324219
ell 93, elapsed: 0.0003979206085205078
ell 92, elapsed: 0.000518798828125
ell 91, elapsed: 0.0005140304565429688
ell 90, elapsed: 0.0005118846893310547
ell 89, elapsed: 0.0005140304565429688
ell 88, elapsed: 0.0005199909210205078
ell 87, elapsed: 0.0005078315734863281
ell 86, elapsed: 0.0005199909210205078
ell 85, elapsed: 0.0005240440368652344
ell 84, elapsed: 0.0005040168762207031
ell 83, elapsed: 0.0005099773406982422
ell 82, elapsed: 0.0005130767822265625
ell 81, elapsed: 0.0005130767822265625
ell 80, elapsed: 0.0005130767822265625
ell 79, elapsed: 0.0005109310150146484
ell 78, elapsed: 0.0005168914794921875
ell 77, elapsed: 0.0005471706390380859
ell 76, elapsed: 0.0005130767822265625
ell 75, elapsed: 0.00051116943359375
ell 74, elapsed: 0.0005300045013427734
ell 73, elapsed: 0.0005199909210205078
ell 72, elapsed: 0.0005159378051757812
ell 71, elapsed: 0.0005230903625488281
ell 70, elapsed: 0.0005359649658203125
ell 69, elapsed: 0.0005171298980712891
ell 68, elapsed: 0.0005168914794921875
ell 67, elapsed: 0.0005180835723876953
ell 66, elapsed: 0.0005321502685546875
ell 65, elapsed: 0.0005240440368652344
ell 64, elapsed: 0.0005290508270263672
ell 63, elapsed: 0.0005438327789306641
ell 62, elapsed: 0.0005230903625488281
ell 61, elapsed: 0.0005311965942382812
ell 60, elapsed: 0.0005271434783935547
ell 59, elapsed: 0.0005328655242919922
ell 58, elapsed: 0.0005259513854980469
ell 57, elapsed: 0.0005359649658203125
ell 56, elapsed: 0.0005719661712646484
ell 55, elapsed: 0.0005428791046142578
ell 54, elapsed: 0.0005409717559814453
ell 53, elapsed: 0.0005381107330322266
ell 52, elapsed: 0.0005350112915039062
ell 51, elapsed: 0.0005369186401367188
ell 50, elapsed: 0.0005290508270263672
ell 49, elapsed: 0.0005588531494140625
ell 48, elapsed: 0.0005278587341308594
ell 47, elapsed: 0.0005300045013427734
ell 46, elapsed: 0.0005309581756591797
ell 45, elapsed: 0.0005300045013427734
ell 44, elapsed: 0.0005450248718261719
ell 43, elapsed: 0.0005300045013427734
ell 42, elapsed: 0.0005629062652587891
ell 41, elapsed: 0.0005369186401367188
ell 40, elapsed: 0.0005278587341308594
ell 39, elapsed: 0.0005340576171875
ell 38, elapsed: 0.0005259513854980469
ell 37, elapsed: 0.0005309581756591797
ell 36, elapsed: 0.0005450248718261719
ell 35, elapsed: 0.0005309581756591797
ell 34, elapsed: 0.0005440711975097656
ell 33, elapsed: 0.0005290508270263672
ell 32, elapsed: 0.0005280971527099609
ell 31, elapsed: 0.0005428791046142578
ell 30, elapsed: 0.0005269050598144531
ell 29, elapsed: 0.0005669593811035156
ell 28, elapsed: 0.0005347728729248047
ell 27, elapsed: 0.0005381107330322266
ell 26, elapsed: 0.0005180835723876953
ell 25, elapsed: 0.002660989761352539
ell 24, elapsed: 0.0005290508270263672
ell 23, elapsed: 0.0005078315734863281
ell 22, elapsed: 0.0005102157592773438
ell 21, elapsed: 0.0005140304565429688
ell 20, elapsed: 0.0005168914794921875
ell 19, elapsed: 0.0005221366882324219
ell 18, elapsed: 0.0005409717559814453
ell 17, elapsed: 0.0005259513854980469
ell 16, elapsed: 0.000514984130859375
ell 15, elapsed: 0.0005099773406982422
ell 14, elapsed: 0.0005309581756591797
ell 13, elapsed: 0.0005259513854980469
ell 12, elapsed: 0.0005278587341308594
ell 11, elapsed: 0.0005400180816650391
ell 10, elapsed: 0.0005071163177490234
ell 9, elapsed: 0.0005090236663818359
ell 8, elapsed: 0.0005178451538085938
ell 7, elapsed: 0.0005230903625488281
ell 6, elapsed: 0.00047898292541503906
ell 5, elapsed: 0.0005078315734863281
ell 4, elapsed: 0.0005669593811035156
ell 3, elapsed: 0.0004868507385253906
ell 2, elapsed: 0.0005388259887695312
ell 1, elapsed: 0.0005209445953369141
ell 0, elapsed: 0.0005240440368652344
  1.515123 seconds (1.40 M allocations: 76.218 MiB, 3.35% gc time, 91.46% compilation time)
elapsed: 0.0006821155548095703
step:          0.303345 sec (315.778 k allocations: 17.396 MB, 6.61% gc time)
swapping:      0.000328 sec (0 allocations: 0 byte, 0.0% gc time)
calc_Mellell!: 0.123547 sec (137.7 k allocations: 7.624 MB, 24.88% gc time)
  t0 :  0.0 sec (0 allocations: 0 byte, 0.0% gc time)
  tm2 : 0.0 sec (0 allocations: 0 byte, 0.0% gc time)
  tm2s: 0.0 sec (0 allocations: 0 byte, 0.0% gc time)
  tm4 : 0.0 sec (0 allocations: 0 byte, 0.0% gc time)
  tp2 : 0.0 sec (0 allocations: 0 byte, 0.0% gc time)
  tp2s: 0.0 sec (0 allocations: 0 byte, 0.0% gc time)
  tp4 : 0.0 sec (0 allocations: 0 byte, 0.0% gc time)
calc_wtdll!:   0.73012 sec (514.996 k allocations: 28.643 MB, 0.0% gc time)
calc_wljj!:    0.00192 sec (6 allocations: 96 byte, 0.0% gc time)
mult_prefac!:  0.0 sec (0 allocations: 0 byte, 0.0% gc time)
convert:       0.0 sec (0 allocations: 0 byte, 0.0% gc time)
write:         0.004902 sec (0 allocations: 0 byte, 0.0% gc time)
test_rand_2f1: 0.0 sec (0 allocations: 0 byte, 0.0% gc time)
Closing outfile out/Ml21-cache.bin...   0.000015 seconds
  0.905145 seconds (251.78 k allocations: 14.642 MiB, 36.62% compilation time)
make_phi():   0.008416 seconds (8.18 k allocations: 237.844 KiB)
  0.299898 seconds (89.38 k allocations: 4.883 MiB, 95.77% compilation time)
tskip:       2.1e-5 sec (0 allocations: 0 byte, 0.0% gc time)
tread:       0.002484 sec (17 allocations: 2.125 KB, 0.0% gc time)
tmultphi:    0.033267 sec (22.005 k allocations: 1.33 MB, 0.0% gc time)
tbrfft:      0.003598 sec (0 allocations: 0 byte, 0.0% gc time)
tmultprefac: 0.001601 sec (0 allocations: 0 byte, 0.0% gc time)
toutfunc:    0.216525 sec (65.712 k allocations: 3.422 MB, 0.0% gc time)
Testing R=1.1 ... passed
Calculating fmax: 
  dlrec    = 4
  dlrecRg1 = -4
  q=1.1, R=1.0:	  0.000846 seconds (3.20 k allocations: 275.344 KiB)

  0.000921 seconds (3.25 k allocations: 309.984 KiB)
ℓ = 1202
Δℓ = 4
ΔℓRg1 = -4
N = 1600
q = 1.1
kmin = 1.0e-5
kmax = 100000.00000000004
χ0 = 0.023029999999999995
RR = RR.tsv
ℓmax = ℓmax.bin
f21 = f21.bin
kmin = 1.0e-5
kmax = 100000.0
dlrec    = 4
dlrecRg1 = -4
Output size: 61465536 bytes = 0.05724424123764038 GiB
Output size: 51264 bytes = 4.774332046508789e-5 GiB
Reading 'out/F21EllCache'...   0.000607 seconds (197 allocations: 84.203 KiB)
ellmax: 1202
lmaxcache: 1202
fell[:,1,1] = ComplexF64[809.6031528389767 - 1.9829558194077161e-13im, 0.0 + 0.0im]
ell 1202, elapsed: 2.7179718017578125e-5
ell 1201, elapsed: 0.02176690101623535
ell 1200, elapsed: 0.011259078979492188
ell 1199, elapsed: 0.0002269744873046875
ell 1198, elapsed: 0.00022101402282714844
ell 1197, elapsed: 0.0002789497375488281
ell 1196, elapsed: 0.00024700164794921875
ell 1195, elapsed: 0.00024318695068359375
ell 1194, elapsed: 0.00024580955505371094
ell 1193, elapsed: 0.000244140625
ell 1192, elapsed: 0.00024700164794921875
ell 1191, elapsed: 0.00026798248291015625
ell 1190, elapsed: 0.00024199485778808594
ell 1189, elapsed: 0.0002429485321044922
ell 1188, elapsed: 0.0002429485321044922
ell 1187, elapsed: 0.00024199485778808594
ell 1186, elapsed: 0.0002460479736328125
ell 1185, elapsed: 0.00024199485778808594
ell 1184, elapsed: 0.0002429485321044922
ell 1183, elapsed: 0.00025010108947753906
ell 1182, elapsed: 0.00024318695068359375
ell 1181, elapsed: 0.0002510547637939453
ell 1180, elapsed: 0.00024199485778808594
ell 1179, elapsed: 0.0002429485321044922
ell 1178, elapsed: 0.00026798248291015625
ell 1177, elapsed: 0.00024390220642089844
ell 1176, elapsed: 0.00028514862060546875
ell 1175, elapsed: 0.0002460479736328125
ell 1174, elapsed: 0.00024509429931640625
ell 1173, elapsed: 0.00025081634521484375
ell 1172, elapsed: 0.0002429485321044922
ell 1171, elapsed: 0.000247955322265625
ell 1170, elapsed: 0.0002391338348388672
ell 1169, elapsed: 0.0002460479736328125
ell 1168, elapsed: 0.0002429485321044922
ell 1167, elapsed: 0.0002410411834716797
ell 1166, elapsed: 0.00024509429931640625
ell 1165, elapsed: 0.00025010108947753906
ell 1164, elapsed: 0.000247955322265625
ell 1163, elapsed: 0.00024390220642089844
ell 1162, elapsed: 0.00024199485778808594
ell 1161, elapsed: 0.00025010108947753906
ell 1160, elapsed: 0.0002598762512207031
ell 1159, elapsed: 0.0002491474151611328
ell 1158, elapsed: 0.00024390220642089844
ell 1157, elapsed: 0.00024080276489257812
ell 1156, elapsed: 0.0002510547637939453
ell 1155, elapsed: 0.00024318695068359375
ell 1154, elapsed: 0.0002541542053222656
ell 1153, elapsed: 0.00025010108947753906
ell 1152, elapsed: 0.00024700164794921875
ell 1151, elapsed: 0.00024700164794921875
ell 1150, elapsed: 0.00024509429931640625
ell 1149, elapsed: 0.00025200843811035156
ell 1148, elapsed: 0.00024509429931640625
ell 1147, elapsed: 0.0002448558807373047
ell 1146, elapsed: 0.0002529621124267578
ell 1145, elapsed: 0.0002548694610595703
ell 1144, elapsed: 0.00024890899658203125
ell 1143, elapsed: 0.00024199485778808594
ell 1142, elapsed: 0.0002460479736328125
ell 1141, elapsed: 0.00025010108947753906
ell 1140, elapsed: 0.00024199485778808594
ell 1139, elapsed: 0.000247955322265625
ell 1138, elapsed: 0.00025010108947753906
ell 1137, elapsed: 0.0002429485321044922
ell 1136, elapsed: 0.0002498626708984375
ell 1135, elapsed: 0.0002448558807373047
ell 1134, elapsed: 0.0002589225769042969
ell 1133, elapsed: 0.000244140625
ell 1132, elapsed: 0.00024509429931640625
ell 1131, elapsed: 0.00024819374084472656
ell 1130, elapsed: 0.00024390220642089844
ell 1129, elapsed: 0.0002791881561279297
ell 1128, elapsed: 0.0002460479736328125
ell 1127, elapsed: 0.000244140625
ell 1126, elapsed: 0.0002529621124267578
ell 1125, elapsed: 0.00024390220642089844
ell 1124, elapsed: 0.0002510547637939453
ell 1123, elapsed: 0.00024390220642089844
ell 1122, elapsed: 0.0002429485321044922
ell 1121, elapsed: 0.0002510547637939453
ell 1120, elapsed: 0.00024390220642089844
ell 1119, elapsed: 0.0002498626708984375
ell 1118, elapsed: 0.000244140625
ell 1117, elapsed: 0.00024890899658203125
ell 1116, elapsed: 0.000244140625
ell 1115, elapsed: 0.00024390220642089844
ell 1114, elapsed: 0.00026679039001464844
ell 1113, elapsed: 0.0002448558807373047
ell 1112, elapsed: 0.00027298927307128906
ell 1111, elapsed: 0.00026488304138183594
ell 1110, elapsed: 0.00024890899658203125
ell 1109, elapsed: 0.0002579689025878906
ell 1108, elapsed: 0.00024318695068359375
ell 1107, elapsed: 0.00025010108947753906
ell 1106, elapsed: 0.0002429485321044922
ell 1105, elapsed: 0.00024700164794921875
ell 1104, elapsed: 0.0002491474151611328
ell 1103, elapsed: 0.0002551078796386719
ell 1102, elapsed: 0.0002570152282714844
ell 1101, elapsed: 0.00024700164794921875
ell 1100, elapsed: 0.0002429485321044922
ell 1099, elapsed: 0.0003039836883544922
ell 1098, elapsed: 0.00024700164794921875
ell 1097, elapsed: 0.0002560615539550781
ell 1096, elapsed: 0.0002460479736328125
ell 1095, elapsed: 0.00024390220642089844
ell 1094, elapsed: 0.0002498626708984375
ell 1093, elapsed: 0.00024199485778808594
ell 1092, elapsed: 0.00025391578674316406
ell 1091, elapsed: 0.00024199485778808594
ell 1090, elapsed: 0.000244140625
ell 1089, elapsed: 0.0002498626708984375
ell 1088, elapsed: 0.00025391578674316406
ell 1087, elapsed: 0.0002510547637939453
ell 1086, elapsed: 0.000247955322265625
ell 1085, elapsed: 0.0002460479736328125
ell 1084, elapsed: 0.0002751350402832031
ell 1083, elapsed: 0.00024700164794921875
ell 1082, elapsed: 0.00025010108947753906
ell 1081, elapsed: 0.00024199485778808594
ell 1080, elapsed: 0.0002429485321044922
ell 1079, elapsed: 0.0002491474151611328
ell 1078, elapsed: 0.00024390220642089844
ell 1077, elapsed: 0.000247955322265625
ell 1076, elapsed: 0.0002448558807373047
ell 1075, elapsed: 0.0002429485321044922
ell 1074, elapsed: 0.0002510547637939453
ell 1073, elapsed: 0.00024199485778808594
ell 1072, elapsed: 0.00024819374084472656
ell 1071, elapsed: 0.0002429485321044922
ell 1070, elapsed: 0.00024509429931640625
ell 1069, elapsed: 0.0002460479736328125
ell 1068, elapsed: 0.0002579689025878906
ell 1067, elapsed: 0.0002491474151611328
ell 1066, elapsed: 0.0002460479736328125
ell 1065, elapsed: 0.00024390220642089844
ell 1064, elapsed: 0.00024700164794921875
ell 1063, elapsed: 0.00023794174194335938
ell 1062, elapsed: 0.000247955322265625
ell 1061, elapsed: 0.0002410411834716797
ell 1060, elapsed: 0.00024700164794921875
ell 1059, elapsed: 0.00024199485778808594
ell 1058, elapsed: 0.0002410411834716797
ell 1057, elapsed: 0.00024700164794921875
ell 1056, elapsed: 0.0002410411834716797
ell 1055, elapsed: 0.00024890899658203125
ell 1054, elapsed: 0.00024008750915527344
ell 1053, elapsed: 0.00024390220642089844
ell 1052, elapsed: 0.000247955322265625
ell 1051, elapsed: 0.0002429485321044922
ell 1050, elapsed: 0.00024700164794921875
ell 1049, elapsed: 0.0002429485321044922
ell 1048, elapsed: 0.0002410411834716797
ell 1047, elapsed: 0.00024700164794921875
ell 1046, elapsed: 0.00024318695068359375
ell 1045, elapsed: 0.0002460479736328125
ell 1044, elapsed: 0.00023889541625976562
ell 1043, elapsed: 0.00024008750915527344
ell 1042, elapsed: 0.00025391578674316406
ell 1041, elapsed: 0.00023984909057617188
ell 1040, elapsed: 0.00024700164794921875
ell 1039, elapsed: 0.00024390220642089844
ell 1038, elapsed: 0.00024318695068359375
ell 1037, elapsed: 0.00032520294189453125
ell 1036, elapsed: 0.0002911090850830078
ell 1035, elapsed: 0.0002732276916503906
ell 1034, elapsed: 0.0002689361572265625
ell 1033, elapsed: 0.0002689361572265625
ell 1032, elapsed: 0.00027179718017578125
ell 1031, elapsed: 0.00026917457580566406
ell 1030, elapsed: 0.0002739429473876953
ell 1029, elapsed: 0.0002689361572265625
ell 1028, elapsed: 0.0002739429473876953
ell 1027, elapsed: 0.00033593177795410156
ell 1026, elapsed: 0.0003650188446044922
ell 1025, elapsed: 0.0004191398620605469
ell 1024, elapsed: 0.00029587745666503906
ell 1023, elapsed: 0.00029015541076660156
ell 1022, elapsed: 0.00029587745666503906
ell 1021, elapsed: 0.0002880096435546875
ell 1020, elapsed: 0.00029397010803222656
ell 1019, elapsed: 0.0002899169921875
ell 1018, elapsed: 0.0002911090850830078
ell 1017, elapsed: 0.0002970695495605469
ell 1016, elapsed: 0.0002961158752441406
ell 1015, elapsed: 0.00029397010803222656
ell 1014, elapsed: 0.00028896331787109375
ell 1013, elapsed: 0.00029397010803222656
ell 1012, elapsed: 0.0003879070281982422
ell 1011, elapsed: 0.0003631114959716797
ell 1010, elapsed: 0.00037789344787597656
ell 1009, elapsed: 0.00036787986755371094
ell 1008, elapsed: 0.00036907196044921875
ell 1007, elapsed: 0.0003688335418701172
ell 1006, elapsed: 0.0003669261932373047
ell 1005, elapsed: 0.0003750324249267578
ell 1004, elapsed: 0.0003631114959716797
ell 1003, elapsed: 0.00037407875061035156
ell 1002, elapsed: 0.0003361701965332031
ell 1001, elapsed: 0.000308990478515625
ell 1000, elapsed: 0.0002980232238769531
ell 999, elapsed: 0.00030994415283203125
ell 998, elapsed: 0.0002968311309814453
ell 997, elapsed: 0.0003218650817871094
ell 996, elapsed: 0.00029921531677246094
ell 995, elapsed: 0.0002942085266113281
ell 994, elapsed: 0.00029015541076660156
ell 993, elapsed: 0.0002980232238769531
ell 992, elapsed: 0.00029087066650390625
ell 991, elapsed: 0.00029015541076660156
ell 990, elapsed: 0.0003681182861328125
ell 989, elapsed: 0.0002999305725097656
ell 988, elapsed: 0.000308990478515625
ell 987, elapsed: 0.0002970695495605469
ell 986, elapsed: 0.00029397010803222656
ell 985, elapsed: 0.0003020763397216797
ell 984, elapsed: 0.0002949237823486328
ell 983, elapsed: 0.0003151893615722656
ell 982, elapsed: 0.00029587745666503906
ell 981, elapsed: 0.00030612945556640625
ell 980, elapsed: 0.0003058910369873047
ell 979, elapsed: 0.0002961158752441406
ell 978, elapsed: 0.0002980232238769531
ell 977, elapsed: 0.00031685829162597656
ell 976, elapsed: 0.0002951622009277344
ell 975, elapsed: 0.0003018379211425781
ell 974, elapsed: 0.00029778480529785156
ell 973, elapsed: 0.00030803680419921875
ell 972, elapsed: 0.00030112266540527344
ell 971, elapsed: 0.00029587745666503906
ell 970, elapsed: 0.0002999305725097656
ell 969, elapsed: 0.0002999305725097656
ell 968, elapsed: 0.00030612945556640625
ell 967, elapsed: 0.0003039836883544922
ell 966, elapsed: 0.0003008842468261719
ell 965, elapsed: 0.0003418922424316406
ell 964, elapsed: 0.00030112266540527344
ell 963, elapsed: 0.0002989768981933594
ell 962, elapsed: 0.00031685829162597656
ell 961, elapsed: 0.00029587745666503906
ell 960, elapsed: 0.00030303001403808594
ell 959, elapsed: 0.00029397010803222656
ell 958, elapsed: 0.00030303001403808594
ell 957, elapsed: 0.0002949237823486328
ell 956, elapsed: 0.0003001689910888672
ell 955, elapsed: 0.0002961158752441406
ell 954, elapsed: 0.0002968311309814453
ell 953, elapsed: 0.00030112266540527344
ell 952, elapsed: 0.00032901763916015625
ell 951, elapsed: 0.0003020763397216797
ell 950, elapsed: 0.00030493736267089844
ell 949, elapsed: 0.0003139972686767578
ell 948, elapsed: 0.000308990478515625
ell 947, elapsed: 0.0003039836883544922
ell 946, elapsed: 0.00037789344787597656
ell 945, elapsed: 0.00036787986755371094
ell 944, elapsed: 0.0003960132598876953
ell 943, elapsed: 0.00037789344787597656
ell 942, elapsed: 0.00040602684020996094
ell 941, elapsed: 0.00035309791564941406
ell 940, elapsed: 0.00036215782165527344
ell 939, elapsed: 0.0003628730773925781
ell 938, elapsed: 0.000370025634765625
ell 937, elapsed: 0.0003669261932373047
ell 936, elapsed: 0.0003809928894042969
ell 935, elapsed: 0.00036597251892089844
ell 934, elapsed: 0.000370025634765625
ell 933, elapsed: 0.00037598609924316406
ell 932, elapsed: 0.0003769397735595703
ell 931, elapsed: 0.00037598609924316406
ell 930, elapsed: 0.00036907196044921875
ell 929, elapsed: 0.00036597251892089844
ell 928, elapsed: 0.0003800392150878906
ell 927, elapsed: 0.00037097930908203125
ell 926, elapsed: 0.0003840923309326172
ell 925, elapsed: 0.00037097930908203125
ell 924, elapsed: 0.00037598609924316406
ell 923, elapsed: 0.00039196014404296875
ell 922, elapsed: 0.00037097930908203125
ell 921, elapsed: 0.00036597251892089844
ell 920, elapsed: 0.00035881996154785156
ell 919, elapsed: 0.0003571510314941406
ell 918, elapsed: 0.0003840923309326172
ell 917, elapsed: 0.0003769397735595703
ell 916, elapsed: 0.0003769397735595703
ell 915, elapsed: 0.00037217140197753906
ell 914, elapsed: 0.0003712177276611328
ell 913, elapsed: 0.0004260540008544922
ell 912, elapsed: 0.000370025634765625
ell 911, elapsed: 0.0003809928894042969
ell 910, elapsed: 0.00036716461181640625
ell 909, elapsed: 0.00037097930908203125
ell 908, elapsed: 0.0003750324249267578
ell 907, elapsed: 0.00037288665771484375
ell 906, elapsed: 0.00037217140197753906
ell 905, elapsed: 0.00036907196044921875
ell 904, elapsed: 0.0003948211669921875
ell 903, elapsed: 0.0003771781921386719
ell 902, elapsed: 0.00036597251892089844
ell 901, elapsed: 0.0003788471221923828
ell 900, elapsed: 0.0003819465637207031
ell 899, elapsed: 0.00037789344787597656
ell 898, elapsed: 0.000370025634765625
ell 897, elapsed: 0.000370025634765625
ell 896, elapsed: 0.0003790855407714844
ell 895, elapsed: 0.0003669261932373047
ell 894, elapsed: 0.0003421306610107422
ell 893, elapsed: 0.00032520294189453125
ell 892, elapsed: 0.0003571510314941406
ell 891, elapsed: 0.0003750324249267578
ell 890, elapsed: 0.0003731250762939453
ell 889, elapsed: 0.00037384033203125
ell 888, elapsed: 0.0003681182861328125
ell 887, elapsed: 0.0003669261932373047
ell 886, elapsed: 0.00037789344787597656
ell 885, elapsed: 0.00040984153747558594
ell 884, elapsed: 0.0003619194030761719
ell 883, elapsed: 0.00036907196044921875
ell 882, elapsed: 0.000370025634765625
ell 881, elapsed: 0.00036907196044921875
ell 880, elapsed: 0.0003731250762939453
ell 879, elapsed: 0.00037407875061035156
ell 878, elapsed: 0.0003750324249267578
ell 877, elapsed: 0.0003750324249267578
ell 876, elapsed: 0.0003170967102050781
ell 875, elapsed: 0.0003249645233154297
ell 874, elapsed: 0.0002970695495605469
ell 873, elapsed: 0.0003001689910888672
ell 872, elapsed: 0.0002989768981933594
ell 871, elapsed: 0.0002999305725097656
ell 870, elapsed: 0.0003058910369873047
ell 869, elapsed: 0.00031685829162597656
ell 868, elapsed: 0.000308990478515625
ell 867, elapsed: 0.0003380775451660156
ell 866, elapsed: 0.0003337860107421875
ell 865, elapsed: 0.0003299713134765625
ell 864, elapsed: 0.00032591819763183594
ell 863, elapsed: 0.0003509521484375
ell 862, elapsed: 0.00032210350036621094
ell 861, elapsed: 0.0003509521484375
ell 860, elapsed: 0.00030994415283203125
ell 859, elapsed: 0.0003018379211425781
ell 858, elapsed: 0.00029206275939941406
ell 857, elapsed: 0.0002930164337158203
ell 856, elapsed: 0.0002970695495605469
ell 855, elapsed: 0.00029397010803222656
ell 854, elapsed: 0.0002999305725097656
ell 853, elapsed: 0.0002911090850830078
ell 852, elapsed: 0.000308990478515625
ell 851, elapsed: 0.00035190582275390625
ell 850, elapsed: 0.00029206275939941406
ell 849, elapsed: 0.00030303001403808594
ell 848, elapsed: 0.00029206275939941406
ell 847, elapsed: 0.0002930164337158203
ell 846, elapsed: 0.00028586387634277344
ell 845, elapsed: 0.00030493736267089844
ell 844, elapsed: 0.00026702880859375
ell 843, elapsed: 0.00024509429931640625
ell 842, elapsed: 0.0002570152282714844
ell 841, elapsed: 0.00024580955505371094
ell 840, elapsed: 0.0002448558807373047
ell 839, elapsed: 0.0002560615539550781
ell 838, elapsed: 0.0002739429473876953
ell 837, elapsed: 0.0003190040588378906
ell 836, elapsed: 0.00028896331787109375
ell 835, elapsed: 0.0002970695495605469
ell 834, elapsed: 0.00030803680419921875
ell 833, elapsed: 0.0002989768981933594
ell 832, elapsed: 0.0003058910369873047
ell 831, elapsed: 0.0002841949462890625
ell 830, elapsed: 0.0002818107604980469
ell 829, elapsed: 0.00029206275939941406
ell 828, elapsed: 0.0002930164337158203
ell 827, elapsed: 0.00030112266540527344
ell 826, elapsed: 0.0002980232238769531
ell 825, elapsed: 0.00032591819763183594
ell 824, elapsed: 0.00030994415283203125
ell 823, elapsed: 0.0002968311309814453
ell 822, elapsed: 0.0002980232238769531
ell 821, elapsed: 0.0003018379211425781
ell 820, elapsed: 0.0002980232238769531
ell 819, elapsed: 0.0003008842468261719
ell 818, elapsed: 0.0002980232238769531
ell 817, elapsed: 0.0003027915954589844
ell 816, elapsed: 0.0002999305725097656
ell 815, elapsed: 0.0002989768981933594
ell 814, elapsed: 0.0003008842468261719
ell 813, elapsed: 0.0002970695495605469
ell 812, elapsed: 0.00039696693420410156
ell 811, elapsed: 0.00029206275939941406
ell 810, elapsed: 0.0002951622009277344
ell 809, elapsed: 0.0003020763397216797
ell 808, elapsed: 0.00024890899658203125
ell 807, elapsed: 0.00025010108947753906
ell 806, elapsed: 0.00025010108947753906
ell 805, elapsed: 0.0002429485321044922
ell 804, elapsed: 0.0002560615539550781
ell 803, elapsed: 0.000244140625
ell 802, elapsed: 0.0002491474151611328
ell 801, elapsed: 0.0002448558807373047
ell 800, elapsed: 0.0002410411834716797
ell 799, elapsed: 0.00025391578674316406
ell 798, elapsed: 0.00026702880859375
ell 797, elapsed: 0.0002491474151611328
ell 796, elapsed: 0.00024509429931640625
ell 795, elapsed: 0.00024890899658203125
ell 794, elapsed: 0.00024080276489257812
ell 793, elapsed: 0.00024390220642089844
ell 792, elapsed: 0.0002448558807373047
ell 791, elapsed: 0.0002429485321044922
ell 790, elapsed: 0.000247955322265625
ell 789, elapsed: 0.00024199485778808594
ell 788, elapsed: 0.000244140625
ell 787, elapsed: 0.00025010108947753906
ell 786, elapsed: 0.00024199485778808594
ell 785, elapsed: 0.0002491474151611328
ell 784, elapsed: 0.0002429485321044922
ell 783, elapsed: 0.000244140625
ell 782, elapsed: 0.00025582313537597656
ell 781, elapsed: 0.0002429485321044922
ell 780, elapsed: 0.00024700164794921875
ell 779, elapsed: 0.00024199485778808594
ell 778, elapsed: 0.00024390220642089844
ell 777, elapsed: 0.000247955322265625
ell 776, elapsed: 0.00024199485778808594
ell 775, elapsed: 0.00024890899658203125
ell 774, elapsed: 0.00024199485778808594
ell 773, elapsed: 0.00024509429931640625
ell 772, elapsed: 0.000247955322265625
ell 771, elapsed: 0.00024008750915527344
ell 770, elapsed: 0.0002460479736328125
ell 769, elapsed: 0.00024199485778808594
ell 768, elapsed: 0.0002429485321044922
ell 767, elapsed: 0.00028896331787109375
ell 766, elapsed: 0.0002570152282714844
ell 765, elapsed: 0.0002498626708984375
ell 764, elapsed: 0.0002410411834716797
ell 763, elapsed: 0.0002429485321044922
ell 762, elapsed: 0.000247955322265625
ell 761, elapsed: 0.0002410411834716797
ell 760, elapsed: 0.00024890899658203125
ell 759, elapsed: 0.0002410411834716797
ell 758, elapsed: 0.00024008750915527344
ell 757, elapsed: 0.00024700164794921875
ell 756, elapsed: 0.00024080276489257812
ell 755, elapsed: 0.0002448558807373047
ell 754, elapsed: 0.0002391338348388672
ell 753, elapsed: 0.00024008750915527344
ell 752, elapsed: 0.0002548694610595703
ell 751, elapsed: 0.0002758502960205078
ell 750, elapsed: 0.00025010108947753906
ell 749, elapsed: 0.0002429485321044922
ell 748, elapsed: 0.000244140625
ell 747, elapsed: 0.0002460479736328125
ell 746, elapsed: 0.00024199485778808594
ell 745, elapsed: 0.00024700164794921875
ell 744, elapsed: 0.0002498626708984375
ell 743, elapsed: 0.00024199485778808594
ell 742, elapsed: 0.00025391578674316406
ell 741, elapsed: 0.00024008750915527344
ell 740, elapsed: 0.0002510547637939453
ell 739, elapsed: 0.000244140625
ell 738, elapsed: 0.000247955322265625
ell 737, elapsed: 0.0002448558807373047
ell 736, elapsed: 0.0003399848937988281
ell 735, elapsed: 0.00037598609924316406
ell 734, elapsed: 0.00036597251892089844
ell 733, elapsed: 0.00037407875061035156
ell 732, elapsed: 0.0003650188446044922
ell 731, elapsed: 0.00036215782165527344
ell 730, elapsed: 0.0003688335418701172
ell 729, elapsed: 0.0003609657287597656
ell 728, elapsed: 0.0003769397735595703
ell 727, elapsed: 0.0003719329833984375
ell 726, elapsed: 0.0003261566162109375
ell 725, elapsed: 0.0002961158752441406
ell 724, elapsed: 0.0002899169921875
ell 723, elapsed: 0.0002930164337158203
ell 722, elapsed: 0.0002868175506591797
ell 721, elapsed: 0.0002892017364501953
ell 720, elapsed: 0.00030112266540527344
ell 719, elapsed: 0.0002880096435546875
ell 718, elapsed: 0.00029397010803222656
ell 717, elapsed: 0.00028896331787109375
ell 716, elapsed: 0.00028896331787109375
ell 715, elapsed: 0.0002930164337158203
ell 714, elapsed: 0.00031304359436035156
ell 713, elapsed: 0.0003650188446044922
ell 712, elapsed: 0.00032711029052734375
ell 711, elapsed: 0.00030994415283203125
ell 710, elapsed: 0.0002980232238769531
ell 709, elapsed: 0.0002918243408203125
ell 708, elapsed: 0.0003151893615722656
ell 707, elapsed: 0.0003180503845214844
ell 706, elapsed: 0.0003101825714111328
ell 705, elapsed: 0.00030303001403808594
ell 704, elapsed: 0.0003120899200439453
ell 703, elapsed: 0.00030612945556640625
ell 702, elapsed: 0.00035309791564941406
ell 701, elapsed: 0.00035500526428222656
ell 700, elapsed: 0.0003631114959716797
ell 699, elapsed: 0.00034499168395996094
ell 698, elapsed: 0.0003571510314941406
ell 697, elapsed: 0.0003559589385986328
ell 696, elapsed: 0.0003540515899658203
ell 695, elapsed: 0.0003561973571777344
ell 694, elapsed: 0.0003590583801269531
ell 693, elapsed: 0.0003581047058105469
ell 692, elapsed: 0.0003581047058105469
ell 691, elapsed: 0.00035190582275390625
ell 690, elapsed: 0.00035691261291503906
ell 689, elapsed: 0.0003509521484375
ell 688, elapsed: 0.0003590583801269531
ell 687, elapsed: 0.00034999847412109375
ell 686, elapsed: 0.0003597736358642578
ell 685, elapsed: 0.0003581047058105469
ell 684, elapsed: 0.00035691261291503906
ell 683, elapsed: 0.00036597251892089844
ell 682, elapsed: 0.00031304359436035156
ell 681, elapsed: 0.0003039836883544922
ell 680, elapsed: 0.0002980232238769531
ell 679, elapsed: 0.0002930164337158203
ell 678, elapsed: 0.0003509521484375
ell 677, elapsed: 0.00034999847412109375
ell 676, elapsed: 0.0003600120544433594
ell 675, elapsed: 0.00035190582275390625
ell 674, elapsed: 0.0003528594970703125
ell 673, elapsed: 0.0003650188446044922
ell 672, elapsed: 0.00034880638122558594
ell 671, elapsed: 0.0004010200500488281
ell 670, elapsed: 0.00034999847412109375
ell 669, elapsed: 0.00036215782165527344
ell 668, elapsed: 0.00036597251892089844
ell 667, elapsed: 0.0003581047058105469
ell 666, elapsed: 0.0003180503845214844
ell 665, elapsed: 0.00029397010803222656
ell 664, elapsed: 0.0002970695495605469
ell 663, elapsed: 0.0003020763397216797
ell 662, elapsed: 0.00029397010803222656
ell 661, elapsed: 0.0003058910369873047
ell 660, elapsed: 0.0003228187561035156
ell 659, elapsed: 0.0003218650817871094
ell 658, elapsed: 0.00031495094299316406
ell 657, elapsed: 0.0002930164337158203
ell 656, elapsed: 0.0003209114074707031
ell 655, elapsed: 0.00030994415283203125
ell 654, elapsed: 0.00030422210693359375
ell 653, elapsed: 0.0003180503845214844
ell 652, elapsed: 0.0002949237823486328
ell 651, elapsed: 0.0002999305725097656
ell 650, elapsed: 0.00029015541076660156
ell 649, elapsed: 0.0002892017364501953
ell 648, elapsed: 0.0003571510314941406
ell 647, elapsed: 0.0002968311309814453
ell 646, elapsed: 0.0003218650817871094
ell 645, elapsed: 0.00031304359436035156
ell 644, elapsed: 0.0002918243408203125
ell 643, elapsed: 0.0002961158752441406
ell 642, elapsed: 0.0003368854522705078
ell 641, elapsed: 0.0003631114959716797
ell 640, elapsed: 0.00035500526428222656
ell 639, elapsed: 0.00033783912658691406
ell 638, elapsed: 0.0003020763397216797
ell 637, elapsed: 0.0002918243408203125
ell 636, elapsed: 0.0003409385681152344
ell 635, elapsed: 0.0002968311309814453
ell 634, elapsed: 0.0003020763397216797
ell 633, elapsed: 0.00029087066650390625
ell 632, elapsed: 0.0002930164337158203
ell 631, elapsed: 0.0002970695495605469
ell 630, elapsed: 0.0002930164337158203
ell 629, elapsed: 0.0002968311309814453
ell 628, elapsed: 0.0002930164337158203
ell 627, elapsed: 0.0003180503845214844
ell 626, elapsed: 0.0003190040588378906
ell 625, elapsed: 0.0003020763397216797
ell 624, elapsed: 0.00030803680419921875
ell 623, elapsed: 0.00030803680419921875
ell 622, elapsed: 0.0002970695495605469
ell 621, elapsed: 0.00029587745666503906
ell 620, elapsed: 0.0003101825714111328
ell 619, elapsed: 0.00031304359436035156
ell 618, elapsed: 0.0003001689910888672
ell 617, elapsed: 0.0002918243408203125
ell 616, elapsed: 0.00030112266540527344
ell 615, elapsed: 0.0002930164337158203
ell 614, elapsed: 0.0002970695495605469
ell 613, elapsed: 0.0002930164337158203
ell 612, elapsed: 0.00029397010803222656
ell 611, elapsed: 0.0003781318664550781
ell 610, elapsed: 0.00035119056701660156
ell 609, elapsed: 0.0003800392150878906
ell 608, elapsed: 0.0003688335418701172
ell 607, elapsed: 0.000370025634765625
ell 606, elapsed: 0.00037789344787597656
ell 605, elapsed: 0.00037288665771484375
ell 604, elapsed: 0.00038909912109375
ell 603, elapsed: 0.0003750324249267578
ell 602, elapsed: 0.00039505958557128906
ell 601, elapsed: 0.0003781318664550781
ell 600, elapsed: 0.00036406517028808594
ell 599, elapsed: 0.0003781318664550781
ell 598, elapsed: 0.00036907196044921875
ell 597, elapsed: 0.0003731250762939453
ell 596, elapsed: 0.0003609657287597656
ell 595, elapsed: 0.0003018379211425781
ell 594, elapsed: 0.0003631114959716797
ell 593, elapsed: 0.0003681182861328125
ell 592, elapsed: 0.00045490264892578125
ell 591, elapsed: 0.0003769397735595703
ell 590, elapsed: 0.00036907196044921875
ell 589, elapsed: 0.00038504600524902344
ell 588, elapsed: 0.00036597251892089844
ell 587, elapsed: 0.00037407875061035156
ell 586, elapsed: 0.00038313865661621094
ell 585, elapsed: 0.000370025634765625
ell 584, elapsed: 0.0003781318664550781
ell 583, elapsed: 0.0003941059112548828
ell 582, elapsed: 0.00032591819763183594
ell 581, elapsed: 0.00030493736267089844
ell 580, elapsed: 0.00036716461181640625
ell 579, elapsed: 0.0003578662872314453
ell 578, elapsed: 0.0003159046173095703
ell 577, elapsed: 0.00030422210693359375
ell 576, elapsed: 0.0002951622009277344
ell 575, elapsed: 0.00029206275939941406
ell 574, elapsed: 0.0003008842468261719
ell 573, elapsed: 0.0002930164337158203
ell 572, elapsed: 0.0003039836883544922
ell 571, elapsed: 0.00032401084899902344
ell 570, elapsed: 0.0003600120544433594
ell 569, elapsed: 0.0003809928894042969
ell 568, elapsed: 0.00037598609924316406
ell 567, elapsed: 0.0003750324249267578
ell 566, elapsed: 0.00037384033203125
ell 565, elapsed: 0.00036907196044921875
ell 564, elapsed: 0.0003788471221923828
ell 563, elapsed: 0.0003490447998046875
ell 562, elapsed: 0.00038504600524902344
ell 561, elapsed: 0.0003349781036376953
ell 560, elapsed: 0.0002970695495605469
ell 559, elapsed: 0.0002989768981933594
ell 558, elapsed: 0.0003159046173095703
ell 557, elapsed: 0.0003008842468261719
ell 556, elapsed: 0.0002980232238769531
ell 555, elapsed: 0.0002930164337158203
ell 554, elapsed: 0.0002989768981933594
ell 553, elapsed: 0.0002918243408203125
ell 552, elapsed: 0.0002999305725097656
ell 551, elapsed: 0.00029206275939941406
ell 550, elapsed: 0.0002930164337158203
ell 549, elapsed: 0.0002989768981933594
ell 548, elapsed: 0.00032782554626464844
ell 547, elapsed: 0.0002970695495605469
ell 546, elapsed: 0.00029587745666503906
ell 545, elapsed: 0.00029397010803222656
ell 544, elapsed: 0.0002949237823486328
ell 543, elapsed: 0.0002989768981933594
ell 542, elapsed: 0.0002980232238769531
ell 541, elapsed: 0.00029397010803222656
ell 540, elapsed: 0.00029087066650390625
ell 539, elapsed: 0.0002980232238769531
ell 538, elapsed: 0.0002930164337158203
ell 537, elapsed: 0.0002980232238769531
ell 536, elapsed: 0.0003228187561035156
ell 535, elapsed: 0.0002968311309814453
ell 534, elapsed: 0.00029015541076660156
ell 533, elapsed: 0.0003008842468261719
ell 532, elapsed: 0.0003001689910888672
ell 531, elapsed: 0.0002918243408203125
ell 530, elapsed: 0.0002980232238769531
ell 529, elapsed: 0.0003018379211425781
ell 528, elapsed: 0.0002989768981933594
ell 527, elapsed: 0.0003170967102050781
ell 526, elapsed: 0.000308990478515625
ell 525, elapsed: 0.0003018379211425781
ell 524, elapsed: 0.0002999305725097656
ell 523, elapsed: 0.0003218650817871094
ell 522, elapsed: 0.00030112266540527344
ell 521, elapsed: 0.0002911090850830078
ell 520, elapsed: 0.0002968311309814453
ell 519, elapsed: 0.00029015541076660156
ell 518, elapsed: 0.0002899169921875
ell 517, elapsed: 0.0002949237823486328
ell 516, elapsed: 0.0002918243408203125
ell 515, elapsed: 0.0002970695495605469
ell 514, elapsed: 0.0002930164337158203
ell 513, elapsed: 0.0002899169921875
ell 512, elapsed: 0.00030684471130371094
ell 511, elapsed: 0.0003418922424316406
ell 510, elapsed: 0.0002980232238769531
ell 509, elapsed: 0.0002911090850830078
ell 508, elapsed: 0.0002899169921875
ell 507, elapsed: 0.0002970695495605469
ell 506, elapsed: 0.0003108978271484375
ell 505, elapsed: 0.0003139972686767578
ell 504, elapsed: 0.0003020763397216797
ell 503, elapsed: 0.00030994415283203125
ell 502, elapsed: 0.0003180503845214844
ell 501, elapsed: 0.0002930164337158203
ell 500, elapsed: 0.0002989768981933594
ell 499, elapsed: 0.00029277801513671875
ell 498, elapsed: 0.0003230571746826172
ell 497, elapsed: 0.0002930164337158203
ell 496, elapsed: 0.00029206275939941406
ell 495, elapsed: 0.0002999305725097656
ell 494, elapsed: 0.00029206275939941406
ell 493, elapsed: 0.00029587745666503906
ell 492, elapsed: 0.0002930164337158203
ell 491, elapsed: 0.0002911090850830078
ell 490, elapsed: 0.0002980232238769531
ell 489, elapsed: 0.0002899169921875
ell 488, elapsed: 0.0002970695495605469
ell 487, elapsed: 0.0002930164337158203
ell 486, elapsed: 0.0002899169921875
ell 485, elapsed: 0.0002758502960205078
ell 484, elapsed: 0.0002460479736328125
ell 483, elapsed: 0.0002529621124267578
ell 482, elapsed: 0.0002498626708984375
ell 481, elapsed: 0.00024700164794921875
ell 480, elapsed: 0.00025200843811035156
ell 479, elapsed: 0.00024890899658203125
ell 478, elapsed: 0.00025391578674316406
ell 477, elapsed: 0.0002510547637939453
ell 476, elapsed: 0.00026416778564453125
ell 475, elapsed: 0.0003020763397216797
ell 474, elapsed: 0.0002918243408203125
ell 473, elapsed: 0.0002949237823486328
ell 472, elapsed: 0.0002968311309814453
ell 471, elapsed: 0.00032901763916015625
ell 470, elapsed: 0.00028514862060546875
ell 469, elapsed: 0.0002892017364501953
ell 468, elapsed: 0.00029277801513671875
ell 467, elapsed: 0.0002899169921875
ell 466, elapsed: 0.0002949237823486328
ell 465, elapsed: 0.0002830028533935547
ell 464, elapsed: 0.0002799034118652344
ell 463, elapsed: 0.00029015541076660156
ell 462, elapsed: 0.00030493736267089844
ell 461, elapsed: 0.0002789497375488281
ell 460, elapsed: 0.00024199485778808594
ell 459, elapsed: 0.00026798248291015625
ell 458, elapsed: 0.0002980232238769531
ell 457, elapsed: 0.0002529621124267578
ell 456, elapsed: 0.00024700164794921875
ell 455, elapsed: 0.00024390220642089844
ell 454, elapsed: 0.0002410411834716797
ell 453, elapsed: 0.000247955322265625
ell 452, elapsed: 0.00024509429931640625
ell 451, elapsed: 0.00026798248291015625
ell 450, elapsed: 0.00024199485778808594
ell 449, elapsed: 0.0002429485321044922
ell 448, elapsed: 0.00024700164794921875
ell 447, elapsed: 0.00024318695068359375
ell 446, elapsed: 0.00025391578674316406
ell 445, elapsed: 0.0002429485321044922
ell 444, elapsed: 0.0002589225769042969
ell 443, elapsed: 0.0003571510314941406
ell 442, elapsed: 0.0002961158752441406
ell 441, elapsed: 0.0002970695495605469
ell 440, elapsed: 0.0002880096435546875
ell 439, elapsed: 0.0002911090850830078
ell 438, elapsed: 0.0002880096435546875
ell 437, elapsed: 0.0002961158752441406
ell 436, elapsed: 0.0002989768981933594
ell 435, elapsed: 0.00028896331787109375
ell 434, elapsed: 0.0002961158752441406
ell 433, elapsed: 0.00029015541076660156
ell 432, elapsed: 0.0002739429473876953
ell 431, elapsed: 0.0002830028533935547
ell 430, elapsed: 0.0002989768981933594
ell 429, elapsed: 0.0002741813659667969
ell 428, elapsed: 0.0002720355987548828
ell 427, elapsed: 0.00026917457580566406
ell 426, elapsed: 0.00029397010803222656
ell 425, elapsed: 0.00024580955505371094
ell 424, elapsed: 0.00024890899658203125
ell 423, elapsed: 0.00024199485778808594
ell 422, elapsed: 0.0002460479736328125
ell 421, elapsed: 0.0002498626708984375
ell 420, elapsed: 0.000247955322265625
ell 419, elapsed: 0.0002529621124267578
ell 418, elapsed: 0.00024199485778808594
ell 417, elapsed: 0.0002460479736328125
ell 416, elapsed: 0.00024890899658203125
ell 415, elapsed: 0.0003771781921386719
ell 414, elapsed: 0.00037789344787597656
ell 413, elapsed: 0.00036597251892089844
ell 412, elapsed: 0.00037384033203125
ell 411, elapsed: 0.00036787986755371094
ell 410, elapsed: 0.00037097930908203125
ell 409, elapsed: 0.00038313865661621094
ell 408, elapsed: 0.00036716461181640625
ell 407, elapsed: 0.00038695335388183594
ell 406, elapsed: 0.0004000663757324219
ell 405, elapsed: 0.0003719329833984375
ell 404, elapsed: 0.00036787986755371094
ell 403, elapsed: 0.0003809928894042969
ell 402, elapsed: 0.0003821849822998047
ell 401, elapsed: 0.0003650188446044922
ell 400, elapsed: 0.000370025634765625
ell 399, elapsed: 0.0003800392150878906
ell 398, elapsed: 0.0003669261932373047
ell 397, elapsed: 0.0003800392150878906
ell 396, elapsed: 0.0003979206085205078
ell 395, elapsed: 0.0003669261932373047
ell 394, elapsed: 0.0003750324249267578
ell 393, elapsed: 0.000370025634765625
ell 392, elapsed: 0.0003790855407714844
ell 391, elapsed: 0.00037384033203125
ell 390, elapsed: 0.000370025634765625
ell 389, elapsed: 0.0003781318664550781
ell 388, elapsed: 0.0003819465637207031
ell 387, elapsed: 0.0004420280456542969
ell 386, elapsed: 0.00037384033203125
ell 385, elapsed: 0.00037097930908203125
ell 384, elapsed: 0.0003800392150878906
ell 383, elapsed: 0.0003609657287597656
ell 382, elapsed: 0.00039315223693847656
ell 381, elapsed: 0.0003800392150878906
ell 380, elapsed: 0.0003638267517089844
ell 379, elapsed: 0.00037384033203125
ell 378, elapsed: 0.0004000663757324219
ell 377, elapsed: 0.0003769397735595703
ell 376, elapsed: 0.00032782554626464844
ell 375, elapsed: 0.00030612945556640625
ell 374, elapsed: 0.0003039836883544922
ell 373, elapsed: 0.0002989768981933594
ell 372, elapsed: 0.0003039836883544922
ell 371, elapsed: 0.0002970695495605469
ell 370, elapsed: 0.0003058910369873047
ell 369, elapsed: 0.00029587745666503906
ell 368, elapsed: 0.0002961158752441406
ell 367, elapsed: 0.00030303001403808594
ell 366, elapsed: 0.0003561973571777344
ell 365, elapsed: 0.0003070831298828125
ell 364, elapsed: 0.0003058910369873047
ell 363, elapsed: 0.00030303001403808594
ell 362, elapsed: 0.0003008842468261719
ell 361, elapsed: 0.0002980232238769531
ell 360, elapsed: 0.00030303001403808594
ell 359, elapsed: 0.00030303001403808594
ell 358, elapsed: 0.00030112266540527344
ell 357, elapsed: 0.00031280517578125
ell 356, elapsed: 0.00030803680419921875
ell 355, elapsed: 0.0003268718719482422
ell 354, elapsed: 0.00032901763916015625
ell 353, elapsed: 0.000308990478515625
ell 352, elapsed: 0.006031990051269531
ell 351, elapsed: 0.0003390312194824219
ell 350, elapsed: 0.0003039836883544922
ell 349, elapsed: 0.0002989768981933594
ell 348, elapsed: 0.0003018379211425781
ell 347, elapsed: 0.0003139972686767578
ell 346, elapsed: 0.0002980232238769531
ell 345, elapsed: 0.0003008842468261719
ell 344, elapsed: 0.0002989768981933594
ell 343, elapsed: 0.0003070831298828125
ell 342, elapsed: 0.0002949237823486328
ell 341, elapsed: 0.0002989768981933594
ell 340, elapsed: 0.0002930164337158203
ell 339, elapsed: 0.0002880096435546875
ell 338, elapsed: 0.000308990478515625
ell 337, elapsed: 0.0002980232238769531
ell 336, elapsed: 0.0002949237823486328
ell 335, elapsed: 0.0002989768981933594
ell 334, elapsed: 0.0003218650817871094
ell 333, elapsed: 0.00030493736267089844
ell 332, elapsed: 0.0002989768981933594
ell 331, elapsed: 0.0002980232238769531
ell 330, elapsed: 0.00029921531677246094
ell 329, elapsed: 0.0003020763397216797
ell 328, elapsed: 0.0002999305725097656
ell 327, elapsed: 0.00029921531677246094
ell 326, elapsed: 0.0002961158752441406
ell 325, elapsed: 0.0002989768981933594
ell 324, elapsed: 0.0002951622009277344
ell 323, elapsed: 0.0002999305725097656
ell 322, elapsed: 0.0003941059112548828
ell 321, elapsed: 0.00030803680419921875
ell 320, elapsed: 0.0002980232238769531
ell 319, elapsed: 0.0002970695495605469
ell 318, elapsed: 0.00035881996154785156
ell 317, elapsed: 0.0002970695495605469
ell 316, elapsed: 0.00030493736267089844
ell 315, elapsed: 0.0002942085266113281
ell 314, elapsed: 0.0002989768981933594
ell 313, elapsed: 0.0003070831298828125
ell 312, elapsed: 0.0003039836883544922
ell 311, elapsed: 0.00030684471130371094
ell 310, elapsed: 0.00032901763916015625
ell 309, elapsed: 0.00030493736267089844
ell 308, elapsed: 0.00030303001403808594
ell 307, elapsed: 0.0002961158752441406
ell 306, elapsed: 0.0002999305725097656
ell 305, elapsed: 0.0002968311309814453
ell 304, elapsed: 0.00029206275939941406
ell 303, elapsed: 0.00030303001403808594
ell 302, elapsed: 0.0002961158752441406
ell 301, elapsed: 0.0002968311309814453
ell 300, elapsed: 0.0002949237823486328
ell 299, elapsed: 0.0002961158752441406
ell 298, elapsed: 0.0003070831298828125
ell 297, elapsed: 0.00032806396484375
ell 296, elapsed: 0.00030612945556640625
ell 295, elapsed: 0.0003209114074707031
ell 294, elapsed: 0.00030517578125
ell 293, elapsed: 0.0002999305725097656
ell 292, elapsed: 0.0002989768981933594
ell 291, elapsed: 0.0003020763397216797
ell 290, elapsed: 0.00029587745666503906
ell 289, elapsed: 0.00033092498779296875
ell 288, elapsed: 0.0002970695495605469
ell 287, elapsed: 0.0003001689910888672
ell 286, elapsed: 0.0002999305725097656
ell 285, elapsed: 0.0003521442413330078
ell 284, elapsed: 0.00030517578125
ell 283, elapsed: 0.00030303001403808594
ell 282, elapsed: 0.0002970695495605469
ell 281, elapsed: 0.0003120899200439453
ell 280, elapsed: 0.0002989768981933594
ell 279, elapsed: 0.000308990478515625
ell 278, elapsed: 0.0002980232238769531
ell 277, elapsed: 0.0003020763397216797
ell 276, elapsed: 0.00030517578125
ell 275, elapsed: 0.0002949237823486328
ell 274, elapsed: 0.0002961158752441406
ell 273, elapsed: 0.00029397010803222656
ell 272, elapsed: 0.0003209114074707031
ell 271, elapsed: 0.00030303001403808594
ell 270, elapsed: 0.00030303001403808594
ell 269, elapsed: 0.0003008842468261719
ell 268, elapsed: 0.00029087066650390625
ell 267, elapsed: 0.0002949237823486328
ell 266, elapsed: 0.0002999305725097656
ell 265, elapsed: 0.0002911090850830078
ell 264, elapsed: 0.0002989768981933594
ell 263, elapsed: 0.0002930164337158203
ell 262, elapsed: 0.0002951622009277344
ell 261, elapsed: 0.0002999305725097656
ell 260, elapsed: 0.0003209114074707031
ell 259, elapsed: 0.0002999305725097656
ell 258, elapsed: 0.0002942085266113281
ell 257, elapsed: 0.0008950233459472656
ell 256, elapsed: 0.0006010532379150391
ell 255, elapsed: 0.0006201267242431641
ell 254, elapsed: 0.0006079673767089844
ell 253, elapsed: 0.0006561279296875
ell 252, elapsed: 0.0011348724365234375
ell 251, elapsed: 0.0005819797515869141
ell 250, elapsed: 0.0006270408630371094
ell 249, elapsed: 0.0005679130554199219
ell 248, elapsed: 0.0003859996795654297
ell 247, elapsed: 0.0003459453582763672
ell 246, elapsed: 0.0003528594970703125
ell 245, elapsed: 0.0002961158752441406
ell 244, elapsed: 0.0003509521484375
ell 243, elapsed: 0.00036907196044921875
ell 242, elapsed: 0.00034117698669433594
ell 241, elapsed: 0.00034689903259277344
ell 240, elapsed: 0.00029587745666503906
ell 239, elapsed: 0.0003390312194824219
ell 238, elapsed: 0.00037598609924316406
ell 237, elapsed: 0.00029277801513671875
ell 236, elapsed: 0.0003058910369873047
ell 235, elapsed: 0.0003139972686767578
ell 234, elapsed: 0.00030303001403808594
ell 233, elapsed: 0.0002961158752441406
ell 232, elapsed: 0.0002970695495605469
ell 231, elapsed: 0.0003020763397216797
ell 230, elapsed: 0.0002951622009277344
ell 229, elapsed: 0.0002989768981933594
ell 228, elapsed: 0.0002949237823486328
ell 227, elapsed: 0.0002980232238769531
ell 226, elapsed: 0.00030493736267089844
ell 225, elapsed: 0.0002989768981933594
ell 224, elapsed: 0.00030303001403808594
ell 223, elapsed: 0.00031685829162597656
ell 222, elapsed: 0.00028896331787109375
ell 221, elapsed: 0.0002968311309814453
ell 220, elapsed: 0.0003008842468261719
ell 219, elapsed: 0.0003070831298828125
ell 218, elapsed: 0.0003001689910888672
ell 217, elapsed: 0.0003020763397216797
ell 216, elapsed: 0.0003039836883544922
ell 215, elapsed: 0.0002970695495605469
ell 214, elapsed: 0.0002930164337158203
ell 213, elapsed: 0.00029206275939941406
ell 212, elapsed: 0.0002911090850830078
ell 211, elapsed: 0.0003039836883544922
ell 210, elapsed: 0.0003380775451660156
ell 209, elapsed: 0.0003108978271484375
ell 208, elapsed: 0.0002999305725097656
ell 207, elapsed: 0.0002999305725097656
ell 206, elapsed: 0.0002989768981933594
ell 205, elapsed: 0.00029587745666503906
ell 204, elapsed: 0.0002999305725097656
ell 203, elapsed: 0.0003001689910888672
ell 202, elapsed: 0.0003001689910888672
ell 201, elapsed: 0.0002999305725097656
ell 200, elapsed: 0.00029397010803222656
ell 199, elapsed: 0.0003020763397216797
ell 198, elapsed: 0.0003108978271484375
ell 197, elapsed: 0.0003058910369873047
ell 196, elapsed: 0.0002999305725097656
ell 195, elapsed: 0.00030112266540527344
ell 194, elapsed: 0.00030803680419921875
ell 193, elapsed: 0.0002970695495605469
ell 192, elapsed: 0.0003027915954589844
ell 191, elapsed: 0.00029397010803222656
ell 190, elapsed: 0.0002968311309814453
ell 189, elapsed: 0.00030303001403808594
ell 188, elapsed: 0.00030112266540527344
ell 187, elapsed: 0.0003039836883544922
ell 186, elapsed: 0.0003039836883544922
ell 185, elapsed: 0.0003139972686767578
ell 184, elapsed: 0.0003070831298828125
ell 183, elapsed: 0.0002989768981933594
ell 182, elapsed: 0.0003018379211425781
ell 181, elapsed: 0.0002949237823486328
ell 180, elapsed: 0.0003027915954589844
ell 179, elapsed: 0.0002980232238769531
ell 178, elapsed: 0.0002970695495605469
ell 177, elapsed: 0.0002999305725097656
ell 176, elapsed: 0.0002980232238769531
ell 175, elapsed: 0.0003018379211425781
ell 174, elapsed: 0.0002899169921875
ell 173, elapsed: 0.0003218650817871094
ell 172, elapsed: 0.0002918243408203125
ell 171, elapsed: 0.0002930164337158203
ell 170, elapsed: 0.0002980232238769531
ell 169, elapsed: 0.00028896331787109375
ell 168, elapsed: 0.0002930164337158203
ell 167, elapsed: 0.00030422210693359375
ell 166, elapsed: 0.00029397010803222656
ell 165, elapsed: 0.0002999305725097656
ell 164, elapsed: 0.0002989768981933594
ell 163, elapsed: 0.0003008842468261719
ell 162, elapsed: 0.0003020763397216797
ell 161, elapsed: 0.00030303001403808594
ell 160, elapsed: 0.0003249645233154297
ell 159, elapsed: 0.00030303001403808594
ell 158, elapsed: 0.0003039836883544922
ell 157, elapsed: 0.00030803680419921875
ell 156, elapsed: 0.0003001689910888672
ell 155, elapsed: 0.00030303001403808594
ell 154, elapsed: 0.0003001689910888672
ell 153, elapsed: 0.00030112266540527344
ell 152, elapsed: 0.00031304359436035156
ell 151, elapsed: 0.00030493736267089844
ell 150, elapsed: 0.00031685829162597656
ell 149, elapsed: 0.0003199577331542969
ell 148, elapsed: 0.00033593177795410156
ell 147, elapsed: 0.000308990478515625
ell 146, elapsed: 0.00030803680419921875
ell 145, elapsed: 0.0003180503845214844
ell 144, elapsed: 0.0003058910369873047
ell 143, elapsed: 0.0003211498260498047
ell 142, elapsed: 0.0002989768981933594
ell 141, elapsed: 0.00030303001403808594
ell 140, elapsed: 0.0003120899200439453
ell 139, elapsed: 0.0003039836883544922
ell 138, elapsed: 0.000308990478515625
ell 137, elapsed: 0.00030303001403808594
ell 136, elapsed: 0.0003349781036376953
ell 135, elapsed: 0.0003018379211425781
ell 134, elapsed: 0.00029587745666503906
ell 133, elapsed: 0.0003070831298828125
ell 132, elapsed: 0.00029206275939941406
ell 131, elapsed: 0.0002949237823486328
ell 130, elapsed: 0.00030493736267089844
ell 129, elapsed: 0.00029206275939941406
ell 128, elapsed: 0.0003058910369873047
ell 127, elapsed: 0.0002880096435546875
ell 126, elapsed: 0.0002918243408203125
ell 125, elapsed: 0.0003020763397216797
ell 124, elapsed: 0.00035691261291503906
ell 123, elapsed: 0.00030303001403808594
ell 122, elapsed: 0.00029397010803222656
ell 121, elapsed: 0.0003008842468261719
ell 120, elapsed: 0.0003058910369873047
ell 119, elapsed: 0.0002949237823486328
ell 118, elapsed: 0.0003018379211425781
ell 117, elapsed: 0.0002899169921875
ell 116, elapsed: 0.00030517578125
ell 115, elapsed: 0.00030517578125
ell 114, elapsed: 0.0002949237823486328
ell 113, elapsed: 0.0002970695495605469
ell 112, elapsed: 0.0002970695495605469
ell 111, elapsed: 0.0003139972686767578
ell 110, elapsed: 0.0002949237823486328
ell 109, elapsed: 0.0002930164337158203
ell 108, elapsed: 0.0003058910369873047
ell 107, elapsed: 0.00029587745666503906
ell 106, elapsed: 0.000308990478515625
ell 105, elapsed: 0.0002949237823486328
ell 104, elapsed: 0.00029397010803222656
ell 103, elapsed: 0.0002989768981933594
ell 102, elapsed: 0.0002880096435546875
ell 101, elapsed: 0.0002961158752441406
ell 100, elapsed: 0.00029087066650390625
ell 99, elapsed: 0.0003249645233154297
ell 98, elapsed: 0.0003008842468261719
ell 97, elapsed: 0.0002911090850830078
ell 96, elapsed: 0.00029397010803222656
ell 95, elapsed: 0.0007631778717041016
ell 94, elapsed: 0.0010020732879638672
ell 93, elapsed: 0.0005300045013427734
ell 92, elapsed: 0.008772134780883789
ell 91, elapsed: 0.000354766845703125
ell 90, elapsed: 0.0003058910369873047
ell 89, elapsed: 0.0003070831298828125
ell 88, elapsed: 0.0003020763397216797
ell 87, elapsed: 0.0003020763397216797
ell 86, elapsed: 0.00030612945556640625
ell 85, elapsed: 0.0002968311309814453
ell 84, elapsed: 0.0003018379211425781
ell 83, elapsed: 0.0002999305725097656
ell 82, elapsed: 0.0002980232238769531
ell 81, elapsed: 0.00030303001403808594
ell 80, elapsed: 0.00034999847412109375
ell 79, elapsed: 0.0003077983856201172
ell 78, elapsed: 0.00029397010803222656
ell 77, elapsed: 0.0002968311309814453
ell 76, elapsed: 0.00030303001403808594
ell 75, elapsed: 0.0002970695495605469
ell 74, elapsed: 0.0003159046173095703
ell 73, elapsed: 0.0002989768981933594
ell 72, elapsed: 0.0002968311309814453
ell 71, elapsed: 0.0003070831298828125
ell 70, elapsed: 0.0002980232238769531
ell 69, elapsed: 0.00030303001403808594
ell 68, elapsed: 0.00030112266540527344
ell 67, elapsed: 0.0003399848937988281
ell 66, elapsed: 0.0003070831298828125
ell 65, elapsed: 0.0003008842468261719
ell 64, elapsed: 0.00031304359436035156
ell 63, elapsed: 0.0002970695495605469
ell 62, elapsed: 0.0003180503845214844
ell 61, elapsed: 0.0002980232238769531
ell 60, elapsed: 0.0002999305725097656
ell 59, elapsed: 0.00031280517578125
ell 58, elapsed: 0.00030112266540527344
ell 57, elapsed: 0.0003159046173095703
ell 56, elapsed: 0.0002970695495605469
ell 55, elapsed: 0.00032591819763183594
ell 54, elapsed: 0.0003070831298828125
ell 53, elapsed: 0.0003008842468261719
ell 52, elapsed: 0.0003058910369873047
ell 51, elapsed: 0.0002989768981933594
ell 50, elapsed: 0.00030112266540527344
ell 49, elapsed: 0.000308990478515625
ell 48, elapsed: 0.00030803680419921875
ell 47, elapsed: 0.000308990478515625
ell 46, elapsed: 0.0002980232238769531
ell 45, elapsed: 0.0002980232238769531
ell 44, elapsed: 0.00030803680419921875
ell 43, elapsed: 0.00034308433532714844
ell 42, elapsed: 0.0003018379211425781
ell 41, elapsed: 0.0003120899200439453
ell 40, elapsed: 0.0002961158752441406
ell 39, elapsed: 0.0003018379211425781
ell 38, elapsed: 0.0002980232238769531
ell 37, elapsed: 0.00030112266540527344
ell 36, elapsed: 0.00029778480529785156
ell 35, elapsed: 0.00030112266540527344
ell 34, elapsed: 0.00030303001403808594
ell 33, elapsed: 0.00029587745666503906
ell 32, elapsed: 0.0002989768981933594
ell 31, elapsed: 0.00031495094299316406
ell 30, elapsed: 0.00029397010803222656
ell 29, elapsed: 0.00029206275939941406
ell 28, elapsed: 0.00029397010803222656
ell 27, elapsed: 0.0003039836883544922
ell 26, elapsed: 0.00029778480529785156
ell 25, elapsed: 0.00030517578125
ell 24, elapsed: 0.0002989768981933594
ell 23, elapsed: 0.0002989768981933594
ell 22, elapsed: 0.0002949237823486328
ell 21, elapsed: 0.0002930164337158203
ell 20, elapsed: 0.0002930164337158203
ell 19, elapsed: 0.00029587745666503906
ell 18, elapsed: 0.00032711029052734375
ell 17, elapsed: 0.00029587745666503906
ell 16, elapsed: 0.0002930164337158203
ell 15, elapsed: 0.0002999305725097656
ell 14, elapsed: 0.0002899169921875
ell 13, elapsed: 0.0002899169921875
ell 12, elapsed: 0.0002899169921875
ell 11, elapsed: 0.0002892017364501953
ell 10, elapsed: 0.00029397010803222656
ell 9, elapsed: 0.00028896331787109375
ell 8, elapsed: 0.00028896331787109375
ell 7, elapsed: 0.0002970695495605469
ell 6, elapsed: 0.00028896331787109375
ell 5, elapsed: 0.0003180503845214844
ell 4, elapsed: 0.00028586387634277344
ell 3, elapsed: 0.0002841949462890625
ell 2, elapsed: 0.00028896331787109375
ell 1, elapsed: 0.0002830028533935547
ell 0, elapsed: 0.00030803680419921875
  0.441493 seconds (46.03 k allocations: 3.091 MiB, 7.32% compilation time)
elapsed: 0.00037288665771484375
step:          0.048039 sec (0 allocations: 0 byte, 0.0% gc time)
swapping:      0.000443 sec (0 allocations: 0 byte, 0.0% gc time)
calc_Mellell!: 0.005416 sec (0 allocations: 0 byte, 0.0% gc time)
  t0 :  0.001171 sec (0 allocations: 0 byte, 0.0% gc time)
  tm2 : 0.071341 sec (0 allocations: 0 byte, 0.0% gc time)
  tm2s: 0.000881 sec (0 allocations: 0 byte, 0.0% gc time)
  tm4 : 0.163713 sec (0 allocations: 0 byte, 0.0% gc time)
  tp2 : 0.0 sec (0 allocations: 0 byte, 0.0% gc time)
  tp2s: 0.0 sec (0 allocations: 0 byte, 0.0% gc time)
  tp4 : 0.0 sec (0 allocations: 0 byte, 0.0% gc time)
calc_wtdll!:   0.271913 sec (9.9 k allocations: 1.047 MB, 0.0% gc time)
calc_wljj!:    0.019365 sec (689 allocations: 10.766 KB, 0.0% gc time)
mult_prefac!:  0.0 sec (0 allocations: 0 byte, 0.0% gc time)
convert:       0.0 sec (0 allocations: 0 byte, 0.0% gc time)
write:         0.032004 sec (0 allocations: 0 byte, 0.0% gc time)
test_rand_2f1: 0.0 sec (0 allocations: 0 byte, 0.0% gc time)
Closing outfile out/Ml21-cache.bin...   0.000009 seconds
  0.000292 seconds (36 allocations: 27.953 KiB)
make_phi():   0.001502 seconds (8.18 k allocations: 237.844 KiB)
  0.121160 seconds (141.90 k allocations: 3.483 MiB)
tskip:       0.001079 sec (0 allocations: 0 byte, 0.0% gc time)
tread:       0.020678 sec (17 allocations: 10.641 KB, 0.0% gc time)
tmultphi:    0.008773 sec (0 allocations: 0 byte, 0.0% gc time)
tbrfft:      0.037495 sec (0 allocations: 0 byte, 0.0% gc time)
tmultprefac: 0.017561 sec (0 allocations: 0 byte, 0.0% gc time)
toutfunc:    0.0324 sec (127.507 k allocations: 2.312 MB, 0.0% gc time)
Testing R=1.0 ... passed
Calculating fmax: 
  dlrec    = 4
  dlrecRg1 = -4
  q=1.1, R=0.9:	  0.245741 seconds (105.72 k allocations: 15.273 MiB, 5.43% gc time)

  0.245890 seconds (105.78 k allocations: 15.307 MiB, 5.43% gc time)
ℓ = 1202
Δℓ = 4
ΔℓRg1 = -4
N = 1600
q = 1.1
kmin = 1.0e-5
kmax = 100000.00000000004
χ0 = 0.023029999999999995
RR = RR.tsv
ℓmax = ℓmax.bin
f21 = f21.bin
kmin = 1.0e-5
kmax = 100000.0
dlrec    = 4
dlrecRg1 = -4
Output size: 5741568 bytes = 0.005347251892089844 GiB
Output size: 51264 bytes = 4.774332046508789e-5 GiB
Reading 'out/F21EllCache'...   0.000758 seconds (197 allocations: 84.203 KiB)
ellmax: 1202
lmaxcache: 1202
fell[:,1,1] = ComplexF64[1.3482014726274674e-57 - 3.302141236118086e-73im, 1.357860004724329e-57 - 3.3257978169518355e-73im]
ell 1202, elapsed: 2.288818359375e-5
ell 1201, elapsed: 0.0002810955047607422
ell 1200, elapsed: 0.00026106834411621094
ell 1199, elapsed: 0.0002651214599609375
ell 1198, elapsed: 0.0002551078796386719
ell 1002, elapsed: 0.008085966110229492
ell 1001, elapsed: 0.0002689361572265625
ell 1000, elapsed: 0.0002548694610595703
ell 999, elapsed: 0.00025582313537597656
ell 998, elapsed: 0.00025010108947753906
ell 902, elapsed: 0.004044055938720703
ell 901, elapsed: 0.0002579689025878906
ell 900, elapsed: 0.0002510547637939453
ell 899, elapsed: 0.0002598762512207031
ell 898, elapsed: 0.0002770423889160156
ell 802, elapsed: 0.00528407096862793
ell 801, elapsed: 0.0002598762512207031
ell 800, elapsed: 0.0002560615539550781
ell 799, elapsed: 0.00025391578674316406
ell 798, elapsed: 0.0002551078796386719
ell 702, elapsed: 0.004333972930908203
ell 701, elapsed: 0.00026488304138183594
ell 700, elapsed: 0.00025391578674316406
ell 699, elapsed: 0.0002570152282714844
ell 698, elapsed: 0.0002868175506591797
ell 602, elapsed: 0.004137992858886719
ell 601, elapsed: 0.0002620220184326172
ell 600, elapsed: 0.0002551078796386719
ell 599, elapsed: 0.00025391578674316406
ell 598, elapsed: 0.0002541542053222656
ell 502, elapsed: 0.004222869873046875
ell 501, elapsed: 0.0002830028533935547
ell 500, elapsed: 0.00025582313537597656
ell 499, elapsed: 0.0002510547637939453
ell 498, elapsed: 0.0002529621124267578
ell 402, elapsed: 0.004224061965942383
ell 401, elapsed: 0.00027489662170410156
ell 400, elapsed: 0.0002579689025878906
ell 399, elapsed: 0.0002770423889160156
ell 398, elapsed: 0.0003380775451660156
ell 302, elapsed: 0.00480198860168457
ell 301, elapsed: 0.0002589225769042969
ell 300, elapsed: 0.0002582073211669922
ell 299, elapsed: 0.00026702880859375
ell 298, elapsed: 0.00026106834411621094
ell 202, elapsed: 0.004567861557006836
ell 201, elapsed: 0.00031495094299316406
ell 200, elapsed: 0.00030803680419921875
ell 199, elapsed: 0.0003108978271484375
ell 198, elapsed: 0.0003409385681152344
ell 152, elapsed: 0.0024709701538085938
ell 151, elapsed: 0.00030493736267089844
ell 150, elapsed: 0.0003070831298828125
ell 149, elapsed: 0.0003108978271484375
ell 148, elapsed: 0.0003230571746826172
ell 127, elapsed: 0.0012960433959960938
ell 126, elapsed: 0.0003020763397216797
ell 125, elapsed: 0.00030493736267089844
ell 124, elapsed: 0.00030303001403808594
ell 123, elapsed: 0.00030994415283203125
ell 114, elapsed: 0.0006260871887207031
ell 113, elapsed: 0.0002560615539550781
ell 112, elapsed: 0.0002930164337158203
ell 111, elapsed: 0.0002551078796386719
ell 110, elapsed: 0.0002570152282714844
ell 102, elapsed: 0.0005700588226318359
ell 101, elapsed: 0.00025081634521484375
ell 100, elapsed: 0.00025391578674316406
ell 99, elapsed: 0.0002510547637939453
ell 98, elapsed: 0.0002510547637939453
ell 97, elapsed: 0.0002970695495605469
ell 96, elapsed: 0.00028705596923828125
ell 95, elapsed: 0.0002980232238769531
ell 94, elapsed: 0.0002880096435546875
ell 93, elapsed: 0.0002880096435546875
ell 92, elapsed: 0.0003559589385986328
ell 91, elapsed: 0.00035500526428222656
ell 90, elapsed: 0.00037097930908203125
ell 89, elapsed: 0.00035691261291503906
ell 88, elapsed: 0.0003681182861328125
ell 87, elapsed: 0.0003638267517089844
ell 86, elapsed: 0.0003578662872314453
ell 85, elapsed: 0.0003590583801269531
ell 84, elapsed: 0.0003540515899658203
ell 83, elapsed: 0.00037097930908203125
ell 82, elapsed: 0.00036597251892089844
ell 81, elapsed: 0.0003521442413330078
ell 80, elapsed: 0.0003638267517089844
ell 79, elapsed: 0.0003578662872314453
ell 78, elapsed: 0.00036907196044921875
ell 77, elapsed: 0.00036907196044921875
ell 76, elapsed: 0.0003688335418701172
ell 75, elapsed: 0.00037097930908203125
ell 74, elapsed: 0.00036907196044921875
ell 73, elapsed: 0.0003981590270996094
ell 72, elapsed: 0.0003790855407714844
ell 71, elapsed: 0.0003600120544433594
ell 70, elapsed: 0.0003769397735595703
ell 69, elapsed: 0.0003769397735595703
ell 68, elapsed: 0.00036597251892089844
ell 67, elapsed: 0.0003771781921386719
ell 66, elapsed: 0.00030303001403808594
ell 65, elapsed: 0.0003039836883544922
ell 64, elapsed: 0.0003001689910888672
ell 63, elapsed: 0.0003209114074707031
ell 62, elapsed: 0.0003001689910888672
ell 61, elapsed: 0.0002989768981933594
ell 60, elapsed: 0.0062520503997802734
ell 59, elapsed: 0.00032901763916015625
ell 58, elapsed: 0.0002961158752441406
ell 57, elapsed: 0.00032782554626464844
ell 56, elapsed: 0.0002980232238769531
ell 55, elapsed: 0.0002989768981933594
ell 54, elapsed: 0.0002989768981933594
ell 53, elapsed: 0.00029587745666503906
ell 52, elapsed: 0.0002980232238769531
ell 51, elapsed: 0.00030493736267089844
ell 50, elapsed: 0.0003039836883544922
ell 49, elapsed: 0.0002980232238769531
ell 48, elapsed: 0.0002930164337158203
ell 47, elapsed: 0.0003039836883544922
ell 46, elapsed: 0.0002951622009277344
ell 45, elapsed: 0.0003070831298828125
ell 44, elapsed: 0.00031113624572753906
ell 43, elapsed: 0.00025916099548339844
ell 42, elapsed: 0.00025200843811035156
ell 41, elapsed: 0.0002491474151611328
ell 40, elapsed: 0.0002570152282714844
ell 39, elapsed: 0.00025010108947753906
ell 38, elapsed: 0.0002579689025878906
ell 37, elapsed: 0.0002548694610595703
ell 36, elapsed: 0.00024890899658203125
ell 35, elapsed: 0.0002579689025878906
ell 34, elapsed: 0.0002567768096923828
ell 33, elapsed: 0.0002548694610595703
ell 32, elapsed: 0.0002460479736328125
ell 31, elapsed: 0.0002491474151611328
ell 30, elapsed: 0.0002589225769042969
ell 29, elapsed: 0.0002880096435546875
ell 28, elapsed: 0.00025582313537597656
ell 27, elapsed: 0.00024390220642089844
ell 26, elapsed: 0.000247955322265625
ell 25, elapsed: 0.0002560615539550781
ell 24, elapsed: 0.000247955322265625
ell 23, elapsed: 0.0002579689025878906
ell 22, elapsed: 0.00024890899658203125
ell 21, elapsed: 0.0002460479736328125
ell 20, elapsed: 0.0002532005310058594
ell 19, elapsed: 0.00024580955505371094
ell 18, elapsed: 0.0002529621124267578
ell 17, elapsed: 0.0002429485321044922
ell 16, elapsed: 0.00024700164794921875
ell 15, elapsed: 0.0002529621124267578
ell 14, elapsed: 0.00026917457580566406
ell 13, elapsed: 0.00024890899658203125
ell 12, elapsed: 0.0002460479736328125
ell 11, elapsed: 0.00024890899658203125
ell 10, elapsed: 0.00025010108947753906
ell 9, elapsed: 0.0002429485321044922
ell 8, elapsed: 0.0002830028533935547
ell 7, elapsed: 0.00024890899658203125
ell 6, elapsed: 0.00024509429931640625
ell 5, elapsed: 0.0002541542053222656
ell 4, elapsed: 0.00024890899658203125
ell 3, elapsed: 0.00025391578674316406
ell 2, elapsed: 0.00024700164794921875
ell 1, elapsed: 0.00024199485778808594
ell 0, elapsed: 0.0002560615539550781
  0.103430 seconds (11.51 k allocations: 719.594 KiB)
elapsed: 0.000308990478515625
step:          0.049529 sec (0 allocations: 0 byte, 0.0% gc time)
swapping:      0.000346 sec (0 allocations: 0 byte, 0.0% gc time)
calc_Mellell!: 0.000761 sec (0 allocations: 0 byte, 0.0% gc time)
  t0 :  0.000196 sec (0 allocations: 0 byte, 0.0% gc time)
  tm2 : 0.010093 sec (0 allocations: 0 byte, 0.0% gc time)
  tm2s: 0.000164 sec (0 allocations: 0 byte, 0.0% gc time)
  tm4 : 0.023089 sec (0 allocations: 0 byte, 0.0% gc time)
  tp2 : 0.0 sec (0 allocations: 0 byte, 0.0% gc time)
  tp2s: 0.0 sec (0 allocations: 0 byte, 0.0% gc time)
  tp4 : 0.0 sec (0 allocations: 0 byte, 0.0% gc time)
calc_wtdll!:   0.033938 sec (1.344 k allocations: 147.0 KB, 0.0% gc time)
calc_wljj!:    0.001683 sec (6 allocations: 96 byte, 0.0% gc time)
mult_prefac!:  0.0 sec (0 allocations: 0 byte, 0.0% gc time)
convert:       0.0 sec (0 allocations: 0 byte, 0.0% gc time)
write:         0.003288 sec (0 allocations: 0 byte, 0.0% gc time)
test_rand_2f1: 0.0 sec (0 allocations: 0 byte, 0.0% gc time)
Closing outfile out/Ml21-cache.bin...   0.000011 seconds
  0.000213 seconds (36 allocations: 27.953 KiB)
make_phi():   0.001100 seconds (8.18 k allocations: 237.844 KiB)
  0.017335 seconds (11.65 k allocations: 308.688 KiB)
tskip:       2.4e-5 sec (0 allocations: 0 byte, 0.0% gc time)
tread:       0.002284 sec (17 allocations: 2.125 KB, 0.0% gc time)
tmultphi:    0.000877 sec (0 allocations: 0 byte, 0.0% gc time)
tbrfft:      0.008009 sec (0 allocations: 0 byte, 0.0% gc time)
tmultprefac: 0.001734 sec (0 allocations: 0 byte, 0.0% gc time)
toutfunc:    0.004028 sec (10.304 k allocations: 196.0 KB, 0.0% gc time)
Testing R=0.9 ... passed
Calculating fmax: 
  dlrec    = 4
  dlrecRg1 = -4
  q=1.1, R=0.8:	  0.199351 seconds (103.21 k allocations: 14.840 MiB)

  0.199500 seconds (103.26 k allocations: 14.874 MiB)
ℓ = 1202
Δℓ = 4
ΔℓRg1 = -4
N = 1600
q = 1.1
kmin = 1.0e-5
kmax = 100000.00000000004
χ0 = 0.023029999999999995
RR = RR.tsv
ℓmax = ℓmax.bin
f21 = f21.bin
kmin = 1.0e-5
kmax = 100000.0
dlrec    = 4
dlrecRg1 = -4
Output size: 5741568 bytes = 0.005347251892089844 GiB
Output size: 51264 bytes = 4.774332046508789e-5 GiB
Reading 'out/F21EllCache'...   0.000789 seconds (197 allocations: 84.203 KiB)
ellmax: 1202
lmaxcache: 1202
fell[:,1,1] = ComplexF64[7.519068145690986e-120 - 1.8416405474382574e-135im, 7.541664537386155e-120 - 1.847175067190611e-135im]
ell 1202, elapsed: 1.5020370483398438e-5
ell 1201, elapsed: 0.0003058910369873047
ell 1200, elapsed: 0.0002830028533935547
ell 1199, elapsed: 0.00032401084899902344
ell 1198, elapsed: 0.0002779960632324219
ell 1002, elapsed: 0.008305072784423828
ell 1001, elapsed: 0.0002760887145996094
ell 1000, elapsed: 0.0002620220184326172
ell 999, elapsed: 0.00026297569274902344
ell 998, elapsed: 0.00026106834411621094
ell 902, elapsed: 0.004199028015136719
ell 901, elapsed: 0.0002608299255371094
ell 900, elapsed: 0.0002620220184326172
ell 899, elapsed: 0.0002579689025878906
ell 898, elapsed: 0.0002579689025878906
ell 802, elapsed: 0.0042209625244140625
ell 801, elapsed: 0.0002551078796386719
ell 800, elapsed: 0.0002899169921875
ell 799, elapsed: 0.0002620220184326172
ell 798, elapsed: 0.0002551078796386719
ell 702, elapsed: 0.00424504280090332
ell 701, elapsed: 0.0002689361572265625
ell 700, elapsed: 0.00026297569274902344
ell 699, elapsed: 0.0002579689025878906
ell 698, elapsed: 0.00026106834411621094
ell 602, elapsed: 0.004153013229370117
ell 601, elapsed: 0.00026702880859375
ell 600, elapsed: 0.00026607513427734375
ell 599, elapsed: 0.0002579689025878906
ell 598, elapsed: 0.00026488304138183594
ell 502, elapsed: 0.00630497932434082
ell 501, elapsed: 0.0003769397735595703
ell 500, elapsed: 0.00026106834411621094
ell 499, elapsed: 0.0002601146697998047
ell 498, elapsed: 0.0009908676147460938
ell 402, elapsed: 0.005293846130371094
ell 401, elapsed: 0.0002651214599609375
ell 400, elapsed: 0.0002570152282714844
ell 399, elapsed: 0.000270843505859375
ell 398, elapsed: 0.0002589225769042969
ell 302, elapsed: 0.0043451786041259766
ell 301, elapsed: 0.0002620220184326172
ell 300, elapsed: 0.0002560615539550781
ell 299, elapsed: 0.0002560615539550781
ell 298, elapsed: 0.00025391578674316406
ell 202, elapsed: 0.004112958908081055
ell 201, elapsed: 0.00030803680419921875
ell 200, elapsed: 0.0002651214599609375
ell 199, elapsed: 0.00026106834411621094
ell 198, elapsed: 0.0002639293670654297
ell 152, elapsed: 0.0020978450775146484
ell 151, elapsed: 0.00026106834411621094
ell 150, elapsed: 0.0002589225769042969
ell 149, elapsed: 0.00026106834411621094
ell 148, elapsed: 0.0002989768981933594
ell 127, elapsed: 0.001096963882446289
ell 126, elapsed: 0.0002570152282714844
ell 125, elapsed: 0.0002570152282714844
ell 124, elapsed: 0.0002560615539550781
ell 123, elapsed: 0.0002560615539550781
ell 114, elapsed: 0.0006260871887207031
ell 113, elapsed: 0.0002608299255371094
ell 112, elapsed: 0.0002570152282714844
ell 111, elapsed: 0.0002510547637939453
ell 110, elapsed: 0.0002779960632324219
ell 102, elapsed: 0.0005738735198974609
ell 101, elapsed: 0.0002529621124267578
ell 100, elapsed: 0.00025391578674316406
ell 99, elapsed: 0.00025391578674316406
ell 98, elapsed: 0.0002532005310058594
ell 97, elapsed: 0.0002980232238769531
ell 96, elapsed: 0.00030493736267089844
ell 95, elapsed: 0.000308990478515625
ell 94, elapsed: 0.0002980232238769531
ell 93, elapsed: 0.00029921531677246094
ell 92, elapsed: 0.00029015541076660156
ell 91, elapsed: 0.00032401084899902344
ell 90, elapsed: 0.00030303001403808594
ell 89, elapsed: 0.00030303001403808594
ell 88, elapsed: 0.0003039836883544922
ell 87, elapsed: 0.0002980232238769531
ell 86, elapsed: 0.0003077983856201172
ell 85, elapsed: 0.0002961158752441406
ell 84, elapsed: 0.00030112266540527344
ell 83, elapsed: 0.0002949237823486328
ell 82, elapsed: 0.0002999305725097656
ell 81, elapsed: 0.0003058910369873047
ell 80, elapsed: 0.0003008842468261719
ell 79, elapsed: 0.0003018379211425781
ell 78, elapsed: 0.0002989768981933594
ell 77, elapsed: 0.00029206275939941406
ell 76, elapsed: 0.00030612945556640625
ell 75, elapsed: 0.0002961158752441406
ell 74, elapsed: 0.00030112266540527344
ell 73, elapsed: 0.00030493736267089844
ell 72, elapsed: 0.0003058910369873047
ell 71, elapsed: 0.0002970695495605469
ell 70, elapsed: 0.00030493736267089844
ell 69, elapsed: 0.0002918243408203125
ell 68, elapsed: 0.00028896331787109375
ell 67, elapsed: 0.0003058910369873047
ell 66, elapsed: 0.00033211708068847656
ell 65, elapsed: 0.0003039836883544922
ell 64, elapsed: 0.0003139972686767578
ell 63, elapsed: 0.0002970695495605469
ell 62, elapsed: 0.0003120899200439453
ell 61, elapsed: 0.0003120899200439453
ell 60, elapsed: 0.0003018379211425781
ell 59, elapsed: 0.00031113624572753906
ell 58, elapsed: 0.0003039836883544922
ell 57, elapsed: 0.0003108978271484375
ell 56, elapsed: 0.0003039836883544922
ell 55, elapsed: 0.0002970695495605469
ell 54, elapsed: 0.00032401084899902344
[...]
ell 780, elapsed: 0.0005519390106201172
ell 779, elapsed: 0.0005459785461425781
ell 778, elapsed: 0.0005390644073486328
ell 772, elapsed: 0.0009429454803466797
ell 771, elapsed: 0.0005269050598144531
ell 770, elapsed: 0.0005321502685546875
ell 769, elapsed: 0.0005631446838378906
ell 768, elapsed: 0.0005381107330322266
ell 762, elapsed: 0.0009469985961914062
ell 761, elapsed: 0.0005130767822265625
ell 760, elapsed: 0.0005309581756591797
ell 759, elapsed: 0.0005199909210205078
ell 758, elapsed: 0.0005300045013427734
ell 752, elapsed: 0.0009489059448242188
ell 751, elapsed: 0.0005300045013427734
ell 750, elapsed: 0.0005259513854980469
ell 749, elapsed: 0.0005230903625488281
ell 748, elapsed: 0.0005249977111816406
ell 742, elapsed: 0.0009288787841796875
ell 741, elapsed: 0.0005559921264648438
ell 740, elapsed: 0.0005180835723876953
ell 739, elapsed: 0.0005240440368652344
ell 738, elapsed: 0.0005428791046142578
ell 732, elapsed: 0.0009241104125976562
ell 731, elapsed: 0.0005300045013427734
ell 730, elapsed: 0.0005619525909423828
ell 729, elapsed: 0.0005381107330322266
ell 728, elapsed: 0.0005371570587158203
ell 722, elapsed: 0.0009729862213134766
ell 721, elapsed: 0.0005459785461425781
ell 720, elapsed: 0.0005400180816650391
ell 719, elapsed: 0.0005350112915039062
ell 718, elapsed: 0.0005428791046142578
ell 712, elapsed: 0.0009589195251464844
ell 711, elapsed: 0.0005409717559814453
ell 710, elapsed: 0.0005488395690917969
ell 709, elapsed: 0.0005459785461425781
ell 708, elapsed: 0.0005497932434082031
ell 702, elapsed: 0.001007080078125
ell 701, elapsed: 0.0005431175231933594
ell 700, elapsed: 0.0005609989166259766
ell 699, elapsed: 0.0005428791046142578
ell 698, elapsed: 0.0005509853363037109
ell 692, elapsed: 0.0010159015655517578
ell 691, elapsed: 0.0005550384521484375
ell 690, elapsed: 0.0005598068237304688
ell 689, elapsed: 0.0005609989166259766
ell 688, elapsed: 0.0005638599395751953
ell 682, elapsed: 0.0009579658508300781
ell 681, elapsed: 0.0005469322204589844
ell 680, elapsed: 0.0005509853363037109
ell 679, elapsed: 0.0005419254302978516
ell 678, elapsed: 0.0005550384521484375
ell 672, elapsed: 0.0009560585021972656
ell 671, elapsed: 0.0005478858947753906
ell 670, elapsed: 0.0005500316619873047
ell 669, elapsed: 0.0005829334259033203
ell 668, elapsed: 0.0005550384521484375
ell 662, elapsed: 0.0009779930114746094
ell 661, elapsed: 0.0005528926849365234
ell 660, elapsed: 0.0005600452423095703
ell 659, elapsed: 0.0005519390106201172
ell 658, elapsed: 0.0005919933319091797
ell 652, elapsed: 0.0009670257568359375
ell 651, elapsed: 0.000553131103515625
ell 650, elapsed: 0.0005600452423095703
ell 649, elapsed: 0.0005471706390380859
ell 648, elapsed: 0.0005469322204589844
ell 642, elapsed: 0.0009789466857910156
ell 641, elapsed: 0.0005249977111816406
ell 640, elapsed: 0.0005381107330322266
ell 639, elapsed: 0.0005340576171875
ell 638, elapsed: 0.0005369186401367188
ell 632, elapsed: 0.0009160041809082031
ell 631, elapsed: 0.00055694580078125
ell 630, elapsed: 0.0005440711975097656
ell 629, elapsed: 0.0005340576171875
ell 628, elapsed: 0.0005390644073486328
ell 622, elapsed: 0.0009219646453857422
ell 621, elapsed: 0.0005381107330322266
ell 620, elapsed: 0.0005598068237304688
ell 619, elapsed: 0.0005369186401367188
ell 618, elapsed: 0.0005381107330322266
ell 612, elapsed: 0.000926971435546875
ell 611, elapsed: 0.0005259513854980469
ell 610, elapsed: 0.0005431175231933594
ell 609, elapsed: 0.0005428791046142578
ell 608, elapsed: 0.0005960464477539062
ell 602, elapsed: 0.0009660720825195312
ell 601, elapsed: 0.0005350112915039062
ell 600, elapsed: 0.0005660057067871094
ell 599, elapsed: 0.0005412101745605469
ell 598, elapsed: 0.0005519390106201172
ell 592, elapsed: 0.0009968280792236328
ell 591, elapsed: 0.0005521774291992188
ell 590, elapsed: 0.0005629062652587891
ell 589, elapsed: 0.0005550384521484375
ell 588, elapsed: 0.0005631446838378906
ell 582, elapsed: 0.000988006591796875
ell 581, elapsed: 0.0005650520324707031
ell 580, elapsed: 0.0005609989166259766
ell 579, elapsed: 0.0005509853363037109
ell 578, elapsed: 0.0005590915679931641
ell 572, elapsed: 0.0009770393371582031
ell 571, elapsed: 0.0005919933319091797
ell 570, elapsed: 0.0005660057067871094
ell 569, elapsed: 0.0005581378936767578
ell 568, elapsed: 0.0005578994750976562
ell 562, elapsed: 0.0009999275207519531
ell 561, elapsed: 0.0005471706390380859
ell 560, elapsed: 0.0005528926849365234
ell 559, elapsed: 0.000659942626953125
ell 558, elapsed: 0.0005490779876708984
ell 552, elapsed: 0.0010180473327636719
ell 551, elapsed: 0.0005550384521484375
ell 550, elapsed: 0.000553131103515625
ell 549, elapsed: 0.0005450248718261719
ell 548, elapsed: 0.0005872249603271484
ell 542, elapsed: 0.0009701251983642578
ell 541, elapsed: 0.0005598068237304688
ell 540, elapsed: 0.0005669593811035156
ell 539, elapsed: 0.0005347728729248047
ell 538, elapsed: 0.0005538463592529297
ell 532, elapsed: 0.0010030269622802734
ell 531, elapsed: 0.00055694580078125
ell 530, elapsed: 0.0005638599395751953
ell 529, elapsed: 0.0005390644073486328
ell 528, elapsed: 0.0005500316619873047
ell 522, elapsed: 0.0009980201721191406
ell 521, elapsed: 0.0005171298980712891
ell 520, elapsed: 0.0005230903625488281
ell 519, elapsed: 0.0005228519439697266
ell 518, elapsed: 0.0005178451538085938
ell 512, elapsed: 0.0009100437164306641
ell 511, elapsed: 0.0005099773406982422
ell 510, elapsed: 0.0005409717559814453
ell 509, elapsed: 0.0005049705505371094
ell 508, elapsed: 0.0005159378051757812
ell 502, elapsed: 0.0009109973907470703
ell 501, elapsed: 0.0004980564117431641
ell 500, elapsed: 0.00047206878662109375
ell 499, elapsed: 0.0004470348358154297
ell 498, elapsed: 0.0005800724029541016
ell 492, elapsed: 0.0009129047393798828
ell 491, elapsed: 0.00044417381286621094
ell 490, elapsed: 0.0004990100860595703
ell 489, elapsed: 0.0005259513854980469
ell 488, elapsed: 0.0004940032958984375
ell 482, elapsed: 0.0008370876312255859
ell 481, elapsed: 0.0004420280456542969
ell 480, elapsed: 0.0004839897155761719
ell 479, elapsed: 0.0005209445953369141
ell 478, elapsed: 0.0005428791046142578
ell 472, elapsed: 0.0008330345153808594
ell 471, elapsed: 0.0004801750183105469
ell 470, elapsed: 0.0005030632019042969
ell 469, elapsed: 0.0004699230194091797
ell 468, elapsed: 0.0005209445953369141
ell 462, elapsed: 0.0009338855743408203
ell 461, elapsed: 0.0005271434783935547
ell 460, elapsed: 0.0005090236663818359
ell 459, elapsed: 0.0005168914794921875
ell 458, elapsed: 0.0005731582641601562
ell 452, elapsed: 0.0009219646453857422
ell 451, elapsed: 0.0005209445953369141
ell 450, elapsed: 0.0005102157592773438
ell 449, elapsed: 0.000514984130859375
ell 448, elapsed: 0.0005221366882324219
ell 442, elapsed: 0.0009589195251464844
ell 441, elapsed: 0.0005199909210205078
ell 440, elapsed: 0.0005228519439697266
ell 439, elapsed: 0.0005238056182861328
ell 438, elapsed: 0.0005218982696533203
ell 432, elapsed: 0.000885009765625
ell 431, elapsed: 0.0005059242248535156
ell 430, elapsed: 0.0005550384521484375
ell 429, elapsed: 0.0005099773406982422
ell 428, elapsed: 0.0005049705505371094
ell 422, elapsed: 0.0009081363677978516
ell 421, elapsed: 0.0005040168762207031
ell 420, elapsed: 0.0005249977111816406
ell 419, elapsed: 0.0005478858947753906
ell 418, elapsed: 0.0004680156707763672
ell 412, elapsed: 0.0008270740509033203
ell 411, elapsed: 0.0005021095275878906
ell 410, elapsed: 0.0005011558532714844
ell 409, elapsed: 0.0005109310150146484
ell 408, elapsed: 0.0005080699920654297
ell 402, elapsed: 0.0009930133819580078
ell 401, elapsed: 0.0005319118499755859
ell 400, elapsed: 0.0005249977111816406
ell 399, elapsed: 0.0005259513854980469
ell 398, elapsed: 0.0005359649658203125
ell 392, elapsed: 0.0009291172027587891
ell 391, elapsed: 0.0005619525909423828
ell 390, elapsed: 0.0005288124084472656
ell 389, elapsed: 0.0005171298980712891
ell 388, elapsed: 0.0005350112915039062
ell 382, elapsed: 0.0009300708770751953
ell 381, elapsed: 0.0005109310150146484
ell 380, elapsed: 0.0005440711975097656
ell 379, elapsed: 0.0005581378936767578
ell 378, elapsed: 0.0005550384521484375
ell 372, elapsed: 0.0009229183197021484
ell 371, elapsed: 0.0005359649658203125
ell 370, elapsed: 0.0005478858947753906
ell 369, elapsed: 0.0005459785461425781
ell 368, elapsed: 0.0005800724029541016
ell 362, elapsed: 0.0009341239929199219
ell 361, elapsed: 0.0005328655242919922
ell 360, elapsed: 0.0005280971527099609
ell 359, elapsed: 0.0005259513854980469
ell 358, elapsed: 0.000537872314453125
ell 352, elapsed: 0.0010209083557128906
ell 351, elapsed: 0.0005309581756591797
ell 350, elapsed: 0.0005419254302978516
ell 349, elapsed: 0.0005230903625488281
ell 348, elapsed: 0.0005049705505371094
ell 342, elapsed: 0.0009419918060302734
ell 341, elapsed: 0.0006899833679199219
ell 340, elapsed: 0.0005381107330322266
ell 339, elapsed: 0.0005178451538085938
ell 338, elapsed: 0.0005369186401367188
ell 332, elapsed: 0.0009160041809082031
ell 331, elapsed: 0.0005259513854980469
ell 330, elapsed: 0.000640869140625
ell 329, elapsed: 0.0005278587341308594
ell 328, elapsed: 0.0005347728729248047
ell 322, elapsed: 0.0009329319000244141
ell 321, elapsed: 0.0005390644073486328
ell 320, elapsed: 0.001978158950805664
ell 319, elapsed: 0.0005619525909423828
ell 318, elapsed: 0.0005500316619873047
ell 312, elapsed: 0.0009620189666748047
ell 311, elapsed: 0.0005350112915039062
ell 310, elapsed: 0.0005409717559814453
ell 309, elapsed: 0.0006940364837646484
ell 308, elapsed: 0.0005469322204589844
ell 302, elapsed: 0.0019421577453613281
ell 301, elapsed: 0.0005688667297363281
ell 300, elapsed: 0.0005939006805419922
ell 299, elapsed: 0.0005488395690917969
ell 298, elapsed: 0.0005581378936767578
ell 292, elapsed: 0.001432180404663086
ell 291, elapsed: 0.0004711151123046875
ell 290, elapsed: 0.0004811286926269531
ell 289, elapsed: 0.00045800209045410156
ell 288, elapsed: 0.00045418739318847656
ell 282, elapsed: 0.0007641315460205078
ell 281, elapsed: 0.0004420280456542969
ell 280, elapsed: 0.00045299530029296875
ell 279, elapsed: 0.0004432201385498047
ell 278, elapsed: 0.0004489421844482422
ell 272, elapsed: 0.0007960796356201172
ell 271, elapsed: 0.0004780292510986328
ell 270, elapsed: 0.0004780292510986328
ell 269, elapsed: 0.00047087669372558594
ell 268, elapsed: 0.0004749298095703125
ell 262, elapsed: 0.0008249282836914062
ell 261, elapsed: 0.0004429817199707031
ell 260, elapsed: 0.0004980564117431641
ell 259, elapsed: 0.0004439353942871094
ell 258, elapsed: 0.00045418739318847656
ell 252, elapsed: 0.0007669925689697266
ell 251, elapsed: 0.0004398822784423828
ell 250, elapsed: 0.00045418739318847656
ell 249, elapsed: 0.0004749298095703125
ell 248, elapsed: 0.0004820823669433594
ell 242, elapsed: 0.0007829666137695312
ell 241, elapsed: 0.0004489421844482422
ell 240, elapsed: 0.00045800209045410156
ell 239, elapsed: 0.00047278404235839844
ell 238, elapsed: 0.0004570484161376953
ell 232, elapsed: 0.0007700920104980469
ell 231, elapsed: 0.00045800209045410156
ell 230, elapsed: 0.0004980564117431641
ell 229, elapsed: 0.00045609474182128906
ell 228, elapsed: 0.0004780292510986328
ell 222, elapsed: 0.0007848739624023438
ell 221, elapsed: 0.00047397613525390625
ell 220, elapsed: 0.0004868507385253906
ell 219, elapsed: 0.00046896934509277344
ell 218, elapsed: 0.00046896934509277344
ell 212, elapsed: 0.0008220672607421875
ell 211, elapsed: 0.0004591941833496094
ell 210, elapsed: 0.0004639625549316406
ell 209, elapsed: 0.00045490264892578125
ell 208, elapsed: 0.0004811286926269531
ell 202, elapsed: 0.00078582763671875
ell 201, elapsed: 0.0004508495330810547
ell 200, elapsed: 0.0004928112030029297
ell 199, elapsed: 0.00048089027404785156
ell 198, elapsed: 0.0004889965057373047
ell 192, elapsed: 0.0007801055908203125
ell 191, elapsed: 0.00045609474182128906
ell 190, elapsed: 0.0004711151123046875
ell 189, elapsed: 0.00045800209045410156
ell 188, elapsed: 0.0005059242248535156
ell 182, elapsed: 0.0007691383361816406
ell 181, elapsed: 0.00045299530029296875
ell 180, elapsed: 0.0004668235778808594
ell 179, elapsed: 0.00044989585876464844
ell 178, elapsed: 0.0004620552062988281
ell 172, elapsed: 0.0007560253143310547
ell 171, elapsed: 0.0005049705505371094
ell 170, elapsed: 0.0004680156707763672
ell 169, elapsed: 0.0004918575286865234
ell 168, elapsed: 0.0004889965057373047
ell 162, elapsed: 0.0008449554443359375
ell 161, elapsed: 0.0004811286926269531
ell 160, elapsed: 0.00048804283142089844
ell 159, elapsed: 0.0005109310150146484
ell 158, elapsed: 0.0004761219024658203
ell 152, elapsed: 0.0008039474487304688
ell 151, elapsed: 0.0004699230194091797
ell 150, elapsed: 0.0004801750183105469
ell 149, elapsed: 0.0004780292510986328
ell 148, elapsed: 0.00048613548278808594
ell 142, elapsed: 0.0008499622344970703
ell 141, elapsed: 0.0004680156707763672
ell 140, elapsed: 0.0004830360412597656
ell 139, elapsed: 0.0004730224609375
ell 138, elapsed: 0.00047588348388671875
ell 132, elapsed: 0.0008118152618408203
ell 131, elapsed: 0.00048613548278808594
ell 130, elapsed: 0.0005331039428710938
ell 129, elapsed: 0.0004980564117431641
ell 128, elapsed: 0.00048089027404785156
ell 122, elapsed: 0.000823974609375
ell 121, elapsed: 0.00045108795166015625
ell 120, elapsed: 0.00047016143798828125
ell 119, elapsed: 0.00045609474182128906
ell 118, elapsed: 0.0004820823669433594
ell 112, elapsed: 0.0013451576232910156
ell 111, elapsed: 0.0006310939788818359
ell 110, elapsed: 0.0006511211395263672
ell 109, elapsed: 0.0006170272827148438
ell 108, elapsed: 0.0006449222564697266
ell 102, elapsed: 0.0012478828430175781
ell 101, elapsed: 0.0025742053985595703
ell 100, elapsed: 0.0025959014892578125
ell 99, elapsed: 0.0025980472564697266
ell 98, elapsed: 0.0026030540466308594
ell 92, elapsed: 0.005246877670288086
ell 91, elapsed: 0.0026760101318359375
ell 90, elapsed: 0.002637147903442383
ell 89, elapsed: 0.002644062042236328
ell 88, elapsed: 0.0026369094848632812
ell 82, elapsed: 0.005165815353393555
ell 81, elapsed: 0.0025250911712646484
ell 80, elapsed: 0.002621889114379883
ell 79, elapsed: 0.0026280879974365234
ell 78, elapsed: 0.0026481151580810547
ell 72, elapsed: 0.004847049713134766
ell 71, elapsed: 0.0026738643646240234
ell 70, elapsed: 0.0026710033416748047
ell 69, elapsed: 0.0026171207427978516
ell 68, elapsed: 0.002665996551513672
ell 62, elapsed: 0.005307912826538086
ell 61, elapsed: 0.0023190975189208984
ell 60, elapsed: 0.002076864242553711
ell 59, elapsed: 0.002053976058959961
ell 58, elapsed: 0.002076864242553711
ell 52, elapsed: 0.004517078399658203
ell 51, elapsed: 0.002302885055541992
ell 50, elapsed: 0.0022890567779541016
ell 49, elapsed: 0.002318143844604492
ell 48, elapsed: 0.002296924591064453
ell 42, elapsed: 0.004440784454345703
ell 41, elapsed: 0.0023469924926757812
ell 40, elapsed: 0.002260923385620117
ell 39, elapsed: 0.002238035202026367
ell 38, elapsed: 0.0024139881134033203
ell 32, elapsed: 0.004408121109008789
ell 31, elapsed: 0.002296924591064453
ell 30, elapsed: 0.0024459362030029297
ell 29, elapsed: 0.002482891082763672
ell 28, elapsed: 0.0026350021362304688
ell 22, elapsed: 0.004647016525268555
ell 21, elapsed: 0.0028541088104248047
ell 20, elapsed: 0.002357006072998047
ell 19, elapsed: 0.002385854721069336
ell 18, elapsed: 0.002309083938598633
ell 12, elapsed: 0.004432201385498047
ell 11, elapsed: 0.0023450851440429688
ell 10, elapsed: 0.0023338794708251953
ell 9, elapsed: 0.002321004867553711
ell 8, elapsed: 0.0022449493408203125
  0.496892 seconds (68.56 k allocations: 12.176 MiB)
elapsed: 0.0023200511932373047
step:          0.045739 sec (0 allocations: 0 byte, 0.0% gc time)
swapping:      0.000377 sec (0 allocations: 0 byte, 0.0% gc time)
calc_Mellell!: 0.019212 sec (0 allocations: 0 byte, 0.0% gc time)
  t0 :  0.006417 sec (0 allocations: 0 byte, 0.0% gc time)
  tm2 : 0.051393 sec (0 allocations: 0 byte, 0.0% gc time)
  tm2s: 0.005518 sec (0 allocations: 0 byte, 0.0% gc time)
  tm4 : 0.114137 sec (0 allocations: 0 byte, 0.0% gc time)
  tp2 : 0.0 sec (0 allocations: 0 byte, 0.0% gc time)
  tp2s: 0.0 sec (0 allocations: 0 byte, 0.0% gc time)
  tp4 : 0.0 sec (0 allocations: 0 byte, 0.0% gc time)
calc_wtdll!:   0.36192 sec (48.6 k allocations: 11.096 MB, 0.0% gc time)
calc_wljj!:    0.018362 sec (69 allocations: 1.078 KB, 0.0% gc time)
mult_prefac!:  0.0 sec (0 allocations: 0 byte, 0.0% gc time)
convert:       0.0 sec (0 allocations: 0 byte, 0.0% gc time)
write:         0.023438 sec (0 allocations: 0 byte, 0.0% gc time)
test_rand_2f1: 0.0 sec (0 allocations: 0 byte, 0.0% gc time)
Closing outfile out/MlCache/MlCache.bin...   0.000010 seconds
xi, l=0, nu=0:   0.305430 seconds (614.70 k allocations: 34.032 MiB, 7.12% gc time, 99.42% compilation time)
xi, l=0, nu=-2:  0.001465 seconds (114 allocations: 148.969 KiB)
Created 'out/xi.tsv'.
  q=1.1, R=0.6:	  0.413022 seconds (264.58 k allocations: 38.109 MiB, 4.08% gc time)
  q=1.1, R=0.7:	  0.485892 seconds (276.43 k allocations: 40.113 MiB, 4.72% gc time)
  q=1.1, R=0.8:	  0.465457 seconds (271.87 k allocations: 39.334 MiB, 1.30% gc time)
  q=1.1, R=0.9:	  0.520014 seconds (266.68 k allocations: 38.464 MiB)
  q=1.1, R=0.998:	 13.996082 seconds (126.20 k allocations: 8.290 MiB, 0.16% gc time, 0.26% compilation time)
  q=1.1, R=1.0:	  0.003262 seconds (8.20 k allocations: 704.344 KiB)

ℓ = 1000
Δℓ = 4
ΔℓRg1 = -4
N = 4096
q = 1.1
kmin = 1.0e-5
kmax = 1000.0
χ0 = 0.001
RR = RR.tsv
ℓmax = ℓmax.bin
f21 = f21.bin
kmin = 1.0e-5
kmax = 1000.0
dlrec    = 4
dlrecRg1 = -4
Output size: 1573632 bytes = 0.0014655590057373047 GiB
Output size: 786816 bytes = 0.0007327795028686523 GiB
Reading 'out/F21EllCache'...   0.001223 seconds (198 allocations: 533.078 KiB)
ellmax: 1002
lmaxcache: 1000
fell[:,1,1] = ComplexF64[1.726292812820208e-224 - 4.2281979352226965e-240im, 1.7282693092099638e-224 - 4.233038955177178e-240im]
ell 1002, elapsed: 3.409385681152344e-5
ell 1001, elapsed: 0.0008490085601806641
ell 1000, elapsed: 0.0006480216979980469
ell 999, elapsed: 0.004026889801025391
ell 998, elapsed: 0.004052877426147461
ell 44, elapsed: 0.5875771045684814
ell 43, elapsed: 0.0037059783935546875
ell 42, elapsed: 0.003780841827392578
ell 41, elapsed: 0.00374603271484375
ell 40, elapsed: 0.003930091857910156
  0.617191 seconds (4.59 k allocations: 322.266 KiB)
elapsed: 0.004558086395263672
step:          0.582517 sec (0 allocations: 0 byte, 0.0% gc time)
swapping:      0.000366 sec (0 allocations: 0 byte, 0.0% gc time)
calc_Mellell!: 0.000907 sec (0 allocations: 0 byte, 0.0% gc time)
  t0 :  0.000406 sec (0 allocations: 0 byte, 0.0% gc time)
  tm2 : 0.007313 sec (0 allocations: 0 byte, 0.0% gc time)
  tm2s: 0.000389 sec (0 allocations: 0 byte, 0.0% gc time)
  tm4 : 0.018049 sec (0 allocations: 0 byte, 0.0% gc time)
  tp2 : 0.0 sec (0 allocations: 0 byte, 0.0% gc time)
  tp2s: 0.0 sec (0 allocations: 0 byte, 0.0% gc time)
  tp4 : 0.0 sec (0 allocations: 0 byte, 0.0% gc time)
calc_wtdll!:   0.026335 sec (480 allocations: 52.5 KB, 0.0% gc time)
calc_wljj!:    0.000775 sec (1 allocations: 16 byte, 0.0% gc time)
mult_prefac!:  0.0 sec (0 allocations: 0 byte, 0.0% gc time)
convert:       0.0 sec (0 allocations: 0 byte, 0.0% gc time)
write:         0.00061 sec (0 allocations: 0 byte, 0.0% gc time)
test_rand_2f1: 0.0 sec (0 allocations: 0 byte, 0.0% gc time)
Closing outfile out/MlCache/MlCache.bin...   0.000007 seconds
  0.353231 seconds (38 allocations: 66.859 KiB)
make_phi():   0.006094 seconds (65 allocations: 275.984 KiB)
  0.038904 seconds (11.83 k allocations: 740.085 KiB, 92.08% compilation time)
tskip:       1.0e-6 sec (0 allocations: 0 byte, 0.0% gc time)
tread:       0.000507 sec (17 allocations: 1.266 KB, 0.0% gc time)
tmultphi:    0.000204 sec (0 allocations: 0 byte, 0.0% gc time)
tbrfft:      0.000915 sec (0 allocations: 0 byte, 0.0% gc time)
tmultprefac: 0.000426 sec (0 allocations: 0 byte, 0.0% gc time)
toutfunc:    0.000155 sec (0 allocations: 0 byte, 0.0% gc time)
Created 'out/wl42_jj00.tsv'.
Created 'out/wl42_jj02.tsv'.
    Testing TwoFAST tests passed 
