Julia Version 1.4.0-DEV.596
Commit 1c87f695be (2019-12-12 22:34 UTC)
Platform Info:
  OS: Linux (x86_64-pc-linux-gnu)
  CPU: Intel(R) Xeon(R) Silver 4114 CPU @ 2.20GHz
  WORD_SIZE: 64
  LIBM: libopenlibm
  LLVM: libLLVM-8.0.1 (ORCJIT, skylake)
Environment:
  JULIA_DEPOT_PATH = ::/usr/local/share/julia

 Resolving package versions...
 Installed VersionParsing ─── v1.2.0
 Installed URIParser ──────── v0.4.0
 Installed Reexport ───────── v0.2.0
 Installed FFTW ───────────── v1.1.0
 Installed SpecialFunctions ─ v0.8.0
 Installed AbstractAlgebra ── v0.7.1
 Installed Nemo ───────────── v0.15.1
 Installed Conda ──────────── v1.3.0
 Installed TwoFAST ────────── v0.1.0
 Installed IncGammaBeta ───── v0.1.0
 Installed AbstractFFTs ───── v0.5.0
 Installed Parsers ────────── v0.3.10
 Installed BinDeps ────────── v1.0.0
 Installed BinaryProvider ─── v0.5.8
 Installed JSON ───────────── v0.21.0
  Updating `~/.julia/environments/v1.4/Project.toml`
  [0dd23c3e] + TwoFAST v0.1.0
  Updating `~/.julia/environments/v1.4/Manifest.toml`
  [c3fe647b] + AbstractAlgebra v0.7.1
  [621f4979] + AbstractFFTs v0.5.0
  [9e28174c] + BinDeps v1.0.0
  [b99e7846] + BinaryProvider v0.5.8
  [8f4d0f93] + Conda v1.3.0
  [7a1cc6ca] + FFTW v1.1.0
  [5087d2c0] + IncGammaBeta v0.1.0
  [682c06a0] + JSON v0.21.0
  [2edaba10] + Nemo v0.15.1
  [69de0a69] + Parsers v0.3.10
  [189a3867] + Reexport v0.2.0
  [276daf66] + SpecialFunctions v0.8.0
  [0dd23c3e] + TwoFAST v0.1.0
  [30578b45] + URIParser v0.4.0
  [81def892] + VersionParsing v1.2.0
  [2a0f44e3] + Base64 
  [ade2ca70] + Dates 
  [8bb1440f] + DelimitedFiles 
  [8ba89e20] + Distributed 
  [b77e0a4c] + InteractiveUtils 
  [76f85450] + LibGit2 
  [8f399da3] + Libdl 
  [37e2e46d] + LinearAlgebra 
  [56ddb016] + Logging 
  [d6f4376e] + Markdown 
  [a63ad114] + Mmap 
  [44cfe95a] + Pkg 
  [de0858da] + Printf 
  [3fa0cd96] + REPL 
  [9a3f8284] + Random 
  [ea8e919c] + SHA 
  [9e88b42a] + Serialization 
  [6462fe0b] + Sockets 
  [2f01184e] + SparseArrays 
  [8dfed614] + Test 
  [cf7118a7] + UUIDs 
  [4ec0a83e] + Unicode 
  Building SpecialFunctions → `~/.julia/packages/SpecialFunctions/ne2iw/deps/build.log`
  Building Conda ───────────→ `~/.julia/packages/Conda/kLXeC/deps/build.log`
  Building FFTW ────────────→ `~/.julia/packages/FFTW/loJ3F/deps/build.log`
  Building Nemo ────────────→ `~/.julia/packages/Nemo/qzx0m/deps/build.log`
   Testing TwoFAST
 Resolving package versions...

gzip: stdin: not in gzip format
tar: Child returned status 1
tar: Error is not recoverable: exiting now
┌ Warning: failed to extract archive downloaded from https://github.com/kbarbary/Dierckx.jl.git
└ @ Pkg.Operations /buildworker/worker/package_linux64/build/usr/share/julia/stdlib/v1.4/Pkg/src/Operations.jl:481
   Cloning [?25l[39dd38d3-220a-591b-8e3c-4c3a8c710a94] Dierckx from https://github.com/kbarbary/Dierckx.jl.git
    Fetching: [>                                        ]  0.0 %[2K[?25h Installed Dierckx ─ v0.4.1
  Building Dierckx → `~/.julia/packages/Dierckx/9SY4A/deps/build.log`
Status `/tmp/jl_uKo0WM/Manifest.toml`
  [c3fe647b] AbstractAlgebra v0.7.1
  [621f4979] AbstractFFTs v0.5.0
  [9e28174c] BinDeps v1.0.0
  [b99e7846] BinaryProvider v0.5.8
  [8f4d0f93] Conda v1.3.0
  [39dd38d3] Dierckx v0.4.1
  [7a1cc6ca] FFTW v1.1.0
  [5087d2c0] IncGammaBeta v0.1.0
  [682c06a0] JSON v0.21.0
  [2edaba10] Nemo v0.15.1
  [69de0a69] Parsers v0.3.10
  [189a3867] Reexport v0.2.0
  [276daf66] SpecialFunctions v0.8.0
  [0dd23c3e] TwoFAST v0.1.0
  [30578b45] URIParser v0.4.0
  [81def892] VersionParsing v1.2.0
  [2a0f44e3] Base64  [`@stdlib/Base64`]
  [ade2ca70] Dates  [`@stdlib/Dates`]
  [8bb1440f] DelimitedFiles  [`@stdlib/DelimitedFiles`]
  [8ba89e20] Distributed  [`@stdlib/Distributed`]
  [b77e0a4c] InteractiveUtils  [`@stdlib/InteractiveUtils`]
  [76f85450] LibGit2  [`@stdlib/LibGit2`]
  [8f399da3] Libdl  [`@stdlib/Libdl`]
  [37e2e46d] LinearAlgebra  [`@stdlib/LinearAlgebra`]
  [56ddb016] Logging  [`@stdlib/Logging`]
  [d6f4376e] Markdown  [`@stdlib/Markdown`]
  [a63ad114] Mmap  [`@stdlib/Mmap`]
  [44cfe95a] Pkg  [`@stdlib/Pkg`]
  [de0858da] Printf  [`@stdlib/Printf`]
  [3fa0cd96] REPL  [`@stdlib/REPL`]
  [9a3f8284] Random  [`@stdlib/Random`]
  [ea8e919c] SHA  [`@stdlib/SHA`]
  [9e88b42a] Serialization  [`@stdlib/Serialization`]
  [6462fe0b] Sockets  [`@stdlib/Sockets`]
  [2f01184e] SparseArrays  [`@stdlib/SparseArrays`]
  [8dfed614] Test  [`@stdlib/Test`]
  [cf7118a7] UUIDs  [`@stdlib/UUIDs`]
  [4ec0a83e] Unicode  [`@stdlib/Unicode`]

Welcome to Nemo version 0.15.1

Nemo comes with absolutely no warranty whatsoever


Welcome to Nemo version 0.15.1

Nemo comes with absolutely no warranty whatsoever

Testing ξ(r), ℓ=0, ν=-1 ... passed
Testing ξ(r), ℓ=0, ν=0 ... passed
Testing ξ(r), ℓ=0, ν=1 ... passed
Testing ξ(r), ℓ=0, ν=2 ... passed
Testing ξ(r), ℓ=0, ν=3 ... passed
Testing ξ(r), ℓ=1, ν=0 ... passed
Testing ξ(r), ℓ=1, ν=1 ... passed
Testing ξ(r), ℓ=1, ν=2 ... passed
Testing ξ(r), ℓ=1, ν=3 ... passed
Testing ξ(r), ℓ=2, ν=-1 ... passed
Testing ξ(r), ℓ=2, ν=0 ... passed
Testing ξ(r), ℓ=2, ν=1 ... passed
Testing ξ(r), ℓ=2, ν=2 ... passed
Testing ξ(r), ℓ=2, ν=3 ... passed
Testing ξ(r), ℓ=3, ν=-1 ... passed
Testing ξ(r), ℓ=3, ν=0 ... passed
Testing ξ(r), ℓ=3, ν=1 ... passed
Testing ξ(r), ℓ=3, ν=2 ... passed
Testing ξ(r), ℓ=3, ν=3 ... passed
Testing ξ(r), ℓ=4, ν=-1 ... passed
Testing ξ(r), ℓ=4, ν=0 ... passed
Testing ξ(r), ℓ=4, ν=1 ... passed
Testing ξ(r), ℓ=4, ν=2 ... passed
Testing ξ(r), ℓ=4, ν=3 ... passed
Testing ξ(r) ... passed
Testing ξ′(r) ... passed
Testing ξ″(r) ... passed
Calculating fmax: 
  dlrec    = 4
  dlrecRg1 = -4
  q=1.1, R=1.1:	  4.840118 seconds (1.20 M allocations: 67.957 MiB, 1.42% gc time)

  4.884122 seconds (1.22 M allocations: 69.068 MiB, 1.40% gc time)
ℓ = 1202
Δℓ = 4
ΔℓRg1 = -4
N = 1600
q = 1.1
kmin = 1.0e-5
kmax = 100000.00000000004
χ0 = 0.023029999999999995
RR = RR.tsv
ℓmax = ℓmax.bin
f21 = f21.bin
kmin = 1.0e-5
kmax = 100000.0
dlrec    = 4
dlrecRg1 = -4
Output size: 5741568 bytes = 0.005347251892089844 GiB
Output size: 51264 bytes = 4.774332046508789e-5 GiB
Reading 'out/F21EllCache'...   0.624164 seconds (314.29 k allocations: 16.149 MiB)
ellmax: 1202
lmaxcache: 1202
fell[:,1,1] = Complex{Float64}[3.9583795592771634e-52 - 9.695233714158177e-68im, 3.990121772925759e-52 - 9.772979714843386e-68im]
ell 1202, elapsed: 0.00023889541625976562
ell 1201, elapsed: 2.3869740962982178
ell 1200, elapsed: 0.0005459785461425781
ell 1199, elapsed: 0.0005030632019042969
ell 1198, elapsed: 0.0005030632019042969
ell 1002, elapsed: 0.009725809097290039
ell 1001, elapsed: 0.0005080699920654297
ell 1000, elapsed: 0.00047206878662109375
ell 999, elapsed: 0.00048279762268066406
ell 998, elapsed: 0.0004839897155761719
ell 902, elapsed: 0.0050318241119384766
ell 901, elapsed: 0.00049591064453125
ell 900, elapsed: 0.00047898292541503906
ell 899, elapsed: 0.00047898292541503906
ell 898, elapsed: 0.0004839897155761719
ell 802, elapsed: 0.005296945571899414
ell 801, elapsed: 0.0005898475646972656
ell 800, elapsed: 0.00049591064453125
ell 799, elapsed: 0.0004949569702148438
ell 798, elapsed: 0.0005161762237548828
ell 702, elapsed: 0.005293846130371094
ell 701, elapsed: 0.0004990100860595703
ell 700, elapsed: 0.0005788803100585938
ell 699, elapsed: 0.00049591064453125
ell 698, elapsed: 0.00048804283142089844
ell 602, elapsed: 0.0052869319915771484
ell 601, elapsed: 0.0005140304565429688
ell 600, elapsed: 0.0004799365997314453
ell 599, elapsed: 0.0005600452423095703
ell 598, elapsed: 0.00047206878662109375
ell 502, elapsed: 0.005558013916015625
ell 501, elapsed: 0.0005538463592529297
ell 500, elapsed: 0.0005240440368652344
ell 499, elapsed: 0.0005090236663818359
ell 498, elapsed: 0.0006101131439208984
ell 402, elapsed: 0.005653858184814453
ell 401, elapsed: 0.0005190372467041016
ell 400, elapsed: 0.0004968643188476562
ell 399, elapsed: 0.0005049705505371094
ell 398, elapsed: 0.00061798095703125
ell 302, elapsed: 0.004951000213623047
ell 301, elapsed: 0.00048804283142089844
ell 300, elapsed: 0.0004761219024658203
ell 299, elapsed: 0.00047397613525390625
ell 298, elapsed: 0.0004680156707763672
ell 202, elapsed: 0.005972862243652344
ell 201, elapsed: 0.0004949569702148438
ell 200, elapsed: 0.00047397613525390625
ell 199, elapsed: 0.00047397613525390625
ell 198, elapsed: 0.00047016143798828125
ell 152, elapsed: 0.002714872360229492
ell 151, elapsed: 0.0004909038543701172
ell 150, elapsed: 0.00048804283142089844
ell 149, elapsed: 0.00047898292541503906
ell 148, elapsed: 0.0005300045013427734
ell 127, elapsed: 0.0017261505126953125
ell 126, elapsed: 0.0005319118499755859
ell 125, elapsed: 0.0004611015319824219
ell 124, elapsed: 0.0004680156707763672
ell 123, elapsed: 0.0005428791046142578
ell 114, elapsed: 0.0008909702301025391
ell 113, elapsed: 0.0004799365997314453
ell 112, elapsed: 0.0004658699035644531
ell 111, elapsed: 0.00047898292541503906
ell 110, elapsed: 0.0005440711975097656
ell 102, elapsed: 0.0011670589447021484
ell 101, elapsed: 0.0005059242248535156
ell 100, elapsed: 0.0004858970642089844
ell 99, elapsed: 0.0004851818084716797
ell 98, elapsed: 0.0004811286926269531
ell 97, elapsed: 0.0005509853363037109
ell 96, elapsed: 0.0006818771362304688
ell 95, elapsed: 0.0006639957427978516
ell 94, elapsed: 0.0007421970367431641
ell 93, elapsed: 0.0009169578552246094
ell 92, elapsed: 0.0006308555603027344
ell 91, elapsed: 0.0004990100860595703
ell 90, elapsed: 0.0005970001220703125
ell 89, elapsed: 0.0004909038543701172
ell 88, elapsed: 0.00055694580078125
ell 87, elapsed: 0.0004918575286865234
ell 86, elapsed: 0.0005590915679931641
ell 85, elapsed: 0.0004949569702148438
ell 84, elapsed: 0.0005581378936767578
ell 83, elapsed: 0.000492095947265625
ell 82, elapsed: 0.0006258487701416016
ell 81, elapsed: 0.0005471706390380859
ell 80, elapsed: 0.0006191730499267578
ell 79, elapsed: 0.0005469322204589844
ell 78, elapsed: 0.0006129741668701172
ell 77, elapsed: 0.0005500316619873047
ell 76, elapsed: 0.0006258487701416016
ell 75, elapsed: 0.0005459785461425781
ell 74, elapsed: 0.0006339550018310547
ell 73, elapsed: 0.0005481243133544922
ell 72, elapsed: 0.0006201267242431641
ell 71, elapsed: 0.0005471706390380859
ell 70, elapsed: 0.0006299018859863281
ell 69, elapsed: 0.0005509853363037109
ell 68, elapsed: 0.0006270408630371094
ell 67, elapsed: 0.0005488395690917969
ell 66, elapsed: 0.0006229877471923828
ell 65, elapsed: 0.0005500316619873047
ell 64, elapsed: 0.0006208419799804688
ell 63, elapsed: 0.0005619525909423828
ell 62, elapsed: 0.0006248950958251953
ell 61, elapsed: 0.0005500316619873047
ell 60, elapsed: 0.0006258487701416016
ell 59, elapsed: 0.0005519390106201172
ell 58, elapsed: 0.0006210803985595703
ell 57, elapsed: 0.0005519390106201172
ell 56, elapsed: 0.0006480216979980469
ell 55, elapsed: 0.0005578994750976562
ell 54, elapsed: 0.0006229877471923828
ell 53, elapsed: 0.0005571842193603516
ell 52, elapsed: 0.0006210803985595703
ell 51, elapsed: 0.0005521774291992188
ell 50, elapsed: 0.0006320476531982422
ell 49, elapsed: 0.0005578994750976562
ell 48, elapsed: 0.0006279945373535156
ell 47, elapsed: 0.0005550384521484375
ell 46, elapsed: 0.0006291866302490234
ell 45, elapsed: 0.0005559921264648438
ell 44, elapsed: 0.0006451606750488281
ell 43, elapsed: 0.0005571842193603516
ell 42, elapsed: 0.041496992111206055
ell 41, elapsed: 0.0006151199340820312
ell 40, elapsed: 0.0005719661712646484
ell 39, elapsed: 0.0004971027374267578
ell 38, elapsed: 0.0007040500640869141
ell 37, elapsed: 0.0006189346313476562
ell 36, elapsed: 0.0007059574127197266
ell 35, elapsed: 0.000614166259765625
ell 34, elapsed: 0.0006887912750244141
ell 33, elapsed: 0.0005738735198974609
ell 32, elapsed: 0.0006530284881591797
ell 31, elapsed: 0.0005729198455810547
ell 30, elapsed: 0.0006620883941650391
ell 29, elapsed: 0.0005688667297363281
ell 28, elapsed: 0.0006458759307861328
ell 27, elapsed: 0.0005729198455810547
ell 26, elapsed: 0.0006580352783203125
ell 25, elapsed: 0.0005650520324707031
ell 24, elapsed: 0.0006499290466308594
ell 23, elapsed: 0.0005669593811035156
ell 22, elapsed: 0.0006501674652099609
ell 21, elapsed: 0.0005309581756591797
ell 20, elapsed: 0.0006430149078369141
ell 19, elapsed: 0.0005681514739990234
ell 18, elapsed: 0.000640869140625
ell 17, elapsed: 0.0005440711975097656
ell 16, elapsed: 0.0006680488586425781
ell 15, elapsed: 0.0005719661712646484
ell 14, elapsed: 0.0006430149078369141
ell 13, elapsed: 0.0005729198455810547
ell 12, elapsed: 0.0006499290466308594
ell 11, elapsed: 0.0005688667297363281
ell 10, elapsed: 0.0006539821624755859
ell 9, elapsed: 0.0006220340728759766
ell 8, elapsed: 0.003136873245239258
ell 7, elapsed: 0.0009160041809082031
ell 6, elapsed: 0.0006768703460693359
ell 5, elapsed: 0.0005679130554199219
ell 4, elapsed: 0.0006470680236816406
ell 3, elapsed: 0.0005831718444824219
ell 2, elapsed: 0.0006251335144042969
ell 1, elapsed: 0.0005488395690917969
ell 0, elapsed: 0.0006160736083984375
  3.255958 seconds (1.72 M allocations: 84.797 MiB, 3.03% gc time)
elapsed: 0.0006990432739257812
step:          0.736482 sec (402.65 k allocations: 20.278 MB, 0.0% gc time)
swapping:      0.000542 sec (0 allocations: 0 byte, 0.0% gc time)
calc_Mellell!: 0.547001 sec (296.475 k allocations: 14.961 MB, 0.0% gc time)
  t0 :  0.0 sec (0 allocations: 0 byte, 0.0% gc time)
  tm2 : 0.0 sec (0 allocations: 0 byte, 0.0% gc time)
  tm2s: 0.0 sec (0 allocations: 0 byte, 0.0% gc time)
  tm4 : 0.0 sec (0 allocations: 0 byte, 0.0% gc time)
  tp2 : 0.0 sec (0 allocations: 0 byte, 0.0% gc time)
  tp2s: 0.0 sec (0 allocations: 0 byte, 0.0% gc time)
  tp4 : 0.0 sec (0 allocations: 0 byte, 0.0% gc time)
calc_wtdll!:   1.235132 sec (525.967 k allocations: 26.382 MB, 4.69% gc time)
calc_wljj!:    0.003484 sec (6 allocations: 96 byte, 0.0% gc time)
mult_prefac!:  0.0 sec (0 allocations: 0 byte, 0.0% gc time)
convert:       0.0 sec (0 allocations: 0 byte, 0.0% gc time)
write:         0.00726 sec (0 allocations: 0 byte, 0.0% gc time)
test_rand_2f1: 0.0 sec (0 allocations: 0 byte, 0.0% gc time)
Closing outfile out/Ml21-cache.bin...   0.000155 seconds
  1.060092 seconds (8.65 k allocations: 420.781 KiB)
make_phi():   0.014925 seconds (8.20 k allocations: 238.016 KiB)
  0.248011 seconds (121.75 k allocations: 5.907 MiB)
tskip:       2.2e-5 sec (0 allocations: 0 byte, 0.0% gc time)
tread:       0.002242 sec (19 allocations: 2.172 KB, 0.0% gc time)
tmultphi:    0.053702 sec (26.042 k allocations: 1.339 MB, 0.0% gc time)
tbrfft:      0.004149 sec (896 allocations: 42.0 KB, 0.0% gc time)
tmultprefac: 0.003672 sec (0 allocations: 0 byte, 0.0% gc time)
toutfunc:    0.184181 sec (94.14 k allocations: 4.455 MB, 0.0% gc time)
Testing R=1.1 ... passed
Calculating fmax: 
  dlrec    = 4
  dlrecRg1 = -4
  q=1.1, R=1.0:	  0.001921 seconds (4.00 k allocations: 300.375 KiB)

  0.002503 seconds (4.04 k allocations: 335.062 KiB)
ℓ = 1202
Δℓ = 4
ΔℓRg1 = -4
N = 1600
q = 1.1
kmin = 1.0e-5
kmax = 100000.00000000004
χ0 = 0.023029999999999995
RR = RR.tsv
ℓmax = ℓmax.bin
f21 = f21.bin
kmin = 1.0e-5
kmax = 100000.0
dlrec    = 4
dlrecRg1 = -4
Output size: 61465536 bytes = 0.05724424123764038 GiB
Output size: 51264 bytes = 4.774332046508789e-5 GiB
Reading 'out/F21EllCache'...   0.001083 seconds (267 allocations: 84.656 KiB)
ellmax: 1202
lmaxcache: 1202
fell[:,1,1] = Complex{Float64}[809.6031528389767 - 1.9829558194077161e-13im, 0.0 + 0.0im]
ell 1202, elapsed: 2.4080276489257812e-5
ell 1201, elapsed: 0.014009952545166016
ell 1200, elapsed: 0.0004680156707763672
ell 1199, elapsed: 0.00045609474182128906
ell 1198, elapsed: 0.0004811286926269531
ell 1197, elapsed: 0.0005600452423095703
ell 1196, elapsed: 0.0005621910095214844
ell 1195, elapsed: 0.0006439685821533203
ell 1194, elapsed: 0.0005280971527099609
ell 1193, elapsed: 0.00061798095703125
ell 1192, elapsed: 0.0005328655242919922
ell 1191, elapsed: 0.0007221698760986328
ell 1190, elapsed: 0.0006449222564697266
ell 1189, elapsed: 0.0007410049438476562
ell 1188, elapsed: 0.00051116943359375
ell 1187, elapsed: 0.0006430149078369141
ell 1186, elapsed: 0.0006160736083984375
ell 1185, elapsed: 0.0006470680236816406
ell 1184, elapsed: 0.000614166259765625
ell 1183, elapsed: 0.0007500648498535156
ell 1182, elapsed: 0.0006351470947265625
ell 1181, elapsed: 0.0007619857788085938
ell 1180, elapsed: 0.0006539821624755859
ell 1179, elapsed: 0.0007538795471191406
ell 1178, elapsed: 0.0006449222564697266
ell 1177, elapsed: 0.0007510185241699219
ell 1176, elapsed: 0.000637054443359375
ell 1175, elapsed: 0.0007460117340087891
ell 1174, elapsed: 0.0007140636444091797
ell 1173, elapsed: 0.0007739067077636719
ell 1172, elapsed: 0.0007619857788085938
ell 1171, elapsed: 0.0007748603820800781
ell 1170, elapsed: 0.0006639957427978516
ell 1169, elapsed: 0.0008559226989746094
ell 1168, elapsed: 0.0007569789886474609
ell 1167, elapsed: 0.0008561611175537109
ell 1166, elapsed: 0.0007500648498535156
ell 1165, elapsed: 0.0008869171142578125
ell 1164, elapsed: 0.0007488727569580078
ell 1163, elapsed: 0.0008649826049804688
ell 1162, elapsed: 0.0007388591766357422
ell 1161, elapsed: 0.0008690357208251953
ell 1160, elapsed: 0.0007519721984863281
ell 1159, elapsed: 0.0008778572082519531
ell 1158, elapsed: 0.0006921291351318359
ell 1157, elapsed: 0.0007638931274414062
ell 1156, elapsed: 0.0006339550018310547
ell 1155, elapsed: 0.0006530284881591797
ell 1154, elapsed: 0.0005831718444824219
ell 1153, elapsed: 0.0005750656127929688
ell 1152, elapsed: 0.0006079673767089844
ell 1151, elapsed: 0.0008380413055419922
ell 1150, elapsed: 0.0006728172302246094
ell 1149, elapsed: 0.0006160736083984375
ell 1148, elapsed: 0.0006160736083984375
ell 1147, elapsed: 0.0006051063537597656
ell 1146, elapsed: 0.0006401538848876953
ell 1145, elapsed: 0.0008029937744140625
ell 1144, elapsed: 0.0005052089691162109
ell 1143, elapsed: 0.0008440017700195312
ell 1142, elapsed: 0.0007300376892089844
ell 1141, elapsed: 0.0008709430694580078
ell 1140, elapsed: 0.0007410049438476562
ell 1139, elapsed: 0.0008368492126464844
ell 1138, elapsed: 0.0007579326629638672
ell 1137, elapsed: 0.0008449554443359375
ell 1136, elapsed: 0.0004980564117431641
ell 1135, elapsed: 0.0006010532379150391
ell 1134, elapsed: 0.0004949569702148438
ell 1133, elapsed: 0.0005838871002197266
ell 1132, elapsed: 0.0006821155548095703
ell 1131, elapsed: 0.0006000995635986328
ell 1130, elapsed: 0.0007250308990478516
ell 1129, elapsed: 0.0008149147033691406
ell 1128, elapsed: 0.0006530284881591797
ell 1127, elapsed: 0.0005841255187988281
ell 1126, elapsed: 0.0007271766662597656
ell 1125, elapsed: 0.0008559226989746094
ell 1124, elapsed: 0.0007150173187255859
ell 1123, elapsed: 0.000598907470703125
ell 1122, elapsed: 0.0007100105285644531
ell 1121, elapsed: 0.0008718967437744141
ell 1120, elapsed: 0.0007119178771972656
ell 1119, elapsed: 0.0008008480072021484
ell 1118, elapsed: 0.0007300376892089844
ell 1117, elapsed: 0.0008230209350585938
ell 1116, elapsed: 0.0005140304565429688
ell 1115, elapsed: 0.0008540153503417969
ell 1114, elapsed: 0.000492095947265625
ell 1113, elapsed: 0.0007770061492919922
ell 1112, elapsed: 0.0007259845733642578
ell 1111, elapsed: 0.0009222030639648438
ell 1110, elapsed: 0.0007369518280029297
ell 1109, elapsed: 0.00078582763671875
ell 1108, elapsed: 0.0007100105285644531
ell 1107, elapsed: 0.0008599758148193359
ell 1106, elapsed: 0.0007519721984863281
ell 1105, elapsed: 0.0008549690246582031
ell 1104, elapsed: 0.0007548332214355469
ell 1103, elapsed: 0.0008690357208251953
ell 1102, elapsed: 0.0007650852203369141
ell 1101, elapsed: 0.0009489059448242188
ell 1100, elapsed: 0.0007500648498535156
ell 1099, elapsed: 0.0008859634399414062
ell 1098, elapsed: 0.0007610321044921875
ell 1097, elapsed: 0.0008859634399414062
ell 1096, elapsed: 0.0007588863372802734
ell 1095, elapsed: 0.0008268356323242188
ell 1094, elapsed: 0.0007388591766357422
ell 1093, elapsed: 0.0008361339569091797
ell 1092, elapsed: 0.0005970001220703125
ell 1091, elapsed: 0.0007128715515136719
ell 1090, elapsed: 0.0006549358367919922
ell 1089, elapsed: 0.0007650852203369141
ell 1088, elapsed: 0.0006389617919921875
ell 1087, elapsed: 0.0006229877471923828
ell 1086, elapsed: 0.0006070137023925781
ell 1085, elapsed: 0.0007379055023193359
ell 1084, elapsed: 0.00061798095703125
ell 1083, elapsed: 0.0007510185241699219
ell 1082, elapsed: 0.0007071495056152344
ell 1081, elapsed: 0.0008759498596191406
ell 1080, elapsed: 0.0006661415100097656
ell 1079, elapsed: 0.0008189678192138672
ell 1078, elapsed: 0.0006380081176757812
ell 1077, elapsed: 0.0008339881896972656
ell 1076, elapsed: 0.0006840229034423828
ell 1075, elapsed: 0.0008327960968017578
ell 1074, elapsed: 0.000659942626953125
ell 1073, elapsed: 0.0007030963897705078
ell 1072, elapsed: 0.0003428459167480469
ell 1071, elapsed: 0.00035500526428222656
ell 1070, elapsed: 0.00031185150146484375
ell 1069, elapsed: 0.0006148815155029297
ell 1068, elapsed: 0.0005009174346923828
ell 1067, elapsed: 0.0004620552062988281
ell 1066, elapsed: 0.00028896331787109375
ell 1065, elapsed: 0.00035381317138671875
ell 1064, elapsed: 0.0002989768981933594
ell 1063, elapsed: 0.0003731250762939453
ell 1062, elapsed: 0.0003018379211425781
ell 1061, elapsed: 0.0003619194030761719
ell 1060, elapsed: 0.0002999305725097656
ell 1059, elapsed: 0.000370025634765625
ell 1058, elapsed: 0.0002999305725097656
ell 1057, elapsed: 0.00037097930908203125
ell 1056, elapsed: 0.00029206275939941406
ell 1055, elapsed: 0.0005009174346923828
ell 1054, elapsed: 0.00043892860412597656
ell 1053, elapsed: 0.0003688335418701172
ell 1052, elapsed: 0.0002980232238769531
ell 1051, elapsed: 0.00035309791564941406
ell 1050, elapsed: 0.0002911090850830078
ell 1049, elapsed: 0.00034809112548828125
ell 1048, elapsed: 0.0003008842468261719
ell 1047, elapsed: 0.00035190582275390625
ell 1046, elapsed: 0.00029397010803222656
ell 1045, elapsed: 0.0003600120544433594
ell 1044, elapsed: 0.00029397010803222656
ell 1043, elapsed: 0.0006079673767089844
ell 1042, elapsed: 0.0006289482116699219
ell 1041, elapsed: 0.0007557868957519531
ell 1040, elapsed: 0.0006349086761474609
ell 1039, elapsed: 0.0007359981536865234
ell 1038, elapsed: 0.0006518363952636719
ell 1037, elapsed: 0.0007829666137695312
ell 1036, elapsed: 0.0005400180816650391
ell 1035, elapsed: 0.0006940364837646484
ell 1034, elapsed: 0.0006480216979980469
ell 1033, elapsed: 0.0007929801940917969
ell 1032, elapsed: 0.0005249977111816406
ell 1031, elapsed: 0.0007269382476806641
ell 1030, elapsed: 0.0006470680236816406
ell 1029, elapsed: 0.0006082057952880859
ell 1028, elapsed: 0.000576019287109375
ell 1027, elapsed: 0.0008189678192138672
ell 1026, elapsed: 0.0004999637603759766
ell 1025, elapsed: 0.0004868507385253906
ell 1024, elapsed: 0.0004088878631591797
ell 1023, elapsed: 0.0004849433898925781
ell 1022, elapsed: 0.0004029273986816406
ell 1021, elapsed: 0.0007109642028808594
ell 1020, elapsed: 0.0006649494171142578
ell 1019, elapsed: 0.0007638931274414062
ell 1018, elapsed: 0.0006310939788818359
ell 1017, elapsed: 0.0007390975952148438
ell 1016, elapsed: 0.0005300045013427734
ell 1015, elapsed: 0.0006740093231201172
ell 1014, elapsed: 0.0005090236663818359
ell 1013, elapsed: 0.0006890296936035156
ell 1012, elapsed: 0.0005261898040771484
ell 1011, elapsed: 0.0007059574127197266
ell 1010, elapsed: 0.0006639957427978516
ell 1009, elapsed: 0.0007910728454589844
ell 1008, elapsed: 0.0005269050598144531
ell 1007, elapsed: 0.0006890296936035156
ell 1006, elapsed: 0.0006551742553710938
ell 1005, elapsed: 0.0007760524749755859
ell 1004, elapsed: 0.0006690025329589844
ell 1003, elapsed: 0.0008018016815185547
ell 1002, elapsed: 0.0006518363952636719
ell 1001, elapsed: 0.0007898807525634766
ell 1000, elapsed: 0.0006299018859863281
ell 999, elapsed: 0.0007619857788085938
ell 998, elapsed: 0.0006480216979980469
ell 997, elapsed: 0.0007410049438476562
ell 996, elapsed: 0.0005428791046142578
ell 995, elapsed: 0.000698089599609375
ell 994, elapsed: 0.0006330013275146484
ell 993, elapsed: 0.0007679462432861328
ell 992, elapsed: 0.0005540847778320312
ell 991, elapsed: 0.0007600784301757812
ell 990, elapsed: 0.0006320476531982422
ell 989, elapsed: 0.0007979869842529297
ell 988, elapsed: 0.0006501674652099609
ell 987, elapsed: 0.0008530616760253906
ell 986, elapsed: 0.0006339550018310547
ell 985, elapsed: 0.0007889270782470703
ell 984, elapsed: 0.0006809234619140625
ell 983, elapsed: 0.00086212158203125
ell 982, elapsed: 0.0006887912750244141
ell 981, elapsed: 0.0006840229034423828
ell 980, elapsed: 0.0006470680236816406
ell 979, elapsed: 0.0006160736083984375
ell 978, elapsed: 0.0004329681396484375
ell 977, elapsed: 0.0006868839263916016
ell 976, elapsed: 0.0006330013275146484
ell 975, elapsed: 0.0007889270782470703
ell 974, elapsed: 0.0006539821624755859
ell 973, elapsed: 0.0008351802825927734
ell 972, elapsed: 0.0006530284881591797
ell 971, elapsed: 0.0007779598236083984
ell 970, elapsed: 0.0006299018859863281
ell 969, elapsed: 0.0007898807525634766
ell 968, elapsed: 0.0006852149963378906
ell 967, elapsed: 0.0005838871002197266
ell 966, elapsed: 0.000431060791015625
ell 965, elapsed: 0.0005369186401367188
ell 964, elapsed: 0.0006558895111083984
ell 963, elapsed: 0.0008280277252197266
ell 962, elapsed: 0.0006711483001708984
ell 961, elapsed: 0.0007660388946533203
ell 960, elapsed: 0.0006821155548095703
ell 959, elapsed: 0.0008871555328369141
ell 958, elapsed: 0.0006880760192871094
ell 957, elapsed: 0.000743865966796875
ell 956, elapsed: 0.0006492137908935547
ell 955, elapsed: 0.0006251335144042969
ell 954, elapsed: 0.0006418228149414062
ell 953, elapsed: 0.00080108642578125
ell 952, elapsed: 0.0006508827209472656
ell 951, elapsed: 0.0006420612335205078
ell 950, elapsed: 0.0006239414215087891
ell 949, elapsed: 0.0008380413055419922
ell 948, elapsed: 0.0005929470062255859
ell 947, elapsed: 0.0006258487701416016
ell 946, elapsed: 0.0006830692291259766
ell 945, elapsed: 0.0007810592651367188
ell 944, elapsed: 0.000659942626953125
ell 943, elapsed: 0.0008311271667480469
ell 942, elapsed: 0.0006339550018310547
ell 941, elapsed: 0.0008440017700195312
ell 940, elapsed: 0.0006861686706542969
ell 939, elapsed: 0.0007719993591308594
ell 938, elapsed: 0.0006861686706542969
ell 937, elapsed: 0.0007579326629638672
ell 936, elapsed: 0.0006749629974365234
ell 935, elapsed: 0.0005469322204589844
ell 934, elapsed: 0.0007028579711914062
ell 933, elapsed: 0.0006341934204101562
ell 932, elapsed: 0.0006251335144042969
ell 931, elapsed: 0.0007870197296142578
ell 930, elapsed: 0.0006749629974365234
ell 929, elapsed: 0.0008091926574707031
ell 928, elapsed: 0.0006430149078369141
ell 927, elapsed: 0.0007791519165039062
ell 926, elapsed: 0.0006661415100097656
ell 925, elapsed: 0.0007619857788085938
ell 924, elapsed: 0.0006968975067138672
ell 923, elapsed: 0.0007941722869873047
ell 922, elapsed: 0.0004630088806152344
ell 921, elapsed: 0.0007998943328857422
ell 920, elapsed: 0.000637054443359375
ell 919, elapsed: 0.0005459785461425781
ell 918, elapsed: 0.00042891502380371094
ell 917, elapsed: 0.000518798828125
ell 916, elapsed: 0.0005409717559814453
ell 915, elapsed: 0.0005948543548583984
ell 914, elapsed: 0.0005478858947753906
ell 913, elapsed: 0.0008211135864257812
ell 912, elapsed: 0.0004899501800537109
ell 911, elapsed: 0.0007789134979248047
ell 910, elapsed: 0.0006721019744873047
ell 909, elapsed: 0.0007290840148925781
ell 908, elapsed: 0.0006499290466308594
ell 907, elapsed: 0.0008151531219482422
ell 906, elapsed: 0.0006401538848876953
ell 905, elapsed: 0.0007910728454589844
ell 904, elapsed: 0.0006630420684814453
ell 903, elapsed: 0.0008330345153808594
ell 902, elapsed: 0.0006780624389648438
ell 901, elapsed: 0.0008139610290527344
ell 900, elapsed: 0.0006308555603027344
ell 899, elapsed: 0.0006201267242431641
ell 898, elapsed: 0.000598907470703125
ell 897, elapsed: 0.0007920265197753906
ell 896, elapsed: 0.0006430149078369141
ell 895, elapsed: 0.0008349418640136719
ell 894, elapsed: 0.0003910064697265625
ell 893, elapsed: 0.0006620883941650391
ell 892, elapsed: 0.0006840229034423828
ell 891, elapsed: 0.0008511543273925781
ell 890, elapsed: 0.0006260871887207031
ell 889, elapsed: 0.0006010532379150391
ell 888, elapsed: 0.0005669593811035156
ell 887, elapsed: 0.0006301403045654297
ell 886, elapsed: 0.0005781650543212891
ell 885, elapsed: 0.0006380081176757812
ell 884, elapsed: 0.0005810260772705078
ell 883, elapsed: 0.0007588863372802734
ell 882, elapsed: 0.0005559921264648438
ell 881, elapsed: 0.0006549358367919922
ell 880, elapsed: 0.0005369186401367188
ell 879, elapsed: 0.0006589889526367188
ell 878, elapsed: 0.0006899833679199219
ell 877, elapsed: 0.0007598400115966797
ell 876, elapsed: 0.0006320476531982422
ell 875, elapsed: 0.0008409023284912109
ell 874, elapsed: 0.00045990943908691406
ell 873, elapsed: 0.0005350112915039062
ell 872, elapsed: 0.0005898475646972656
ell 871, elapsed: 0.0007228851318359375
ell 870, elapsed: 0.0005130767822265625
ell 869, elapsed: 0.0006029605865478516
ell 868, elapsed: 0.0005311965942382812
ell 867, elapsed: 0.0007300376892089844
ell 866, elapsed: 0.00045490264892578125
ell 865, elapsed: 0.0004909038543701172
ell 864, elapsed: 0.0004050731658935547
ell 863, elapsed: 0.00048613548278808594
ell 862, elapsed: 0.00040411949157714844
ell 861, elapsed: 0.0005059242248535156
ell 860, elapsed: 0.0005769729614257812
ell 859, elapsed: 0.0006000995635986328
ell 858, elapsed: 0.0005249977111816406
ell 857, elapsed: 0.0007529258728027344
ell 856, elapsed: 0.00045800209045410156
ell 855, elapsed: 0.0004849433898925781
ell 854, elapsed: 0.0004038810729980469
ell 853, elapsed: 0.0004889965057373047
ell 852, elapsed: 0.00041794776916503906
ell 851, elapsed: 0.00048089027404785156
ell 850, elapsed: 0.0005478858947753906
ell 849, elapsed: 0.0007569789886474609
ell 848, elapsed: 0.0004839897155761719
ell 847, elapsed: 0.0007040500640869141
ell 846, elapsed: 0.0006558895111083984
ell 845, elapsed: 0.0005900859832763672
ell 844, elapsed: 0.0006721019744873047
ell 843, elapsed: 0.0008149147033691406
ell 842, elapsed: 0.0006558895111083984
ell 841, elapsed: 0.0008249282836914062
ell 840, elapsed: 0.0004420280456542969
ell 839, elapsed: 0.0006191730499267578
ell 838, elapsed: 0.0006380081176757812
ell 837, elapsed: 0.0007669925689697266
ell 836, elapsed: 0.0006029605865478516
ell 835, elapsed: 0.0007600784301757812
ell 834, elapsed: 0.0005700588226318359
ell 833, elapsed: 0.0007650852203369141
ell 832, elapsed: 0.0006320476531982422
ell 831, elapsed: 0.000759124755859375
ell 830, elapsed: 0.00046706199645996094
ell 829, elapsed: 0.0005888938903808594
ell 828, elapsed: 0.0006301403045654297
ell 827, elapsed: 0.0005819797515869141
ell 826, elapsed: 0.00039505958557128906
ell 825, elapsed: 0.0004811286926269531
ell 824, elapsed: 0.0004999637603759766
ell 823, elapsed: 0.0007309913635253906
ell 822, elapsed: 0.0006251335144042969
ell 821, elapsed: 0.0007219314575195312
ell 820, elapsed: 0.0004520416259765625
ell 819, elapsed: 0.0006208419799804688
ell 818, elapsed: 0.0006439685821533203
ell 817, elapsed: 0.0005869865417480469
ell 816, elapsed: 0.0005609989166259766
ell 815, elapsed: 0.0007579326629638672
ell 814, elapsed: 0.0005779266357421875
ell 813, elapsed: 0.0006501674652099609
ell 812, elapsed: 0.0005929470062255859
ell 811, elapsed: 0.0007421970367431641
ell 810, elapsed: 0.0005290508270263672
ell 809, elapsed: 0.0005118846893310547
ell 808, elapsed: 0.0003941059112548828
ell 807, elapsed: 0.000682830810546875
ell 806, elapsed: 0.0005800724029541016
ell 805, elapsed: 0.0006580352783203125
ell 804, elapsed: 0.0003960132598876953
ell 803, elapsed: 0.0004858970642089844
ell 802, elapsed: 0.0005190372467041016
ell 801, elapsed: 0.0006189346313476562
ell 800, elapsed: 0.0005710124969482422
ell 799, elapsed: 0.0008051395416259766
ell 798, elapsed: 0.0005059242248535156
ell 797, elapsed: 0.00047898292541503906
ell 796, elapsed: 0.00039196014404296875
ell 795, elapsed: 0.0004799365997314453
ell 794, elapsed: 0.0003960132598876953
ell 793, elapsed: 0.0004839897155761719
ell 792, elapsed: 0.00037598609924316406
ell 791, elapsed: 0.0004730224609375
ell 790, elapsed: 0.00045108795166015625
ell 789, elapsed: 0.0007650852203369141
ell 788, elapsed: 0.0006628036499023438
ell 787, elapsed: 0.0007920265197753906
ell 786, elapsed: 0.0006849765777587891
ell 785, elapsed: 0.0008161067962646484
ell 784, elapsed: 0.0006468296051025391
ell 783, elapsed: 0.0007750988006591797
ell 782, elapsed: 0.0006480216979980469
ell 781, elapsed: 0.0007688999176025391
ell 780, elapsed: 0.0006589889526367188
ell 779, elapsed: 0.0007541179656982422
ell 778, elapsed: 0.0006349086761474609
ell 777, elapsed: 0.0007488727569580078
ell 776, elapsed: 0.0006160736083984375
ell 775, elapsed: 0.0007350444793701172
ell 774, elapsed: 0.0005538463592529297
ell 773, elapsed: 0.0005891323089599609
ell 772, elapsed: 0.0005440711975097656
ell 771, elapsed: 0.0007288455963134766
ell 770, elapsed: 0.0006248950958251953
ell 769, elapsed: 0.0007688999176025391
ell 768, elapsed: 0.0006320476531982422
ell 767, elapsed: 0.0006248950958251953
ell 766, elapsed: 0.0004680156707763672
ell 765, elapsed: 0.0006749629974365234
ell 764, elapsed: 0.0005171298980712891
ell 763, elapsed: 0.0007228851318359375
ell 762, elapsed: 0.0006117820739746094
ell 761, elapsed: 0.0007708072662353516
ell 760, elapsed: 0.0007359981536865234
ell 759, elapsed: 0.0007638931274414062
ell 758, elapsed: 0.0006589889526367188
ell 757, elapsed: 0.0006730556488037109
ell 756, elapsed: 0.0004169940948486328
ell 755, elapsed: 0.0004911422729492188
ell 754, elapsed: 0.00041604042053222656
ell 753, elapsed: 0.0005688667297363281
ell 752, elapsed: 0.0006079673767089844
ell 751, elapsed: 0.0005741119384765625
ell 750, elapsed: 0.00038313865661621094
ell 749, elapsed: 0.0004611015319824219
ell 748, elapsed: 0.0005741119384765625
ell 747, elapsed: 0.0005040168762207031
ell 746, elapsed: 0.0002968311309814453
ell 745, elapsed: 0.00033593177795410156
ell 744, elapsed: 0.0002830028533935547
ell 743, elapsed: 0.0003440380096435547
ell 742, elapsed: 0.00028395652770996094
ell 741, elapsed: 0.00039005279541015625
ell 740, elapsed: 0.0004119873046875
ell 739, elapsed: 0.0006220340728759766
ell 738, elapsed: 0.0005059242248535156
ell 737, elapsed: 0.0004911422729492188
ell 736, elapsed: 0.0004050731658935547
ell 735, elapsed: 0.0006139278411865234
ell 734, elapsed: 0.0005121231079101562
ell 733, elapsed: 0.0004949569702148438
ell 732, elapsed: 0.0004088878631591797
ell 731, elapsed: 0.0007059574127197266
ell 730, elapsed: 0.0006229877471923828
ell 729, elapsed: 0.0007770061492919922
ell 728, elapsed: 0.0006289482116699219
ell 727, elapsed: 0.0006418228149414062
ell 726, elapsed: 0.0005400180816650391
ell 725, elapsed: 0.0007112026214599609
ell 724, elapsed: 0.0004980564117431641
ell 723, elapsed: 0.0007100105285644531
ell 722, elapsed: 0.0008051395416259766
ell 721, elapsed: 0.0006740093231201172
ell 720, elapsed: 0.000514984130859375
ell 719, elapsed: 0.0005590915679931641
ell 718, elapsed: 0.00047588348388671875
ell 717, elapsed: 0.0007610321044921875
ell 716, elapsed: 0.0006830692291259766
ell 715, elapsed: 0.0007469654083251953
ell 714, elapsed: 0.0006489753723144531
ell 713, elapsed: 0.0007510185241699219
ell 712, elapsed: 0.0006191730499267578
ell 711, elapsed: 0.0007500648498535156
ell 710, elapsed: 0.0007410049438476562
ell 709, elapsed: 0.0008330345153808594
ell 708, elapsed: 0.0007669925689697266
ell 707, elapsed: 0.0008552074432373047
ell 706, elapsed: 0.0006940364837646484
ell 705, elapsed: 0.0008580684661865234
ell 704, elapsed: 0.0005991458892822266
ell 703, elapsed: 0.0008969306945800781
ell 702, elapsed: 0.0007679462432861328
ell 701, elapsed: 0.0008687973022460938
ell 700, elapsed: 0.0007851123809814453
ell 699, elapsed: 0.0009658336639404297
ell 698, elapsed: 0.0008330345153808594
ell 697, elapsed: 0.0009601116180419922
ell 696, elapsed: 0.0007770061492919922
ell 695, elapsed: 0.0008969306945800781
ell 694, elapsed: 0.0007688999176025391
ell 693, elapsed: 0.0023419857025146484
ell 692, elapsed: 0.0008461475372314453
ell 691, elapsed: 0.00080108642578125
ell 690, elapsed: 0.0007610321044921875
ell 689, elapsed: 0.0008988380432128906
ell 688, elapsed: 0.0007600784301757812
ell 687, elapsed: 0.0009009838104248047
ell 686, elapsed: 0.0007648468017578125
ell 685, elapsed: 0.0008940696716308594
ell 684, elapsed: 0.0007579326629638672
ell 683, elapsed: 0.0008971691131591797
ell 682, elapsed: 0.0008039474487304688
ell 681, elapsed: 0.000885009765625
ell 680, elapsed: 0.0007760524749755859
ell 679, elapsed: 0.0008919239044189453
ell 678, elapsed: 0.0007569789886474609
ell 677, elapsed: 0.000888824462890625
ell 676, elapsed: 0.0007951259613037109
ell 675, elapsed: 0.0008020401000976562
ell 674, elapsed: 0.0006661415100097656
ell 673, elapsed: 0.0007889270782470703
ell 672, elapsed: 0.0006978511810302734
ell 671, elapsed: 0.0007870197296142578
ell 670, elapsed: 0.0006659030914306641
ell 669, elapsed: 0.0008108615875244141
ell 668, elapsed: 0.0006718635559082031
ell 667, elapsed: 0.0008058547973632812
ell 666, elapsed: 0.0006690025329589844
ell 665, elapsed: 0.0007829666137695312
ell 664, elapsed: 0.0006659030914306641
ell 663, elapsed: 0.0007789134979248047
ell 662, elapsed: 0.0006840229034423828
ell 661, elapsed: 0.0007829666137695312
ell 660, elapsed: 0.0006668567657470703
ell 659, elapsed: 0.0008089542388916016
ell 658, elapsed: 0.00067901611328125
ell 657, elapsed: 0.0008139610290527344
ell 656, elapsed: 0.0006780624389648438
ell 655, elapsed: 0.0008130073547363281
ell 654, elapsed: 0.0005640983581542969
ell 653, elapsed: 0.0008060932159423828
ell 652, elapsed: 0.0006320476531982422
ell 651, elapsed: 0.0005829334259033203
ell 650, elapsed: 0.00039196014404296875
ell 649, elapsed: 0.0006520748138427734
ell 648, elapsed: 0.0006699562072753906
ell 647, elapsed: 0.000804901123046875
ell 646, elapsed: 0.0006709098815917969
ell 645, elapsed: 0.00078582763671875
ell 644, elapsed: 0.0006680488586425781
ell 643, elapsed: 0.0007920265197753906
ell 642, elapsed: 0.0006821155548095703
ell 641, elapsed: 0.0007839202880859375
ell 640, elapsed: 0.0006668567657470703
ell 639, elapsed: 0.0007870197296142578
ell 638, elapsed: 0.0006680488586425781
ell 637, elapsed: 0.0007939338684082031
ell 636, elapsed: 0.0006690025329589844
ell 635, elapsed: 0.0007920265197753906
ell 634, elapsed: 0.0006661415100097656
ell 633, elapsed: 0.0007801055908203125
ell 632, elapsed: 0.0006680488586425781
ell 631, elapsed: 0.0007939338684082031
ell 630, elapsed: 0.0006659030914306641
ell 629, elapsed: 0.0007879734039306641
ell 628, elapsed: 0.0006630420684814453
ell 627, elapsed: 0.0007798671722412109
ell 626, elapsed: 0.0006780624389648438
ell 625, elapsed: 0.0007798671722412109
ell 624, elapsed: 0.0006680488586425781
ell 623, elapsed: 0.0007829666137695312
ell 622, elapsed: 0.0006661415100097656
ell 621, elapsed: 0.0007879734039306641
ell 620, elapsed: 0.0006678104400634766
ell 619, elapsed: 0.0007860660552978516
ell 618, elapsed: 0.0007641315460205078
ell 617, elapsed: 0.0007491111755371094
ell 616, elapsed: 0.0007631778717041016
ell 615, elapsed: 0.000885009765625
ell 614, elapsed: 0.000743865966796875
ell 613, elapsed: 0.00090789794921875
ell 612, elapsed: 0.0007588863372802734
ell 611, elapsed: 0.0008718967437744141
ell 610, elapsed: 0.0007319450378417969
ell 609, elapsed: 0.0008881092071533203
ell 608, elapsed: 0.0007631778717041016
ell 607, elapsed: 0.0008900165557861328
ell 606, elapsed: 0.0007781982421875
ell 605, elapsed: 0.0008940696716308594
ell 604, elapsed: 0.0007269382476806641
ell 603, elapsed: 0.0008928775787353516
ell 602, elapsed: 0.0007789134979248047
ell 601, elapsed: 0.0008831024169921875
ell 600, elapsed: 0.0007798671722412109
ell 599, elapsed: 0.0008881092071533203
ell 598, elapsed: 0.0003662109375
ell 597, elapsed: 0.00037598609924316406
ell 596, elapsed: 0.00030994415283203125
ell 595, elapsed: 0.00037097930908203125
ell 594, elapsed: 0.00030684471130371094
ell 593, elapsed: 0.0003838539123535156
ell 592, elapsed: 0.00037288665771484375
ell 591, elapsed: 0.0006780624389648438
ell 590, elapsed: 0.0005419254302978516
ell 589, elapsed: 0.0006270408630371094
ell 588, elapsed: 0.0004971027374267578
ell 587, elapsed: 0.00048089027404785156
ell 586, elapsed: 0.0005509853363037109
ell 585, elapsed: 0.0006048679351806641
ell 584, elapsed: 0.0005719661712646484
ell 583, elapsed: 0.0007758140563964844
ell 582, elapsed: 0.0006361007690429688
ell 581, elapsed: 0.000759124755859375
ell 580, elapsed: 0.0004329681396484375
ell 579, elapsed: 0.0006508827209472656
ell 578, elapsed: 0.0004949569702148438
ell 577, elapsed: 0.0004761219024658203
ell 576, elapsed: 0.0005159378051757812
ell 575, elapsed: 0.0007448196411132812
ell 574, elapsed: 0.0004069805145263672
ell 573, elapsed: 0.0004978179931640625
ell 572, elapsed: 0.00040984153747558594
ell 571, elapsed: 0.0006098747253417969
ell 570, elapsed: 0.0006320476531982422
ell 569, elapsed: 0.0007548332214355469
ell 568, elapsed: 0.000637054443359375
ell 567, elapsed: 0.0007579326629638672
ell 566, elapsed: 0.0006561279296875
ell 565, elapsed: 0.0007359981536865234
ell 564, elapsed: 0.000659942626953125
ell 563, elapsed: 0.0007648468017578125
ell 562, elapsed: 0.0004839897155761719
ell 561, elapsed: 0.00048613548278808594
ell 560, elapsed: 0.0004038810729980469
ell 559, elapsed: 0.0003981590270996094
ell 558, elapsed: 0.0003960132598876953
ell 557, elapsed: 0.0004868507385253906
ell 556, elapsed: 0.0003960132598876953
ell 555, elapsed: 0.0004100799560546875
ell 554, elapsed: 0.0005159378051757812
ell 553, elapsed: 0.0005600452423095703
ell 552, elapsed: 0.00035190582275390625
ell 551, elapsed: 0.0003750324249267578
ell 550, elapsed: 0.0003020763397216797
ell 549, elapsed: 0.0003769397735595703
ell 548, elapsed: 0.0003190040588378906
ell 547, elapsed: 0.0003838539123535156
ell 546, elapsed: 0.0003261566162109375
ell 545, elapsed: 0.0005898475646972656
ell 544, elapsed: 0.0004961490631103516
ell 543, elapsed: 0.0006530284881591797
ell 542, elapsed: 0.0004820823669433594
ell 541, elapsed: 0.0005059242248535156
ell 540, elapsed: 0.00038695335388183594
ell 539, elapsed: 0.0004000663757324219
ell 538, elapsed: 0.00032401084899902344
ell 537, elapsed: 0.00039005279541015625
ell 536, elapsed: 0.0003190040588378906
ell 535, elapsed: 0.0003809928894042969
ell 534, elapsed: 0.00034499168395996094
ell 533, elapsed: 0.0003838539123535156
ell 532, elapsed: 0.0003218650817871094
ell 531, elapsed: 0.0003829002380371094
ell 530, elapsed: 0.0003199577331542969
ell 529, elapsed: 0.0003819465637207031
ell 528, elapsed: 0.00032210350036621094
ell 527, elapsed: 0.00038504600524902344
ell 526, elapsed: 0.0003600120544433594
ell 525, elapsed: 0.0003819465637207031
ell 524, elapsed: 0.00032901763916015625
ell 523, elapsed: 0.0003879070281982422
ell 522, elapsed: 0.0003159046173095703
ell 521, elapsed: 0.0003800392150878906
ell 520, elapsed: 0.00031685829162597656
ell 519, elapsed: 0.0003769397735595703
ell 518, elapsed: 0.00031495094299316406
ell 517, elapsed: 0.0003790855407714844
ell 516, elapsed: 0.00031495094299316406
ell 515, elapsed: 0.00037789344787597656
ell 514, elapsed: 0.00031280517578125
ell 513, elapsed: 0.0003979206085205078
ell 512, elapsed: 0.0003190040588378906
ell 511, elapsed: 0.00037789344787597656
ell 510, elapsed: 0.0003151893615722656
ell 509, elapsed: 0.0003769397735595703
ell 508, elapsed: 0.0003178119659423828
ell 507, elapsed: 0.00038313865661621094
ell 506, elapsed: 0.0003170967102050781
ell 505, elapsed: 0.0003790855407714844
ell 504, elapsed: 0.00031685829162597656
ell 503, elapsed: 0.0005319118499755859
ell 502, elapsed: 0.0004420280456542969
ell 501, elapsed: 0.0003821849822998047
ell 500, elapsed: 0.0003180503845214844
ell 499, elapsed: 0.0003800392150878906
ell 498, elapsed: 0.0003190040588378906
ell 497, elapsed: 0.0003819465637207031
ell 496, elapsed: 0.0003199577331542969
ell 495, elapsed: 0.0003809928894042969
ell 494, elapsed: 0.0003180503845214844
ell 493, elapsed: 0.00040221214294433594
ell 492, elapsed: 0.00031685829162597656
ell 491, elapsed: 0.0003781318664550781
ell 490, elapsed: 0.00031685829162597656
ell 489, elapsed: 0.00037288665771484375
ell 488, elapsed: 0.0002989768981933594
ell 487, elapsed: 0.0003590583801269531
ell 486, elapsed: 0.0002961158752441406
ell 485, elapsed: 0.0003600120544433594
ell 484, elapsed: 0.00030303001403808594
ell 483, elapsed: 0.00037097930908203125
ell 482, elapsed: 0.0003039836883544922
ell 481, elapsed: 0.00039696693420410156
ell 480, elapsed: 0.0003077983856201172
ell 479, elapsed: 0.0003590583801269531
ell 478, elapsed: 0.0002930164337158203
ell 477, elapsed: 0.0005240440368652344
ell 476, elapsed: 0.0006580352783203125
ell 475, elapsed: 0.0007948875427246094
ell 474, elapsed: 0.0006570816040039062
ell 473, elapsed: 0.0007359981536865234
ell 472, elapsed: 0.0005080699920654297
ell 471, elapsed: 0.0004489421844482422
ell 470, elapsed: 0.0004508495330810547
ell 469, elapsed: 0.0005362033843994141
ell 468, elapsed: 0.0004551410675048828
ell 467, elapsed: 0.0005421638488769531
ell 466, elapsed: 0.0004210472106933594
ell 465, elapsed: 0.0005481243133544922
ell 464, elapsed: 0.0004451274871826172
ell 463, elapsed: 0.00040912628173828125
ell 462, elapsed: 0.00037598609924316406
ell 461, elapsed: 0.0005261898040771484
ell 460, elapsed: 0.00045609474182128906
ell 459, elapsed: 0.0005359649658203125
ell 458, elapsed: 0.0004401206970214844
ell 457, elapsed: 0.0005209445953369141
ell 456, elapsed: 0.0004379749298095703
ell 455, elapsed: 0.0005221366882324219
ell 454, elapsed: 0.0004379749298095703
ell 453, elapsed: 0.0005249977111816406
ell 452, elapsed: 0.0004551410675048828
ell 451, elapsed: 0.0005350112915039062
ell 450, elapsed: 0.0004439353942871094
ell 449, elapsed: 0.0005240440368652344
ell 448, elapsed: 0.0004329681396484375
ell 447, elapsed: 0.0005309581756591797
ell 446, elapsed: 0.0004360675811767578
ell 445, elapsed: 0.0005409717559814453
ell 444, elapsed: 0.00043082237243652344
ell 443, elapsed: 0.0005309581756591797
ell 442, elapsed: 0.00042891502380371094
ell 441, elapsed: 0.0005228519439697266
ell 440, elapsed: 0.0004341602325439453
ell 439, elapsed: 0.0005209445953369141
ell 438, elapsed: 0.0004401206970214844
ell 437, elapsed: 0.000537872314453125
ell 436, elapsed: 0.0004360675811767578
ell 435, elapsed: 0.0005230903625488281
ell 434, elapsed: 0.00042700767517089844
ell 433, elapsed: 0.0005209445953369141
ell 432, elapsed: 0.0004298686981201172
ell 431, elapsed: 0.0005261898040771484
ell 430, elapsed: 0.0004329681396484375
ell 429, elapsed: 0.0005381107330322266
ell 428, elapsed: 0.0004208087921142578
ell 427, elapsed: 0.0005340576171875
ell 426, elapsed: 0.000431060791015625
ell 425, elapsed: 0.0005309581756591797
ell 424, elapsed: 0.0004391670227050781
ell 423, elapsed: 0.0005218982696533203
ell 422, elapsed: 0.0004382133483886719
ell 421, elapsed: 0.0005381107330322266
ell 420, elapsed: 0.0004258155822753906
ell 419, elapsed: 0.0005321502685546875
ell 418, elapsed: 0.00043201446533203125
ell 417, elapsed: 0.0005300045013427734
ell 416, elapsed: 0.00043392181396484375
ell 415, elapsed: 0.0005259513854980469
ell 414, elapsed: 0.00048804283142089844
ell 413, elapsed: 0.0005319118499755859
ell 412, elapsed: 0.0004391670227050781
ell 411, elapsed: 0.0005211830139160156
ell 410, elapsed: 0.0004279613494873047
ell 409, elapsed: 0.0005240440368652344
ell 408, elapsed: 0.0004329681396484375
ell 407, elapsed: 0.0005249977111816406
ell 406, elapsed: 0.00044918060302734375
ell 405, elapsed: 0.0005228519439697266
ell 404, elapsed: 0.0004360675811767578
ell 403, elapsed: 0.0005199909210205078
ell 402, elapsed: 0.0004360675811767578
ell 401, elapsed: 0.0005269050598144531
ell 400, elapsed: 0.00043511390686035156
ell 399, elapsed: 0.0005428791046142578
ell 398, elapsed: 0.00044798851013183594
ell 397, elapsed: 0.0005300045013427734
ell 396, elapsed: 0.00043201446533203125
ell 395, elapsed: 0.0005199909210205078
ell 394, elapsed: 0.00043702125549316406
ell 393, elapsed: 0.0005230903625488281
ell 392, elapsed: 0.00043892860412597656
ell 391, elapsed: 0.0005469322204589844
ell 390, elapsed: 0.00042891502380371094
ell 389, elapsed: 0.0005300045013427734
ell 388, elapsed: 0.0004298686981201172
ell 387, elapsed: 0.0005359649658203125
ell 386, elapsed: 0.00043702125549316406
ell 385, elapsed: 0.0005159378051757812
ell 384, elapsed: 0.0004391670227050781
ell 383, elapsed: 0.0005359649658203125
ell 382, elapsed: 0.00043392181396484375
ell 381, elapsed: 0.0005259513854980469
ell 380, elapsed: 0.00043201446533203125
ell 379, elapsed: 0.0005331039428710938
ell 378, elapsed: 0.0004329681396484375
ell 377, elapsed: 0.000537872314453125
ell 376, elapsed: 0.00043392181396484375
ell 375, elapsed: 0.000553131103515625
ell 374, elapsed: 0.00044989585876464844
ell 373, elapsed: 0.0005300045013427734
ell 372, elapsed: 0.0004429817199707031
ell 371, elapsed: 0.0005350112915039062
ell 370, elapsed: 0.0004329681396484375
ell 369, elapsed: 0.0005300045013427734
ell 368, elapsed: 0.0004458427429199219
ell 367, elapsed: 0.0005261898040771484
ell 366, elapsed: 0.0004379749298095703
ell 365, elapsed: 0.0005300045013427734
ell 364, elapsed: 0.00043702125549316406
ell 363, elapsed: 0.0005190372467041016
ell 362, elapsed: 0.0004291534423828125
ell 361, elapsed: 0.0005261898040771484
ell 360, elapsed: 0.0004451274871826172
ell 359, elapsed: 0.0005300045013427734
ell 358, elapsed: 0.00043010711669921875
ell 357, elapsed: 0.0005269050598144531
ell 356, elapsed: 0.00043702125549316406
ell 355, elapsed: 0.0005218982696533203
ell 354, elapsed: 0.0004410743713378906
ell 353, elapsed: 0.0005230903625488281
ell 352, elapsed: 0.0004401206970214844
ell 351, elapsed: 0.0005300045013427734
ell 350, elapsed: 0.0004279613494873047
ell 349, elapsed: 0.0005240440368652344
ell 348, elapsed: 0.0004379749298095703
ell 347, elapsed: 0.0005240440368652344
ell 346, elapsed: 0.0004379749298095703
ell 345, elapsed: 0.0005221366882324219
ell 344, elapsed: 0.00043201446533203125
ell 343, elapsed: 0.0005900859832763672
ell 342, elapsed: 0.0004870891571044922
ell 341, elapsed: 0.0005931854248046875
ell 340, elapsed: 0.0005030632019042969
ell 339, elapsed: 0.0005950927734375
ell 338, elapsed: 0.00049591064453125
ell 337, elapsed: 0.0006070137023925781
ell 336, elapsed: 0.0004990100860595703
ell 335, elapsed: 0.0005950927734375
ell 334, elapsed: 0.0004980564117431641
ell 333, elapsed: 0.0006101131439208984
ell 332, elapsed: 0.0004999637603759766
ell 331, elapsed: 0.0005869865417480469
ell 330, elapsed: 0.0004818439483642578
ell 329, elapsed: 0.0005719661712646484
ell 328, elapsed: 0.0004620552062988281
ell 327, elapsed: 0.0006139278411865234
ell 326, elapsed: 0.0004918575286865234
ell 325, elapsed: 0.0005500316619873047
ell 324, elapsed: 0.0004949569702148438
ell 323, elapsed: 0.0005729198455810547
ell 322, elapsed: 0.0004749298095703125
ell 321, elapsed: 0.0005469322204589844
ell 320, elapsed: 0.0004799365997314453
ell 319, elapsed: 0.0005469322204589844
ell 318, elapsed: 0.0004699230194091797
ell 317, elapsed: 0.0005428791046142578
ell 316, elapsed: 0.00045800209045410156
ell 315, elapsed: 0.0005631446838378906
ell 314, elapsed: 0.0004889965057373047
ell 313, elapsed: 0.0005781650543212891
ell 312, elapsed: 0.0004508495330810547
ell 311, elapsed: 0.0005710124969482422
ell 310, elapsed: 0.0004589557647705078
ell 309, elapsed: 0.0005459785461425781
ell 308, elapsed: 0.0004677772521972656
ell 307, elapsed: 0.0005948543548583984
ell 306, elapsed: 0.00043702125549316406
ell 305, elapsed: 0.0005290508270263672
ell 304, elapsed: 0.0004649162292480469
ell 303, elapsed: 0.0005621910095214844
ell 302, elapsed: 0.0004749298095703125
ell 301, elapsed: 0.0005400180816650391
ell 300, elapsed: 0.00047516822814941406
ell 299, elapsed: 0.0005350112915039062
ell 298, elapsed: 0.0004570484161376953
ell 297, elapsed: 0.0005548000335693359
ell 296, elapsed: 0.00046706199645996094
ell 295, elapsed: 0.0005559921264648438
ell 294, elapsed: 0.00045609474182128906
ell 293, elapsed: 0.0005559921264648438
ell 292, elapsed: 0.0004761219024658203
ell 291, elapsed: 0.0005588531494140625
ell 290, elapsed: 0.00045990943908691406
ell 289, elapsed: 0.0005609989166259766
ell 288, elapsed: 0.00043702125549316406
ell 287, elapsed: 0.0005738735198974609
ell 286, elapsed: 0.00047779083251953125
ell 285, elapsed: 0.0005249977111816406
ell 284, elapsed: 0.0004799365997314453
ell 283, elapsed: 0.0005340576171875
ell 282, elapsed: 0.00043702125549316406
ell 281, elapsed: 0.0005559921264648438
ell 280, elapsed: 0.0004551410675048828
ell 279, elapsed: 0.0005550384521484375
ell 278, elapsed: 0.00047588348388671875
ell 277, elapsed: 0.0005459785461425781
ell 276, elapsed: 0.00048279762268066406
ell 275, elapsed: 0.0005409717559814453
ell 274, elapsed: 0.0004558563232421875
ell 273, elapsed: 0.0005688667297363281
ell 272, elapsed: 0.0004911422729492188
ell 271, elapsed: 0.0005719661712646484
ell 270, elapsed: 0.00042700767517089844
ell 269, elapsed: 0.0005590915679931641
ell 268, elapsed: 0.0004630088806152344
ell 267, elapsed: 0.0005509853363037109
ell 266, elapsed: 0.0004639625549316406
ell 265, elapsed: 0.0005438327789306641
ell 264, elapsed: 0.00044608116149902344
ell 263, elapsed: 0.0005340576171875
ell 262, elapsed: 0.00047016143798828125
ell 261, elapsed: 0.0005350112915039062
ell 260, elapsed: 0.0004718303680419922
ell 259, elapsed: 0.0005819797515869141
ell 258, elapsed: 0.0005071163177490234
ell 257, elapsed: 0.0005869865417480469
ell 256, elapsed: 0.0004749298095703125
ell 255, elapsed: 0.0005691051483154297
ell 254, elapsed: 0.0005021095275878906
ell 253, elapsed: 0.0006051063537597656
ell 252, elapsed: 0.0005390644073486328
ell 251, elapsed: 0.000553131103515625
ell 250, elapsed: 0.0005550384521484375
ell 249, elapsed: 0.0005338191986083984
ell 248, elapsed: 0.0005030632019042969
ell 247, elapsed: 0.0006270408630371094
ell 246, elapsed: 0.0004420280456542969
ell 245, elapsed: 0.0006000995635986328
ell 244, elapsed: 0.000518798828125
ell 243, elapsed: 0.0005469322204589844
ell 242, elapsed: 0.0005269050598144531
ell 241, elapsed: 0.0006251335144042969
ell 240, elapsed: 0.00045299530029296875
ell 239, elapsed: 0.0006301403045654297
ell 238, elapsed: 0.0005359649658203125
ell 237, elapsed: 0.0006139278411865234
ell 236, elapsed: 0.0005319118499755859
ell 235, elapsed: 0.0006148815155029297
ell 234, elapsed: 0.0005300045013427734
ell 233, elapsed: 0.0006299018859863281
ell 232, elapsed: 0.00049591064453125
ell 231, elapsed: 0.0006427764892578125
ell 230, elapsed: 0.00046896934509277344
ell 229, elapsed: 0.0006279945373535156
ell 228, elapsed: 0.0005249977111816406
ell 227, elapsed: 0.0006291866302490234
ell 226, elapsed: 0.0005319118499755859
ell 225, elapsed: 0.0005478858947753906
ell 224, elapsed: 0.0005140304565429688
ell 223, elapsed: 0.0005638599395751953
ell 222, elapsed: 0.0005040168762207031
ell 221, elapsed: 0.0005710124969482422
ell 220, elapsed: 0.0005159378051757812
ell 219, elapsed: 0.0006160736083984375
ell 218, elapsed: 0.0005319118499755859
ell 217, elapsed: 0.0006129741668701172
ell 216, elapsed: 0.0004649162292480469
ell 215, elapsed: 0.0006160736083984375
ell 214, elapsed: 0.0005230903625488281
ell 213, elapsed: 0.0005660057067871094
ell 212, elapsed: 0.0005059242248535156
ell 211, elapsed: 0.0006341934204101562
ell 210, elapsed: 0.0005428791046142578
ell 209, elapsed: 0.0006220340728759766
ell 208, elapsed: 0.0004780292510986328
ell 207, elapsed: 0.0006048679351806641
ell 206, elapsed: 0.0005249977111816406
ell 205, elapsed: 0.0006089210510253906
ell 204, elapsed: 0.0005829334259033203
ell 203, elapsed: 0.0006220340728759766
ell 202, elapsed: 0.0005071163177490234
ell 201, elapsed: 0.0005700588226318359
ell 200, elapsed: 0.0005068778991699219
ell 199, elapsed: 0.0006468296051025391
ell 198, elapsed: 0.0005450248718261719
ell 197, elapsed: 0.0006480216979980469
ell 196, elapsed: 0.0005240440368652344
ell 195, elapsed: 0.0006358623504638672
ell 194, elapsed: 0.0004630088806152344
ell 193, elapsed: 0.0005490779876708984
ell 192, elapsed: 0.00043487548828125
ell 191, elapsed: 0.0005171298980712891
ell 190, elapsed: 0.000431060791015625
ell 189, elapsed: 0.0005450248718261719
ell 188, elapsed: 0.00043392181396484375
ell 187, elapsed: 0.0005481243133544922
ell 186, elapsed: 0.0004298686981201172
ell 185, elapsed: 0.000514984130859375
ell 184, elapsed: 0.00043892860412597656
ell 183, elapsed: 0.0005211830139160156
ell 182, elapsed: 0.00043010711669921875
ell 181, elapsed: 0.0005369186401367188
ell 180, elapsed: 0.0004329681396484375
ell 179, elapsed: 0.0005390644073486328
ell 178, elapsed: 0.00043702125549316406
ell 177, elapsed: 0.0005140304565429688
ell 176, elapsed: 0.0004420280456542969
ell 175, elapsed: 0.0005681514739990234
ell 174, elapsed: 0.0004241466522216797
ell 173, elapsed: 0.0005450248718261719
ell 172, elapsed: 0.0004589557647705078
ell 171, elapsed: 0.0005741119384765625
ell 170, elapsed: 0.0004570484161376953
ell 169, elapsed: 0.0007848739624023438
ell 168, elapsed: 0.0006239414215087891
ell 167, elapsed: 0.0006170272827148438
ell 166, elapsed: 0.0004949569702148438
ell 165, elapsed: 0.0005691051483154297
ell 164, elapsed: 0.0004591941833496094
ell 163, elapsed: 0.0006041526794433594
ell 162, elapsed: 0.0005359649658203125
ell 161, elapsed: 0.0006248950958251953
ell 160, elapsed: 0.0005960464477539062
ell 159, elapsed: 0.0006520748138427734
ell 158, elapsed: 0.00045299530029296875
ell 157, elapsed: 0.0005638599395751953
ell 156, elapsed: 0.00045108795166015625
ell 155, elapsed: 0.0005428791046142578
ell 154, elapsed: 0.0005259513854980469
ell 153, elapsed: 0.0006718635559082031
ell 152, elapsed: 0.0005490779876708984
ell 151, elapsed: 0.0005440711975097656
ell 150, elapsed: 0.0005490779876708984
ell 149, elapsed: 0.0005359649658203125
ell 148, elapsed: 0.0005409717559814453
ell 147, elapsed: 0.0007541179656982422
ell 146, elapsed: 0.0004990100860595703
ell 145, elapsed: 0.0006020069122314453
ell 144, elapsed: 0.0004968643188476562
ell 143, elapsed: 0.0005939006805419922
ell 142, elapsed: 0.0004818439483642578
ell 141, elapsed: 0.0006010532379150391
ell 140, elapsed: 0.0005121231079101562
ell 139, elapsed: 0.0005769729614257812
ell 138, elapsed: 0.0004961490631103516
ell 137, elapsed: 0.0006020069122314453
ell 136, elapsed: 0.0004949569702148438
ell 135, elapsed: 0.0006668567657470703
ell 134, elapsed: 0.0004999637603759766
ell 133, elapsed: 0.0005869865417480469
ell 132, elapsed: 0.0004930496215820312
ell 131, elapsed: 0.0006210803985595703
ell 130, elapsed: 0.0005249977111816406
ell 129, elapsed: 0.0005998611450195312
ell 128, elapsed: 0.0005080699920654297
ell 127, elapsed: 0.0006029605865478516
ell 126, elapsed: 0.0004971027374267578
ell 125, elapsed: 0.0006070137023925781
ell 124, elapsed: 0.0004978179931640625
ell 123, elapsed: 0.0006051063537597656
ell 122, elapsed: 0.0005099773406982422
ell 121, elapsed: 0.0006089210510253906
ell 120, elapsed: 0.0005130767822265625
ell 119, elapsed: 0.0006029605865478516
ell 118, elapsed: 0.0005018711090087891
ell 117, elapsed: 0.0006010532379150391
ell 116, elapsed: 0.0004909038543701172
ell 115, elapsed: 0.0006139278411865234
ell 114, elapsed: 0.0006241798400878906
ell 113, elapsed: 0.0006098747253417969
ell 112, elapsed: 0.0004928112030029297
ell 111, elapsed: 0.00061798095703125
ell 110, elapsed: 0.0005829334259033203
ell 109, elapsed: 0.0006117820739746094
ell 108, elapsed: 0.0005650520324707031
ell 107, elapsed: 0.0006051063537597656
ell 106, elapsed: 0.0005180835723876953
ell 105, elapsed: 0.0006098747253417969
ell 104, elapsed: 0.0005049705505371094
ell 103, elapsed: 0.0006740093231201172
ell 102, elapsed: 0.0005168914794921875
ell 101, elapsed: 0.0006098747253417969
ell 100, elapsed: 0.000514984130859375
ell 99, elapsed: 0.0006060600280761719
ell 98, elapsed: 0.0005259513854980469
ell 97, elapsed: 0.0006070137023925781
ell 96, elapsed: 0.0005118846893310547
ell 95, elapsed: 0.0005979537963867188
ell 94, elapsed: 0.0004968643188476562
ell 93, elapsed: 0.0006151199340820312
ell 92, elapsed: 0.0005109310150146484
ell 91, elapsed: 0.0006101131439208984
ell 90, elapsed: 0.0004911422729492188
ell 89, elapsed: 0.0006148815155029297
ell 88, elapsed: 0.0005228519439697266
ell 87, elapsed: 0.0005869865417480469
ell 86, elapsed: 0.00047898292541503906
ell 85, elapsed: 0.0005788803100585938
ell 84, elapsed: 0.0005168914794921875
ell 83, elapsed: 0.0005919933319091797
ell 82, elapsed: 0.0005059242248535156
ell 81, elapsed: 0.0005879402160644531
ell 80, elapsed: 0.0004928112030029297
ell 79, elapsed: 0.0005929470062255859
ell 78, elapsed: 0.0005071163177490234
ell 77, elapsed: 0.0005970001220703125
ell 76, elapsed: 0.0005249977111816406
ell 75, elapsed: 0.0006039142608642578
ell 74, elapsed: 0.0005049705505371094
ell 73, elapsed: 0.0006010532379150391
ell 72, elapsed: 0.0005030632019042969
ell 71, elapsed: 0.0005979537963867188
ell 70, elapsed: 0.0004940032958984375
ell 69, elapsed: 0.0005910396575927734
ell 68, elapsed: 0.0004799365997314453
ell 67, elapsed: 0.0005500316619873047
ell 66, elapsed: 0.00044989585876464844
ell 65, elapsed: 0.0005328655242919922
ell 64, elapsed: 0.0004291534423828125
ell 63, elapsed: 0.0005381107330322266
ell 62, elapsed: 0.00045299530029296875
ell 61, elapsed: 0.0005300045013427734
ell 60, elapsed: 0.00043702125549316406
ell 59, elapsed: 0.000537872314453125
ell 58, elapsed: 0.00045180320739746094
ell 57, elapsed: 0.0005240440368652344
ell 56, elapsed: 0.00043201446533203125
ell 55, elapsed: 0.0005419254302978516
ell 54, elapsed: 0.0004520416259765625
ell 53, elapsed: 0.0005128383636474609
ell 52, elapsed: 0.00045180320739746094
ell 51, elapsed: 0.000537872314453125
ell 50, elapsed: 0.0004448890686035156
ell 49, elapsed: 0.0005199909210205078
ell 48, elapsed: 0.00044083595275878906
ell 47, elapsed: 0.0005431175231933594
ell 46, elapsed: 0.0004520416259765625
ell 45, elapsed: 0.000537872314453125
ell 44, elapsed: 0.00045108795166015625
ell 43, elapsed: 0.0005359649658203125
ell 42, elapsed: 0.0004398822784423828
ell 41, elapsed: 0.0005259513854980469
ell 40, elapsed: 0.0004520416259765625
ell 39, elapsed: 0.0005350112915039062
ell 38, elapsed: 0.0004260540008544922
ell 37, elapsed: 0.0005509853363037109
ell 36, elapsed: 0.00045990943908691406
ell 35, elapsed: 0.0005340576171875
ell 34, elapsed: 0.0004398822784423828
ell 33, elapsed: 0.0005419254302978516
ell 32, elapsed: 0.00044608116149902344
ell 31, elapsed: 0.0005300045013427734
ell 30, elapsed: 0.0004520416259765625
ell 29, elapsed: 0.0005528926849365234
ell 28, elapsed: 0.0004470348358154297
ell 27, elapsed: 0.0005278587341308594
ell 26, elapsed: 0.00044083595275878906
ell 25, elapsed: 0.0005421638488769531
ell 24, elapsed: 0.00044918060302734375
ell 23, elapsed: 0.0005309581756591797
ell 22, elapsed: 0.0004401206970214844
ell 21, elapsed: 0.0005400180816650391
ell 20, elapsed: 0.00045108795166015625
ell 19, elapsed: 0.0005311965942382812
ell 18, elapsed: 0.00042700767517089844
ell 17, elapsed: 0.0005459785461425781
ell 16, elapsed: 0.00045108795166015625
ell 15, elapsed: 0.0005359649658203125
ell 14, elapsed: 0.00044083595275878906
ell 13, elapsed: 0.0005409717559814453
ell 12, elapsed: 0.00044798851013183594
ell 11, elapsed: 0.0005249977111816406
ell 10, elapsed: 0.0004429817199707031
ell 9, elapsed: 0.0005431175231933594
ell 8, elapsed: 0.0004439353942871094
ell 7, elapsed: 0.0005350112915039062
ell 6, elapsed: 0.0004429817199707031
ell 5, elapsed: 0.0005450248718261719
ell 4, elapsed: 0.0004439353942871094
ell 3, elapsed: 0.0005371570587158203
ell 2, elapsed: 0.00043392181396484375
ell 1, elapsed: 0.0005409717559814453
ell 0, elapsed: 0.00044989585876464844
  0.855773 seconds (41.19 k allocations: 2.939 MiB)
elapsed: 0.0008158683776855469
step:          0.07808 sec (0 allocations: 0 byte, 0.0% gc time)
swapping:      0.001079 sec (0 allocations: 0 byte, 0.0% gc time)
calc_Mellell!: 0.014329 sec (0 allocations: 0 byte, 0.0% gc time)
  t0 :  0.003845 sec (0 allocations: 0 byte, 0.0% gc time)
  tm2 : 0.113741 sec (0 allocations: 0 byte, 0.0% gc time)
  tm2s: 0.002265 sec (0 allocations: 0 byte, 0.0% gc time)
  tm4 : 0.291493 sec (0 allocations: 0 byte, 0.0% gc time)
  tp2 : 0.0 sec (0 allocations: 0 byte, 0.0% gc time)
  tp2s: 0.0 sec (0 allocations: 0 byte, 0.0% gc time)
  tp4 : 0.0 sec (0 allocations: 0 byte, 0.0% gc time)
calc_wtdll!:   0.429754 sec (9.87 k allocations: 1.043 MB, 0.0% gc time)
calc_wljj!:    0.05033 sec (689 allocations: 10.766 KB, 0.0% gc time)
mult_prefac!:  0.0 sec (0 allocations: 0 byte, 0.0% gc time)
convert:       0.0 sec (0 allocations: 0 byte, 0.0% gc time)
write:         0.066304 sec (0 allocations: 0 byte, 0.0% gc time)
test_rand_2f1: 0.0 sec (0 allocations: 0 byte, 0.0% gc time)
Closing outfile out/Ml21-cache.bin...   0.025349 seconds
  0.000478 seconds (52 allocations: 28.297 KiB)
make_phi():   0.003161 seconds (8.20 k allocations: 238.016 KiB)
  0.189510 seconds (146.69 k allocations: 3.629 MiB)
tskip:       0.001392 sec (0 allocations: 0 byte, 0.0% gc time)
tread:       0.024111 sec (19 allocations: 10.688 KB, 0.0% gc time)
tmultphi:    0.015516 sec (0 allocations: 0 byte, 0.0% gc time)
tbrfft:      0.045788 sec (9.592 k allocations: 449.625 KB, 0.0% gc time)
tmultprefac: 0.041837 sec (0 allocations: 0 byte, 0.0% gc time)
toutfunc:    0.058867 sec (129.905 k allocations: 2.421 MB, 0.0% gc time)
Testing R=1.0 ... passed
Calculating fmax: 
  dlrec    = 4
  dlrecRg1 = -4
  q=1.1, R=0.9:	  0.466727 seconds (116.47 k allocations: 15.614 MiB)

  0.468414 seconds (116.50 k allocations: 15.647 MiB)
ℓ = 1202
Δℓ = 4
ΔℓRg1 = -4
N = 1600
q = 1.1
kmin = 1.0e-5
kmax = 100000.00000000004
χ0 = 0.023029999999999995
RR = RR.tsv
ℓmax = ℓmax.bin
f21 = f21.bin
kmin = 1.0e-5
kmax = 100000.0
dlrec    = 4
dlrecRg1 = -4
Output size: 5741568 bytes = 0.005347251892089844 GiB
Output size: 51264 bytes = 4.774332046508789e-5 GiB
Reading 'out/F21EllCache'...   0.001160 seconds (267 allocations: 84.656 KiB)
ellmax: 1202
lmaxcache: 1202
fell[:,1,1] = Complex{Float64}[1.3482014726274674e-57 - 3.302141236118086e-73im, 1.357860004724329e-57 - 3.3257978169518355e-73im]
ell 1202, elapsed: 0.0001270771026611328
ell 1201, elapsed: 0.0004429817199707031
ell 1200, elapsed: 0.000640869140625
ell 1199, elapsed: 0.0004589557647705078
ell 1198, elapsed: 0.00041794776916503906
ell 1002, elapsed: 0.009344100952148438
ell 1001, elapsed: 0.0006651878356933594
ell 1000, elapsed: 0.0007138252258300781
ell 999, elapsed: 0.0007350444793701172
ell 998, elapsed: 0.0006699562072753906
ell 902, elapsed: 0.005326032638549805
ell 901, elapsed: 0.0006380081176757812
ell 900, elapsed: 0.0006151199340820312
ell 899, elapsed: 0.0004699230194091797
ell 898, elapsed: 0.0005359649658203125
ell 802, elapsed: 0.005187034606933594
ell 801, elapsed: 0.0004329681396484375
ell 800, elapsed: 0.0005359649658203125
ell 799, elapsed: 0.0005331039428710938
ell 798, elapsed: 0.0005130767822265625
ell 702, elapsed: 0.005656003952026367
ell 701, elapsed: 0.0005280971527099609
ell 700, elapsed: 0.0006561279296875
ell 699, elapsed: 0.0005130767822265625
ell 698, elapsed: 0.0007379055023193359
ell 602, elapsed: 0.0057468414306640625
ell 601, elapsed: 0.0005259513854980469
ell 600, elapsed: 0.0006549358367919922
ell 599, elapsed: 0.0005159378051757812
ell 598, elapsed: 0.0004978179931640625
ell 502, elapsed: 0.005497932434082031
ell 501, elapsed: 0.0006430149078369141
ell 500, elapsed: 0.0007021427154541016
ell 499, elapsed: 0.0006620883941650391
ell 498, elapsed: 0.0004928112030029297
ell 402, elapsed: 0.005712032318115234
ell 401, elapsed: 0.0005190372467041016
ell 400, elapsed: 0.0004999637603759766
ell 399, elapsed: 0.0004980564117431641
ell 398, elapsed: 0.0004911422729492188
ell 302, elapsed: 0.005567073822021484
ell 301, elapsed: 0.0006740093231201172
ell 300, elapsed: 0.0006840229034423828
ell 299, elapsed: 0.0007100105285644531
ell 298, elapsed: 0.0007379055023193359
ell 202, elapsed: 0.005352020263671875
ell 201, elapsed: 0.0007059574127197266
ell 200, elapsed: 0.0008981227874755859
ell 199, elapsed: 0.0006601810455322266
ell 198, elapsed: 0.0007228851318359375
ell 152, elapsed: 0.0028541088104248047
ell 151, elapsed: 0.0006871223449707031
ell 150, elapsed: 0.0006899833679199219
ell 149, elapsed: 0.00039315223693847656
ell 148, elapsed: 0.00038504600524902344
ell 127, elapsed: 0.0014410018920898438
ell 126, elapsed: 0.00039696693420410156
ell 125, elapsed: 0.0003781318664550781
ell 124, elapsed: 0.0003788471221923828
ell 123, elapsed: 0.00043392181396484375
ell 114, elapsed: 0.0008158683776855469
ell 113, elapsed: 0.00040984153747558594
ell 112, elapsed: 0.00045800209045410156
ell 111, elapsed: 0.0004398822784423828
ell 110, elapsed: 0.00044417381286621094
ell 102, elapsed: 0.0010030269622802734
ell 101, elapsed: 0.0004329681396484375
ell 100, elapsed: 0.00044608116149902344
ell 99, elapsed: 0.00044989585876464844
ell 98, elapsed: 0.0004558563232421875
ell 97, elapsed: 0.0005040168762207031
ell 96, elapsed: 0.0006020069122314453
ell 95, elapsed: 0.00049591064453125
ell 94, elapsed: 0.0005950927734375
ell 93, elapsed: 0.0004868507385253906
ell 92, elapsed: 0.0005719661712646484
ell 91, elapsed: 0.0005099773406982422
ell 90, elapsed: 0.0005948543548583984
ell 89, elapsed: 0.0004730224609375
ell 88, elapsed: 0.0005738735198974609
ell 87, elapsed: 0.0004968643188476562
ell 86, elapsed: 0.0005948543548583984
ell 85, elapsed: 0.0004298686981201172
ell 84, elapsed: 0.0007011890411376953
ell 83, elapsed: 0.000453948974609375
ell 82, elapsed: 0.0005471706390380859
ell 81, elapsed: 0.00045299530029296875
ell 80, elapsed: 0.0007669925689697266
ell 79, elapsed: 0.0006129741668701172
ell 78, elapsed: 0.0011301040649414062
ell 77, elapsed: 0.0006909370422363281
ell 76, elapsed: 0.0005707740783691406
ell 75, elapsed: 0.00047707557678222656
ell 74, elapsed: 0.0005600452423095703
ell 73, elapsed: 0.0004611015319824219
ell 72, elapsed: 0.0005519390106201172
ell 71, elapsed: 0.0004668235778808594
ell 70, elapsed: 0.00055694580078125
ell 69, elapsed: 0.0006570816040039062
ell 68, elapsed: 0.0006041526794433594
ell 67, elapsed: 0.0004620552062988281
ell 66, elapsed: 0.0008020401000976562
ell 65, elapsed: 0.0004730224609375
ell 64, elapsed: 0.0007979869842529297
ell 63, elapsed: 0.0006649494171142578
ell 62, elapsed: 0.0009551048278808594
ell 61, elapsed: 0.00047707557678222656
ell 60, elapsed: 0.0005810260772705078
ell 59, elapsed: 0.00045108795166015625
ell 58, elapsed: 0.0005269050598144531
ell 57, elapsed: 0.0006289482116699219
ell 56, elapsed: 0.0008668899536132812
ell 55, elapsed: 0.0007250308990478516
ell 54, elapsed: 0.0007569789886474609
ell 53, elapsed: 0.0005669593811035156
ell 52, elapsed: 0.0008380413055419922
ell 51, elapsed: 0.0006380081176757812
ell 50, elapsed: 0.0007789134979248047
ell 49, elapsed: 0.0006330013275146484
ell 48, elapsed: 0.0005500316619873047
ell 47, elapsed: 0.0005509853363037109
ell 46, elapsed: 0.0008370876312255859
ell 45, elapsed: 0.00047206878662109375
ell 44, elapsed: 0.0004909038543701172
ell 43, elapsed: 0.0005271434783935547
ell 42, elapsed: 0.0006029605865478516
ell 41, elapsed: 0.0007219314575195312
ell 40, elapsed: 0.0005240440368652344
ell 39, elapsed: 0.00039696693420410156
ell 38, elapsed: 0.0004949569702148438
ell 37, elapsed: 0.0005130767822265625
ell 36, elapsed: 0.0008759498596191406
ell 35, elapsed: 0.0006821155548095703
ell 34, elapsed: 0.0005900859832763672
ell 33, elapsed: 0.0006361007690429688
ell 32, elapsed: 0.0008490085601806641
ell 31, elapsed: 0.0006830692291259766
ell 30, elapsed: 0.0005998611450195312
ell 29, elapsed: 0.0006580352783203125
ell 28, elapsed: 0.0007739067077636719
ell 27, elapsed: 0.0006899833679199219
ell 26, elapsed: 0.0007729530334472656
ell 25, elapsed: 0.0006458759307861328
ell 24, elapsed: 0.000926971435546875
ell 23, elapsed: 0.0004448890686035156
ell 22, elapsed: 0.0005321502685546875
ell 21, elapsed: 0.00045990943908691406
ell 20, elapsed: 0.0005099773406982422
ell 19, elapsed: 0.00045800209045410156
ell 18, elapsed: 0.0005390644073486328
ell 17, elapsed: 0.0006530284881591797
ell 16, elapsed: 0.0009520053863525391
ell 15, elapsed: 0.0006718635559082031
ell 14, elapsed: 0.0008471012115478516
ell 13, elapsed: 0.0007789134979248047
ell 12, elapsed: 0.0008828639984130859
ell 11, elapsed: 0.0006909370422363281
ell 10, elapsed: 0.0007910728454589844
ell 9, elapsed: 0.0007901191711425781
ell 8, elapsed: 0.0009009838104248047
ell 7, elapsed: 0.0006721019744873047
ell 6, elapsed: 0.000820159912109375
ell 5, elapsed: 0.0007481575012207031
ell 4, elapsed: 0.0010449886322021484
ell 3, elapsed: 0.0007100105285644531
ell 2, elapsed: 0.0008828639984130859
ell 1, elapsed: 0.0007560253143310547
ell 0, elapsed: 0.0008721351623535156
  0.209160 seconds (10.83 k allocations: 697.938 KiB)
elapsed: 0.001332998275756836
step:          0.059614 sec (0 allocations: 0 byte, 0.0% gc time)
swapping:      0.000593 sec (0 allocations: 0 byte, 0.0% gc time)
calc_Mellell!: 0.001595 sec (0 allocations: 0 byte, 0.0% gc time)
  t0 :  0.00042 sec (0 allocations: 0 byte, 0.0% gc time)
  tm2 : 0.015423 sec (0 allocations: 0 byte, 0.0% gc time)
  tm2s: 0.000316 sec (0 allocations: 0 byte, 0.0% gc time)
  tm4 : 0.041742 sec (0 allocations: 0 byte, 0.0% gc time)
  tp2 : 0.0 sec (0 allocations: 0 byte, 0.0% gc time)
  tp2s: 0.0 sec (0 allocations: 0 byte, 0.0% gc time)
  tp4 : 0.0 sec (0 allocations: 0 byte, 0.0% gc time)
calc_wtdll!:   0.058638 sec (1.344 k allocations: 147.0 KB, 0.0% gc time)
calc_wljj!:    0.005757 sec (6 allocations: 96 byte, 0.0% gc time)
mult_prefac!:  0.0 sec (0 allocations: 0 byte, 0.0% gc time)
convert:       0.0 sec (0 allocations: 0 byte, 0.0% gc time)
write:         0.006394 sec (0 allocations: 0 byte, 0.0% gc time)
test_rand_2f1: 0.0 sec (0 allocations: 0 byte, 0.0% gc time)
Closing outfile out/Ml21-cache.bin...   0.003432 seconds
  0.000248 seconds (52 allocations: 28.297 KiB)
make_phi():   0.002592 seconds (8.20 k allocations: 238.016 KiB)
  0.017293 seconds (12.10 k allocations: 322.000 KiB)
tskip:       2.1e-5 sec (0 allocations: 0 byte, 0.0% gc time)
tread:       0.002734 sec (19 allocations: 2.172 KB, 0.0% gc time)
tmultphi:    0.001342 sec (0 allocations: 0 byte, 0.0% gc time)
tbrfft:      0.004192 sec (896 allocations: 42.0 KB, 0.0% gc time)
tmultprefac: 0.003989 sec (0 allocations: 0 byte, 0.0% gc time)
toutfunc:    0.005224 sec (10.528 k allocations: 206.5 KB, 0.0% gc time)
Testing R=0.9 ... passed
Calculating fmax: 
  dlrec    = 4
  dlrecRg1 = -4
  q=1.1, R=0.8:	  0.402405 seconds (113.61 k allocations: 15.166 MiB, 6.24% gc time)

  0.403264 seconds (113.66 k allocations: 15.200 MiB, 6.22% gc time)
ℓ = 1202
Δℓ = 4
ΔℓRg1 = -4
N = 1600
q = 1.1
kmin = 1.0e-5
kmax = 100000.00000000004
χ0 = 0.023029999999999995
RR = RR.tsv
ℓmax = ℓmax.bin
f21 = f21.bin
kmin = 1.0e-5
kmax = 100000.0
dlrec    = 4
dlrecRg1 = -4
Output size: 5741568 bytes = 0.005347251892089844 GiB
Output size: 51264 bytes = 4.774332046508789e-5 GiB
Reading 'out/F21EllCache'...   0.001103 seconds (267 allocations: 84.656 KiB)
ellmax: 1202
lmaxcache: 1202
fell[:,1,1] = Complex{Float64}[7.519068145690986e-120 - 1.8416405474382574e-135im, 7.541664537386155e-120 - 1.847175067190611e-135im]
ell 1202, elapsed: 6.890296936035156e-5
ell 1201, elapsed: 0.0004949569702148438
ell 1200, elapsed: 0.0005209445953369141
ell 1199, elapsed: 0.00049591064453125
ell 1198, elapsed: 0.0004830360412597656
ell 1002, elapsed: 0.012444019317626953
ell 1001, elapsed: 0.0005309581756591797
ell 1000, elapsed: 0.0004830360412597656
ell 999, elapsed: 0.0004851818084716797
ell 998, elapsed: 0.0004849433898925781
ell 902, elapsed: 0.006421089172363281
ell 901, elapsed: 0.0004870891571044922
ell 900, elapsed: 0.0004858970642089844
ell 899, elapsed: 0.0004849433898925781
ell 898, elapsed: 0.00048613548278808594
ell 802, elapsed: 0.0065081119537353516
ell 801, elapsed: 0.0004379749298095703
ell 800, elapsed: 0.0004279613494873047
ell 799, elapsed: 0.00057220458984375
ell 798, elapsed: 0.0005578994750976562
ell 702, elapsed: 0.005942106246948242
ell 701, elapsed: 0.0005230903625488281
ell 700, elapsed: 0.0005090236663818359
ell 699, elapsed: 0.00047898292541503906
ell 698, elapsed: 0.0004961490631103516
ell 602, elapsed: 0.00646209716796875
ell 601, elapsed: 0.0006120204925537109
ell 600, elapsed: 0.0005078315734863281
ell 599, elapsed: 0.0004820823669433594
ell 598, elapsed: 0.0004410743713378906
ell 502, elapsed: 0.006345987319946289
ell 501, elapsed: 0.0004978179931640625
ell 500, elapsed: 0.0005099773406982422
ell 499, elapsed: 0.0005040168762207031
ell 498, elapsed: 0.0004839897155761719
ell 402, elapsed: 0.006524085998535156
ell 401, elapsed: 0.0005860328674316406
ell 400, elapsed: 0.0005640983581542969
ell 399, elapsed: 0.0005021095275878906
ell 398, elapsed: 0.0004971027374267578
ell 302, elapsed: 0.006350040435791016
ell 301, elapsed: 0.0005040168762207031
ell 300, elapsed: 0.0004909038543701172
ell 299, elapsed: 0.0004858970642089844
ell 298, elapsed: 0.0004851818084716797
ell 202, elapsed: 0.006460905075073242
ell 201, elapsed: 0.0005118846893310547
ell 200, elapsed: 0.0004971027374267578
ell 199, elapsed: 0.0004570484161376953
ell 198, elapsed: 0.0005118846893310547
ell 152, elapsed: 0.0032660961151123047
ell 151, elapsed: 0.0005009174346923828
ell 150, elapsed: 0.0004980564117431641
ell 149, elapsed: 0.0005741119384765625
ell 148, elapsed: 0.0004780292510986328
ell 127, elapsed: 0.0019049644470214844
ell 126, elapsed: 0.0004901885986328125
ell 125, elapsed: 0.00048613548278808594
ell 124, elapsed: 0.0004711151123046875
ell 123, elapsed: 0.0005559921264648438
ell 114, elapsed: 0.0009839534759521484
ell 113, elapsed: 0.0004470348358154297
ell 112, elapsed: 0.0006029605865478516
ell 111, elapsed: 0.0005011558532714844
ell 110, elapsed: 0.0004458427429199219
ell 102, elapsed: 0.0010540485382080078
ell 101, elapsed: 0.0004999637603759766
ell 100, elapsed: 0.0005059242248535156
ell 99, elapsed: 0.0005450248718261719
ell 98, elapsed: 0.0005221366882324219
ell 97, elapsed: 0.0005600452423095703
ell 96, elapsed: 0.0006740093231201172
ell 95, elapsed: 0.0005598068237304688
ell 94, elapsed: 0.0006620883941650391
ell 93, elapsed: 0.0005669593811035156
ell 92, elapsed: 0.0008270740509033203
ell 91, elapsed: 0.0006759166717529297
ell 90, elapsed: 0.0005609989166259766
ell 89, elapsed: 0.0006000995635986328
ell 88, elapsed: 0.0007770061492919922
ell 87, elapsed: 0.0006489753723144531
ell 86, elapsed: 0.0007898807525634766
ell 85, elapsed: 0.0006039142608642578
ell 84, elapsed: 0.0007560253143310547
ell 83, elapsed: 0.0004520416259765625
ell 82, elapsed: 0.0004839897155761719
ell 81, elapsed: 0.0005619525909423828
ell 80, elapsed: 0.0005829334259033203
ell 79, elapsed: 0.0005350112915039062
ell 78, elapsed: 0.0007519721984863281
ell 77, elapsed: 0.000637054443359375
ell 76, elapsed: 0.0007810592651367188
ell 75, elapsed: 0.000576019287109375
ell 74, elapsed: 0.0006818771362304688
ell 73, elapsed: 0.0006430149078369141
ell 72, elapsed: 0.0007350444793701172
ell 71, elapsed: 0.0006601810455322266
ell 70, elapsed: 0.0007610321044921875
ell 69, elapsed: 0.0004639625549316406
ell 68, elapsed: 0.00049591064453125
ell 67, elapsed: 0.00041103363037109375
ell 66, elapsed: 0.0007059574127197266
ell 65, elapsed: 0.0005218982696533203
ell 64, elapsed: 0.0005970001220703125
ell 63, elapsed: 0.0006399154663085938
ell 62, elapsed: 0.0007610321044921875
ell 61, elapsed: 0.0006120204925537109
ell 60, elapsed: 0.0007719993591308594
ell 59, elapsed: 0.0006608963012695312
ell 58, elapsed: 0.0006701946258544922
ell 57, elapsed: 0.0005891323089599609
[...]
ell 789, elapsed: 0.0009999275207519531
ell 788, elapsed: 0.0008339881896972656
ell 782, elapsed: 0.001737833023071289
ell 781, elapsed: 0.0008869171142578125
ell 780, elapsed: 0.0008318424224853516
ell 779, elapsed: 0.0007970333099365234
ell 778, elapsed: 0.0008831024169921875
ell 772, elapsed: 0.0016810894012451172
ell 771, elapsed: 0.0008459091186523438
ell 770, elapsed: 0.001055002212524414
ell 769, elapsed: 0.0009138584136962891
ell 768, elapsed: 0.0008690357208251953
ell 762, elapsed: 0.0019080638885498047
ell 761, elapsed: 0.0008251667022705078
ell 760, elapsed: 0.0012052059173583984
ell 759, elapsed: 0.0008099079132080078
ell 758, elapsed: 0.0009109973907470703
ell 752, elapsed: 0.001538991928100586
ell 751, elapsed: 0.0008170604705810547
ell 750, elapsed: 0.0008649826049804688
ell 749, elapsed: 0.0008840560913085938
ell 748, elapsed: 0.001069784164428711
ell 742, elapsed: 0.0017452239990234375
ell 741, elapsed: 0.0010538101196289062
ell 740, elapsed: 0.0008730888366699219
ell 739, elapsed: 0.000885009765625
ell 738, elapsed: 0.0009179115295410156
ell 732, elapsed: 0.0017778873443603516
ell 731, elapsed: 0.0009639263153076172
ell 730, elapsed: 0.0008618831634521484
ell 729, elapsed: 0.0008950233459472656
ell 728, elapsed: 0.0008709430694580078
ell 722, elapsed: 0.0021851062774658203
ell 721, elapsed: 0.0008997917175292969
ell 720, elapsed: 0.0008578300476074219
ell 719, elapsed: 0.0008521080017089844
ell 718, elapsed: 0.0008730888366699219
ell 712, elapsed: 0.001992940902709961
ell 711, elapsed: 0.0008370876312255859
ell 710, elapsed: 0.0009019374847412109
ell 709, elapsed: 0.0009319782257080078
ell 708, elapsed: 0.0008809566497802734
ell 702, elapsed: 0.001953125
ell 701, elapsed: 0.0009081363677978516
ell 700, elapsed: 0.0012500286102294922
ell 699, elapsed: 0.0008778572082519531
ell 698, elapsed: 0.0008699893951416016
ell 692, elapsed: 0.0019838809967041016
ell 691, elapsed: 0.0010039806365966797
ell 690, elapsed: 0.0008771419525146484
ell 689, elapsed: 0.0008919239044189453
ell 688, elapsed: 0.000885009765625
ell 682, elapsed: 0.0018999576568603516
ell 681, elapsed: 0.0008900165557861328
ell 680, elapsed: 0.0008881092071533203
ell 679, elapsed: 0.0008740425109863281
ell 678, elapsed: 0.0008912086486816406
ell 672, elapsed: 0.0016560554504394531
ell 671, elapsed: 0.0010008811950683594
ell 670, elapsed: 0.0008749961853027344
ell 669, elapsed: 0.0008938312530517578
ell 668, elapsed: 0.0009100437164306641
ell 662, elapsed: 0.001573801040649414
ell 661, elapsed: 0.0010809898376464844
ell 660, elapsed: 0.0008139610290527344
ell 659, elapsed: 0.0008108615875244141
ell 658, elapsed: 0.0008189678192138672
ell 652, elapsed: 0.001569986343383789
ell 651, elapsed: 0.0008711814880371094
ell 650, elapsed: 0.0008161067962646484
ell 649, elapsed: 0.0010039806365966797
ell 648, elapsed: 0.0009410381317138672
ell 642, elapsed: 0.0017139911651611328
ell 641, elapsed: 0.0008170604705810547
ell 640, elapsed: 0.0008149147033691406
ell 639, elapsed: 0.0009160041809082031
ell 638, elapsed: 0.000982046127319336
ell 632, elapsed: 0.0016078948974609375
ell 631, elapsed: 0.0008270740509033203
ell 630, elapsed: 0.0008220672607421875
ell 629, elapsed: 0.0008349418640136719
ell 628, elapsed: 0.000804901123046875
ell 622, elapsed: 0.0016160011291503906
ell 621, elapsed: 0.001024007797241211
ell 620, elapsed: 0.0008299350738525391
ell 619, elapsed: 0.0008220672607421875
ell 618, elapsed: 0.0008080005645751953
ell 612, elapsed: 0.001547098159790039
ell 611, elapsed: 0.0010190010070800781
ell 610, elapsed: 0.0012128353118896484
ell 609, elapsed: 0.0008389949798583984
ell 608, elapsed: 0.0008139610290527344
ell 602, elapsed: 0.001531839370727539
ell 601, elapsed: 0.0008189678192138672
ell 600, elapsed: 0.0008149147033691406
ell 599, elapsed: 0.0009260177612304688
ell 598, elapsed: 0.0009729862213134766
ell 592, elapsed: 0.0016148090362548828
ell 591, elapsed: 0.0009429454803466797
ell 590, elapsed: 0.0009200572967529297
ell 589, elapsed: 0.001013040542602539
ell 588, elapsed: 0.0009150505065917969
ell 582, elapsed: 0.0015950202941894531
ell 581, elapsed: 0.0008070468902587891
ell 580, elapsed: 0.0008080005645751953
ell 579, elapsed: 0.0008528232574462891
ell 578, elapsed: 0.0008361339569091797
ell 572, elapsed: 0.0018961429595947266
ell 571, elapsed: 0.0008590221405029297
ell 570, elapsed: 0.0010530948638916016
ell 569, elapsed: 0.0008180141448974609
ell 568, elapsed: 0.0008218288421630859
ell 562, elapsed: 0.0017709732055664062
ell 561, elapsed: 0.0007808208465576172
ell 560, elapsed: 0.0008218288421630859
ell 559, elapsed: 0.0008218288421630859
ell 558, elapsed: 0.0007798671722412109
ell 552, elapsed: 0.0015490055084228516
ell 551, elapsed: 0.0008211135864257812
ell 550, elapsed: 0.0008249282836914062
ell 549, elapsed: 0.0009288787841796875
ell 548, elapsed: 0.0009238719940185547
ell 542, elapsed: 0.0017669200897216797
ell 541, elapsed: 0.0007050037384033203
ell 540, elapsed: 0.0008091926574707031
ell 539, elapsed: 0.0008940696716308594
ell 538, elapsed: 0.0009479522705078125
ell 532, elapsed: 0.0015358924865722656
ell 531, elapsed: 0.0008320808410644531
ell 530, elapsed: 0.0008060932159423828
ell 529, elapsed: 0.0008099079132080078
ell 528, elapsed: 0.0008289813995361328
ell 522, elapsed: 0.001580953598022461
ell 521, elapsed: 0.0010120868682861328
ell 520, elapsed: 0.0009438991546630859
ell 519, elapsed: 0.0008089542388916016
ell 518, elapsed: 0.0007841587066650391
ell 512, elapsed: 0.0015339851379394531
ell 511, elapsed: 0.0009031295776367188
ell 510, elapsed: 0.0008370876312255859
ell 509, elapsed: 0.0008168220520019531
ell 508, elapsed: 0.0008170604705810547
ell 502, elapsed: 0.0015530586242675781
ell 501, elapsed: 0.0008208751678466797
ell 500, elapsed: 0.0008111000061035156
ell 499, elapsed: 0.0008118152618408203
ell 498, elapsed: 0.0008268356323242188
ell 492, elapsed: 0.0015590190887451172
ell 491, elapsed: 0.0008342266082763672
ell 490, elapsed: 0.0008120536804199219
ell 489, elapsed: 0.0007760524749755859
ell 488, elapsed: 0.0007600784301757812
ell 482, elapsed: 0.0017671585083007812
ell 481, elapsed: 0.0007779598236083984
ell 480, elapsed: 0.0008149147033691406
ell 479, elapsed: 0.0008099079132080078
ell 478, elapsed: 0.0008199214935302734
ell 472, elapsed: 0.0015358924865722656
ell 471, elapsed: 0.0008220672607421875
ell 470, elapsed: 0.0008399486541748047
ell 469, elapsed: 0.0010349750518798828
ell 468, elapsed: 0.0008261203765869141
ell 462, elapsed: 0.0015208721160888672
ell 461, elapsed: 0.0008170604705810547
ell 460, elapsed: 0.0007870197296142578
ell 459, elapsed: 0.0007719993591308594
ell 458, elapsed: 0.0012691020965576172
ell 452, elapsed: 0.0015649795532226562
ell 451, elapsed: 0.0007929801940917969
ell 450, elapsed: 0.0008039474487304688
ell 449, elapsed: 0.0007939338684082031
ell 448, elapsed: 0.000804901123046875
ell 442, elapsed: 0.0019490718841552734
ell 441, elapsed: 0.0007960796356201172
ell 440, elapsed: 0.001071929931640625
ell 439, elapsed: 0.0008718967437744141
ell 438, elapsed: 0.0008339881896972656
ell 432, elapsed: 0.0017981529235839844
ell 431, elapsed: 0.0008671283721923828
ell 430, elapsed: 0.0008699893951416016
ell 429, elapsed: 0.0008440017700195312
ell 428, elapsed: 0.0008859634399414062
ell 422, elapsed: 0.0018038749694824219
ell 421, elapsed: 0.0010199546813964844
ell 420, elapsed: 0.0010819435119628906
ell 419, elapsed: 0.0008690357208251953
ell 418, elapsed: 0.0008809566497802734
ell 412, elapsed: 0.0017559528350830078
ell 411, elapsed: 0.0010290145874023438
ell 410, elapsed: 0.0008778572082519531
ell 409, elapsed: 0.0008800029754638672
ell 408, elapsed: 0.0008568763732910156
ell 402, elapsed: 0.0016529560089111328
ell 401, elapsed: 0.0008959770202636719
ell 400, elapsed: 0.0011510848999023438
ell 399, elapsed: 0.0009698867797851562
ell 398, elapsed: 0.0008220672607421875
ell 392, elapsed: 0.001589059829711914
ell 391, elapsed: 0.0008950233459472656
ell 390, elapsed: 0.0008552074432373047
ell 389, elapsed: 0.0008080005645751953
ell 388, elapsed: 0.0008580684661865234
ell 382, elapsed: 0.0016021728515625
ell 381, elapsed: 0.0008609294891357422
ell 380, elapsed: 0.0008738040924072266
ell 379, elapsed: 0.00084686279296875
ell 378, elapsed: 0.001194000244140625
ell 372, elapsed: 0.0018100738525390625
ell 371, elapsed: 0.0008940696716308594
ell 370, elapsed: 0.0008389949798583984
ell 369, elapsed: 0.0011131763458251953
ell 368, elapsed: 0.0008678436279296875
ell 362, elapsed: 0.0015540122985839844
ell 361, elapsed: 0.0008399486541748047
ell 360, elapsed: 0.0008268356323242188
ell 359, elapsed: 0.0008251667022705078
ell 358, elapsed: 0.0007960796356201172
ell 352, elapsed: 0.0017528533935546875
ell 351, elapsed: 0.0011990070343017578
ell 350, elapsed: 0.0007660388946533203
ell 349, elapsed: 0.0009310245513916016
ell 348, elapsed: 0.0007250308990478516
ell 342, elapsed: 0.001756906509399414
ell 341, elapsed: 0.0007960796356201172
ell 340, elapsed: 0.0010399818420410156
ell 339, elapsed: 0.0007998943328857422
ell 338, elapsed: 0.0007510185241699219
ell 332, elapsed: 0.0017540454864501953
ell 331, elapsed: 0.0008039474487304688
ell 330, elapsed: 0.0008108615875244141
ell 329, elapsed: 0.0011031627655029297
ell 328, elapsed: 0.0011310577392578125
ell 322, elapsed: 0.0015599727630615234
ell 321, elapsed: 0.0008568763732910156
ell 320, elapsed: 0.0008940696716308594
ell 319, elapsed: 0.0008568763732910156
ell 318, elapsed: 0.0008690357208251953
ell 312, elapsed: 0.0015881061553955078
ell 311, elapsed: 0.000885009765625
ell 310, elapsed: 0.0008718967437744141
ell 309, elapsed: 0.0008778572082519531
ell 308, elapsed: 0.0007910728454589844
ell 302, elapsed: 0.0012798309326171875
ell 301, elapsed: 0.0008671283721923828
ell 300, elapsed: 0.000720977783203125
ell 299, elapsed: 0.0010631084442138672
ell 298, elapsed: 0.0006959438323974609
ell 292, elapsed: 0.0017070770263671875
ell 291, elapsed: 0.0006802082061767578
ell 290, elapsed: 0.00127410888671875
ell 289, elapsed: 0.0009551048278808594
ell 288, elapsed: 0.0012209415435791016
ell 282, elapsed: 0.0020427703857421875
ell 281, elapsed: 0.0009899139404296875
ell 280, elapsed: 0.0009911060333251953
ell 279, elapsed: 0.000993967056274414
ell 278, elapsed: 0.0009889602661132812
ell 272, elapsed: 0.002126932144165039
ell 271, elapsed: 0.0011360645294189453
ell 270, elapsed: 0.000990152359008789
ell 269, elapsed: 0.0009860992431640625
ell 268, elapsed: 0.0009860992431640625
ell 262, elapsed: 0.0018639564514160156
ell 261, elapsed: 0.0012459754943847656
ell 260, elapsed: 0.00113677978515625
ell 259, elapsed: 0.0009908676147460938
ell 258, elapsed: 0.000990152359008789
ell 252, elapsed: 0.0020799636840820312
ell 251, elapsed: 0.000988006591796875
ell 250, elapsed: 0.0009899139404296875
ell 249, elapsed: 0.0011610984802246094
ell 248, elapsed: 0.001007080078125
ell 242, elapsed: 0.0018420219421386719
ell 241, elapsed: 0.0010640621185302734
ell 240, elapsed: 0.0011529922485351562
ell 239, elapsed: 0.000988006591796875
ell 238, elapsed: 0.0009870529174804688
ell 232, elapsed: 0.0018658638000488281
ell 231, elapsed: 0.0011849403381347656
ell 230, elapsed: 0.000985860824584961
ell 229, elapsed: 0.001024007797241211
ell 228, elapsed: 0.0010788440704345703
ell 222, elapsed: 0.0018558502197265625
ell 221, elapsed: 0.0009870529174804688
ell 220, elapsed: 0.001474142074584961
ell 219, elapsed: 0.0012218952178955078
ell 218, elapsed: 0.000993967056274414
ell 212, elapsed: 0.001873016357421875
ell 211, elapsed: 0.0010979175567626953
ell 210, elapsed: 0.0009899139404296875
ell 209, elapsed: 0.0009789466857910156
ell 208, elapsed: 0.0011260509490966797
ell 202, elapsed: 0.001956939697265625
ell 201, elapsed: 0.0013060569763183594
ell 200, elapsed: 0.0010819435119628906
ell 199, elapsed: 0.0011069774627685547
ell 198, elapsed: 0.0014150142669677734
ell 192, elapsed: 0.0018091201782226562
ell 191, elapsed: 0.0011010169982910156
ell 190, elapsed: 0.0012080669403076172
ell 189, elapsed: 0.0009710788726806641
ell 188, elapsed: 0.0009920597076416016
ell 182, elapsed: 0.002424955368041992
ell 181, elapsed: 0.001055002212524414
ell 180, elapsed: 0.0012879371643066406
ell 179, elapsed: 0.0009391307830810547
ell 178, elapsed: 0.0007607936859130859
ell 172, elapsed: 0.0017039775848388672
ell 171, elapsed: 0.0006961822509765625
ell 170, elapsed: 0.0009999275207519531
ell 169, elapsed: 0.0006859302520751953
ell 168, elapsed: 0.0009770393371582031
ell 162, elapsed: 0.0016219615936279297
ell 161, elapsed: 0.0006899833679199219
ell 160, elapsed: 0.0009388923645019531
ell 159, elapsed: 0.0007610321044921875
ell 158, elapsed: 0.0008988380432128906
ell 152, elapsed: 0.001316070556640625
ell 151, elapsed: 0.0009980201721191406
ell 150, elapsed: 0.0007171630859375
ell 149, elapsed: 0.0008862018585205078
ell 148, elapsed: 0.0007560253143310547
ell 142, elapsed: 0.0017499923706054688
ell 141, elapsed: 0.0006971359252929688
ell 140, elapsed: 0.0009970664978027344
ell 139, elapsed: 0.0007140636444091797
ell 138, elapsed: 0.001065969467163086
ell 132, elapsed: 0.0015418529510498047
ell 131, elapsed: 0.0006608963012695312
ell 130, elapsed: 0.0009191036224365234
ell 129, elapsed: 0.000698089599609375
ell 128, elapsed: 0.0009789466857910156
ell 122, elapsed: 0.0016281604766845703
ell 121, elapsed: 0.0006909370422363281
ell 120, elapsed: 0.0009608268737792969
ell 119, elapsed: 0.0008149147033691406
ell 118, elapsed: 0.001024007797241211
ell 112, elapsed: 0.0013420581817626953
ell 111, elapsed: 0.0009469985961914062
ell 110, elapsed: 0.0007758140563964844
ell 109, elapsed: 0.0009698867797851562
ell 108, elapsed: 0.0007290840148925781
ell 102, elapsed: 0.0016238689422607422
ell 101, elapsed: 0.0036211013793945312
ell 100, elapsed: 0.0046749114990234375
ell 99, elapsed: 0.004524946212768555
ell 98, elapsed: 0.004786014556884766
ell 92, elapsed: 0.007427215576171875
ell 91, elapsed: 0.004359006881713867
ell 90, elapsed: 0.004656076431274414
ell 89, elapsed: 0.004460811614990234
ell 88, elapsed: 0.0046710968017578125
ell 82, elapsed: 0.007214069366455078
ell 81, elapsed: 0.004584074020385742
ell 80, elapsed: 0.004183053970336914
ell 79, elapsed: 0.0047550201416015625
ell 78, elapsed: 0.004812955856323242
ell 72, elapsed: 0.007442951202392578
ell 71, elapsed: 0.004479885101318359
ell 70, elapsed: 0.0046558380126953125
ell 69, elapsed: 0.004762887954711914
ell 68, elapsed: 0.004467964172363281
ell 62, elapsed: 0.0074291229248046875
ell 61, elapsed: 0.00456690788269043
ell 60, elapsed: 0.0037109851837158203
ell 59, elapsed: 0.003885030746459961
ell 58, elapsed: 0.004624843597412109
ell 52, elapsed: 0.006814002990722656
ell 51, elapsed: 0.004658937454223633
ell 50, elapsed: 0.004683017730712891
ell 49, elapsed: 0.004778146743774414
ell 48, elapsed: 0.004584074020385742
ell 42, elapsed: 0.00726318359375
ell 41, elapsed: 0.004621028900146484
ell 40, elapsed: 0.004606008529663086
ell 39, elapsed: 0.004602193832397461
ell 38, elapsed: 0.004608869552612305
ell 32, elapsed: 0.007276058197021484
ell 31, elapsed: 0.00467681884765625
ell 30, elapsed: 0.004689931869506836
ell 29, elapsed: 0.004765033721923828
ell 28, elapsed: 0.004643917083740234
ell 22, elapsed: 0.007524013519287109
ell 21, elapsed: 0.004076957702636719
ell 20, elapsed: 0.0045549869537353516
ell 19, elapsed: 0.004778861999511719
ell 18, elapsed: 0.0047550201416015625
ell 12, elapsed: 0.007494926452636719
ell 11, elapsed: 0.0038559436798095703
ell 10, elapsed: 0.004281044006347656
ell 9, elapsed: 0.004583120346069336
ell 8, elapsed: 0.004711151123046875
  0.905399 seconds (66.75 k allocations: 12.139 MiB)
elapsed: 0.0050318241119384766
step:          0.078342 sec (0 allocations: 0 byte, 0.0% gc time)
swapping:      0.000859 sec (0 allocations: 0 byte, 0.0% gc time)
calc_Mellell!: 0.038079 sec (0 allocations: 0 byte, 0.0% gc time)
  t0 :  0.012368 sec (0 allocations: 0 byte, 0.0% gc time)
  tm2 : 0.085281 sec (0 allocations: 0 byte, 0.0% gc time)
  tm2s: 0.009417 sec (0 allocations: 0 byte, 0.0% gc time)
  tm4 : 0.21605 sec (0 allocations: 0 byte, 0.0% gc time)
  tp2 : 0.0 sec (0 allocations: 0 byte, 0.0% gc time)
  tp2s: 0.0 sec (0 allocations: 0 byte, 0.0% gc time)
  tp4 : 0.0 sec (0 allocations: 0 byte, 0.0% gc time)
calc_wtdll!:   0.59808 sec (49.2 k allocations: 11.133 MB, 0.0% gc time)
calc_wljj!:    0.043678 sec (69 allocations: 1.078 KB, 0.0% gc time)
mult_prefac!:  0.0 sec (0 allocations: 0 byte, 0.0% gc time)
convert:       0.0 sec (0 allocations: 0 byte, 0.0% gc time)
write:         0.040868 sec (0 allocations: 0 byte, 0.0% gc time)
test_rand_2f1: 0.0 sec (0 allocations: 0 byte, 0.0% gc time)
Closing outfile out/MlCache/MlCache.bin...   0.000010 seconds
xi, l=0, nu=0:   0.421930 seconds (551.97 k allocations: 26.845 MiB)
xi, l=0, nu=-2:  0.002877 seconds (144 allocations: 149.562 KiB)
Created 'out/xi.tsv'.
  q=1.1, R=0.6:	  0.758603 seconds (291.08 k allocations: 38.895 MiB, 2.74% gc time)
  q=1.1, R=0.7:	  0.869192 seconds (304.75 k allocations: 40.996 MiB, 1.54% gc time)
  q=1.1, R=0.8:	  0.946997 seconds (299.14 k allocations: 40.132 MiB, 2.35% gc time)
  q=1.1, R=0.9:	  1.009361 seconds (293.57 k allocations: 39.286 MiB, 0.74% gc time)
  q=1.1, R=0.998:	 22.200523 seconds (10.67 M allocations: 823.453 MiB, 0.24% gc time)
  q=1.1, R=1.0:	  0.004599 seconds (10.24 k allocations: 768.375 KiB)

ℓ = 1000
Δℓ = 4
ΔℓRg1 = -4
N = 4096
q = 1.1
kmin = 1.0e-5
kmax = 1000.0
χ0 = 0.001
RR = RR.tsv
ℓmax = ℓmax.bin
f21 = f21.bin
kmin = 1.0e-5
kmax = 1000.0
dlrec    = 4
dlrecRg1 = -4
Output size: 1573632 bytes = 0.0014655590057373047 GiB
Output size: 786816 bytes = 0.0007327795028686523 GiB
Reading 'out/F21EllCache'...   0.001528 seconds (268 allocations: 533.531 KiB)
ellmax: 1002
lmaxcache: 1000
fell[:,1,1] = Complex{Float64}[1.7262928128202118e-224 - 4.2281979352226944e-240im, 1.7282693092099662e-224 - 4.233038955177176e-240im]
ell 1002, elapsed: 3.790855407714844e-5
ell 1001, elapsed: 0.0008509159088134766
ell 1000, elapsed: 0.0007739067077636719
ell 999, elapsed: 0.00764012336730957
ell 998, elapsed: 0.007828950881958008
ell 44, elapsed: 0.6383891105651855
ell 43, elapsed: 0.0073909759521484375
ell 42, elapsed: 0.007359981536865234
ell 41, elapsed: 0.0072481632232666016
ell 40, elapsed: 0.00728297233581543
  0.891678 seconds (4.55 k allocations: 320.359 KiB)
elapsed: 0.2062079906463623
step:          0.633363 sec (0 allocations: 0 byte, 0.0% gc time)
swapping:      0.000601 sec (0 allocations: 0 byte, 0.0% gc time)
calc_Mellell!: 0.001174 sec (0 allocations: 0 byte, 0.0% gc time)
  t0 :  0.00059 sec (0 allocations: 0 byte, 0.0% gc time)
  tm2 : 0.013461 sec (0 allocations: 0 byte, 0.0% gc time)
  tm2s: 0.000397 sec (0 allocations: 0 byte, 0.0% gc time)
  tm4 : 0.037942 sec (0 allocations: 0 byte, 0.0% gc time)
  tp2 : 0.0 sec (0 allocations: 0 byte, 0.0% gc time)
  tp2s: 0.0 sec (0 allocations: 0 byte, 0.0% gc time)
  tp4 : 0.0 sec (0 allocations: 0 byte, 0.0% gc time)
calc_wtdll!:   0.052637 sec (480 allocations: 52.5 KB, 0.0% gc time)
calc_wljj!:    0.001716 sec (1 allocations: 16 byte, 0.0% gc time)
mult_prefac!:  0.0 sec (0 allocations: 0 byte, 0.0% gc time)
convert:       0.0 sec (0 allocations: 0 byte, 0.0% gc time)
write:         0.198419 sec (0 allocations: 0 byte, 0.0% gc time)
test_rand_2f1: 0.0 sec (0 allocations: 0 byte, 0.0% gc time)
Closing outfile out/MlCache/MlCache.bin...   0.000248 seconds
  0.515277 seconds (54 allocations: 67.203 KiB)
make_phi():   0.009960 seconds (80 allocations: 276.297 KiB)
  0.003276 seconds (108 allocations: 5.812 KiB)
tskip:       1.0e-6 sec (0 allocations: 0 byte, 0.0% gc time)
tread:       0.000748 sec (19 allocations: 1.312 KB, 0.0% gc time)
tmultphi:    0.000338 sec (0 allocations: 0 byte, 0.0% gc time)
tbrfft:      0.001198 sec (96 allocations: 4.5 KB, 0.0% gc time)
tmultprefac: 0.000977 sec (0 allocations: 0 byte, 0.0% gc time)
toutfunc:    0.000124 sec (0 allocations: 0 byte, 0.0% gc time)
Created 'out/wl42_jj00.tsv'.
Created 'out/wl42_jj02.tsv'.
   Testing TwoFAST tests passed 
