Julia Version 1.4.2-pre.0
Commit ef4fe83698 (2020-04-15 16:24 UTC)
Platform Info:
  OS: Linux (x86_64-linux-gnu)
  CPU: Intel(R) Xeon(R) Silver 4114 CPU @ 2.20GHz
  WORD_SIZE: 64
  LIBM: libopenlibm
  LLVM: libLLVM-8.0.1 (ORCJIT, skylake)
Environment:
  JULIA_DEPOT_PATH = ::/usr/local/share/julia
  JULIA_NUM_THREADS = 2

  Resolving package versions...
  Installed Reexport ───────────────────── v0.2.0
  Installed CompilerSupportLibraries_jll ─ v0.3.3+0
  Installed OpenSpecFun_jll ────────────── v0.5.3+3
  Installed LoadFlint ──────────────────── v0.1.3
  Installed SpecialFunctions ───────────── v0.10.0
  Installed BinaryProvider ─────────────── v0.5.9
  Installed AbstractAlgebra ────────────── v0.9.1
  Installed MKL_jll ────────────────────── v2019.0.117+2
  Installed AbstractFFTs ───────────────── v0.5.0
  Installed FFTW_jll ───────────────────── v3.3.9+5
  Installed IntelOpenMP_jll ────────────── v2018.0.3+0
  Installed FFTW ───────────────────────── v1.2.1
  Installed TwoFAST ────────────────────── v0.1.1
  Installed Nemo ───────────────────────── v0.17.5
   Updating `~/.julia/environments/v1.4/Project.toml`
  [0dd23c3e] + TwoFAST v0.1.1
   Updating `~/.julia/environments/v1.4/Manifest.toml`
  [c3fe647b] + AbstractAlgebra v0.9.1
  [621f4979] + AbstractFFTs v0.5.0
  [b99e7846] + BinaryProvider v0.5.9
  [e66e0078] + CompilerSupportLibraries_jll v0.3.3+0
  [7a1cc6ca] + FFTW v1.2.1
  [f5851436] + FFTW_jll v3.3.9+5
  [1d5cc7b8] + IntelOpenMP_jll v2018.0.3+0
  [472f376f] + LoadFlint v0.1.3
  [856f044c] + MKL_jll v2019.0.117+2
  [2edaba10] + Nemo v0.17.5
  [efe28fd5] + OpenSpecFun_jll v0.5.3+3
  [189a3867] + Reexport v0.2.0
  [276daf66] + SpecialFunctions v0.10.0
  [0dd23c3e] + TwoFAST v0.1.1
  [2a0f44e3] + Base64 
  [ade2ca70] + Dates 
  [8bb1440f] + DelimitedFiles 
  [8ba89e20] + Distributed 
  [b77e0a4c] + InteractiveUtils 
  [76f85450] + LibGit2 
  [8f399da3] + Libdl 
  [37e2e46d] + LinearAlgebra 
  [56ddb016] + Logging 
  [d6f4376e] + Markdown 
  [a63ad114] + Mmap 
  [44cfe95a] + Pkg 
  [de0858da] + Printf 
  [3fa0cd96] + REPL 
  [9a3f8284] + Random 
  [ea8e919c] + SHA 
  [9e88b42a] + Serialization 
  [6462fe0b] + Sockets 
  [2f01184e] + SparseArrays 
  [8dfed614] + Test 
  [cf7118a7] + UUIDs 
  [4ec0a83e] + Unicode 
   Building LoadFlint → `~/.julia/packages/LoadFlint/42zpR/deps/build.log`
   Building Nemo ─────→ `~/.julia/packages/Nemo/Pc5ui/deps/build.log`
   Building FFTW ─────→ `~/.julia/packages/FFTW/5DZuu/deps/build.log`
    Testing TwoFAST
Status `/tmp/jl_mXYJ62/Manifest.toml`
  [c3fe647b] AbstractAlgebra v0.9.1
  [621f4979] AbstractFFTs v0.5.0
  [b99e7846] BinaryProvider v0.5.9
  [e66e0078] CompilerSupportLibraries_jll v0.3.3+0
  [39dd38d3] Dierckx v0.4.1
  [7a1cc6ca] FFTW v1.2.1
  [f5851436] FFTW_jll v3.3.9+5
  [1d5cc7b8] IntelOpenMP_jll v2018.0.3+0
  [472f376f] LoadFlint v0.1.3
  [856f044c] MKL_jll v2019.0.117+2
  [2edaba10] Nemo v0.17.5
  [efe28fd5] OpenSpecFun_jll v0.5.3+3
  [189a3867] Reexport v0.2.0
  [276daf66] SpecialFunctions v0.10.0
  [0dd23c3e] TwoFAST v0.1.1
  [2a0f44e3] Base64 
  [ade2ca70] Dates 
  [8bb1440f] DelimitedFiles 
  [8ba89e20] Distributed 
  [b77e0a4c] InteractiveUtils 
  [76f85450] LibGit2 
  [8f399da3] Libdl 
  [37e2e46d] LinearAlgebra 
  [56ddb016] Logging 
  [d6f4376e] Markdown 
  [a63ad114] Mmap 
  [44cfe95a] Pkg 
  [de0858da] Printf 
  [3fa0cd96] REPL 
  [9a3f8284] Random 
  [ea8e919c] SHA 
  [9e88b42a] Serialization 
  [6462fe0b] Sockets 
  [2f01184e] SparseArrays 
  [8dfed614] Test 
  [cf7118a7] UUIDs 
  [4ec0a83e] Unicode 
Testing ξ(r), ℓ=0, ν=-1 ... passed
Testing ξ(r), ℓ=0, ν=0 ... passed
Testing ξ(r), ℓ=0, ν=1 ... passed
Testing ξ(r), ℓ=0, ν=2 ... passed
Testing ξ(r), ℓ=0, ν=3 ... passed
Testing ξ(r), ℓ=1, ν=0 ... passed
Testing ξ(r), ℓ=1, ν=1 ... passed
Testing ξ(r), ℓ=1, ν=2 ... passed
Testing ξ(r), ℓ=1, ν=3 ... passed
Testing ξ(r), ℓ=2, ν=-1 ... passed
Testing ξ(r), ℓ=2, ν=0 ... passed
Testing ξ(r), ℓ=2, ν=1 ... passed
Testing ξ(r), ℓ=2, ν=2 ... passed
Testing ξ(r), ℓ=2, ν=3 ... passed
Testing ξ(r), ℓ=3, ν=-1 ... passed
Testing ξ(r), ℓ=3, ν=0 ... passed
Testing ξ(r), ℓ=3, ν=1 ... passed
Testing ξ(r), ℓ=3, ν=2 ... passed
Testing ξ(r), ℓ=3, ν=3 ... passed
Testing ξ(r), ℓ=4, ν=-1 ... passed
Testing ξ(r), ℓ=4, ν=0 ... passed
Testing ξ(r), ℓ=4, ν=1 ... passed
Testing ξ(r), ℓ=4, ν=2 ... passed
Testing ξ(r), ℓ=4, ν=3 ... passed
Testing ξ(r) ... passed
Testing ξ′(r) ... passed
Testing ξ″(r) ... passed
Calculating fmax: 
  dlrec    = 4
  dlrecRg1 = -4
  q=1.1, R=1.1:	  4.552909 seconds (1.39 M allocations: 76.352 MiB, 1.13% gc time)

  4.590349 seconds (1.41 M allocations: 77.461 MiB, 1.12% gc time)
ℓ = 1202
Δℓ = 4
ΔℓRg1 = -4
N = 1600
q = 1.1
kmin = 1.0e-5
kmax = 100000.00000000004
χ0 = 0.023029999999999995
RR = RR.tsv
ℓmax = ℓmax.bin
f21 = f21.bin
kmin = 1.0e-5
kmax = 100000.0
dlrec    = 4
dlrecRg1 = -4
Output size: 5741568 bytes = 0.005347251892089844 GiB
Output size: 51264 bytes = 4.774332046508789e-5 GiB
Reading 'out/F21EllCache'...   0.527937 seconds (320.89 k allocations: 16.469 MiB)
ellmax: 1202
lmaxcache: 1202
fell[:,1,1] = Complex{Float64}[3.9583795592771634e-52 - 9.695233714158177e-68im, 3.990121772925759e-52 - 9.772979714843386e-68im]
ell 1202, elapsed: 0.0002739429473876953
ell 1201, elapsed: 2.125286102294922
ell 1200, elapsed: 0.0007960796356201172
ell 1199, elapsed: 0.0007119178771972656
ell 1198, elapsed: 0.0006928443908691406
ell 1002, elapsed: 0.010290145874023438
ell 1001, elapsed: 0.0006949901580810547
ell 1000, elapsed: 0.0007238388061523438
ell 999, elapsed: 0.0007150173187255859
ell 998, elapsed: 0.0007169246673583984
ell 902, elapsed: 0.005238056182861328
ell 901, elapsed: 0.0006778240203857422
ell 900, elapsed: 0.0006659030914306641
ell 899, elapsed: 0.0007429122924804688
ell 898, elapsed: 0.0006759166717529297
ell 802, elapsed: 0.005357980728149414
ell 801, elapsed: 0.0006711483001708984
ell 800, elapsed: 0.0007238388061523438
ell 799, elapsed: 0.0006070137023925781
ell 798, elapsed: 0.0005819797515869141
ell 702, elapsed: 0.005117893218994141
ell 701, elapsed: 0.0005929470062255859
ell 700, elapsed: 0.0006299018859863281
ell 699, elapsed: 0.0006051063537597656
ell 698, elapsed: 0.0005788803100585938
ell 602, elapsed: 0.005255937576293945
ell 601, elapsed: 0.0005419254302978516
ell 600, elapsed: 0.0005280971527099609
ell 599, elapsed: 0.0005319118499755859
ell 598, elapsed: 0.0005412101745605469
ell 502, elapsed: 0.005113124847412109
ell 501, elapsed: 0.0005691051483154297
ell 500, elapsed: 0.0005440711975097656
ell 499, elapsed: 0.0005350112915039062
ell 498, elapsed: 0.0005469322204589844
ell 402, elapsed: 0.005137920379638672
ell 401, elapsed: 0.0005550384521484375
ell 400, elapsed: 0.0005400180816650391
ell 399, elapsed: 0.0006241798400878906
ell 398, elapsed: 0.0006470680236816406
ell 302, elapsed: 0.005079984664916992
ell 301, elapsed: 0.0005631446838378906
ell 300, elapsed: 0.0005431175231933594
ell 299, elapsed: 0.0005559921264648438
ell 298, elapsed: 0.0005400180816650391
ell 202, elapsed: 0.005151033401489258
ell 201, elapsed: 0.0005698204040527344
ell 200, elapsed: 0.0005540847778320312
ell 199, elapsed: 0.0005419254302978516
ell 198, elapsed: 0.0005600452423095703
ell 152, elapsed: 0.0027320384979248047
ell 151, elapsed: 0.0005481243133544922
ell 150, elapsed: 0.0005660057067871094
ell 149, elapsed: 0.0005381107330322266
ell 148, elapsed: 0.0005249977111816406
ell 127, elapsed: 0.001611948013305664
ell 126, elapsed: 0.0005559921264648438
ell 125, elapsed: 0.0005381107330322266
ell 124, elapsed: 0.000537872314453125
ell 123, elapsed: 0.0005440711975097656
ell 114, elapsed: 0.0010809898376464844
ell 113, elapsed: 0.0005660057067871094
ell 112, elapsed: 0.0005450248718261719
ell 111, elapsed: 0.0005331039428710938
ell 110, elapsed: 0.0005478858947753906
ell 102, elapsed: 0.0009958744049072266
ell 101, elapsed: 0.0005559921264648438
ell 100, elapsed: 0.0005412101745605469
ell 99, elapsed: 0.000537872314453125
ell 98, elapsed: 0.0005362033843994141
ell 97, elapsed: 0.0005831718444824219
ell 96, elapsed: 0.0006549358367919922
ell 95, elapsed: 0.0005660057067871094
ell 94, elapsed: 0.0006721019744873047
ell 93, elapsed: 0.0006380081176757812
ell 92, elapsed: 0.0006611347198486328
ell 91, elapsed: 0.0005660057067871094
ell 90, elapsed: 0.0006208419799804688
ell 89, elapsed: 0.0005970001220703125
ell 88, elapsed: 0.0006580352783203125
ell 87, elapsed: 0.0005807876586914062
ell 86, elapsed: 0.000637054443359375
ell 85, elapsed: 0.0005781650543212891
ell 84, elapsed: 0.0005810260772705078
ell 83, elapsed: 0.0005550384521484375
ell 82, elapsed: 0.000598907470703125
ell 81, elapsed: 0.0005240440368652344
ell 80, elapsed: 0.0005710124969482422
ell 79, elapsed: 0.0005309581756591797
ell 78, elapsed: 0.0005869865417480469
ell 77, elapsed: 0.0005090236663818359
ell 76, elapsed: 0.0005791187286376953
ell 75, elapsed: 0.0005080699920654297
ell 74, elapsed: 0.0005631446838378906
ell 73, elapsed: 0.0005090236663818359
ell 72, elapsed: 0.0005741119384765625
ell 71, elapsed: 0.0005240440368652344
ell 70, elapsed: 0.0005688667297363281
ell 69, elapsed: 0.0005321502685546875
ell 68, elapsed: 0.0005729198455810547
ell 67, elapsed: 0.0005109310150146484
ell 66, elapsed: 0.0005710124969482422
ell 65, elapsed: 0.0005121231079101562
ell 64, elapsed: 0.0005660057067871094
ell 63, elapsed: 0.0005130767822265625
ell 62, elapsed: 0.000579833984375
ell 61, elapsed: 0.0005090236663818359
ell 60, elapsed: 0.0005900859832763672
ell 59, elapsed: 0.0005221366882324219
ell 58, elapsed: 0.0005719661712646484
ell 57, elapsed: 0.0005090236663818359
ell 56, elapsed: 0.0005691051483154297
ell 55, elapsed: 0.0005221366882324219
ell 54, elapsed: 0.0005660057067871094
ell 53, elapsed: 0.0005080699920654297
ell 52, elapsed: 0.0005729198455810547
ell 51, elapsed: 0.0005080699920654297
ell 50, elapsed: 0.0005698204040527344
ell 49, elapsed: 0.0005118846893310547
ell 48, elapsed: 0.000598907470703125
ell 47, elapsed: 0.0005180835723876953
ell 46, elapsed: 0.0005719661712646484
ell 45, elapsed: 0.00051116943359375
ell 44, elapsed: 0.0005619525909423828
ell 43, elapsed: 0.0005080699920654297
ell 42, elapsed: 0.0005660057067871094
ell 41, elapsed: 0.0005228519439697266
ell 40, elapsed: 0.0005731582641601562
ell 39, elapsed: 0.0005171298980712891
ell 38, elapsed: 0.0005698204040527344
ell 37, elapsed: 0.000514984130859375
ell 36, elapsed: 0.0005741119384765625
ell 35, elapsed: 0.0005161762237548828
ell 34, elapsed: 0.0005900859832763672
ell 33, elapsed: 0.000514984130859375
ell 32, elapsed: 0.0005700588226318359
ell 31, elapsed: 0.0005199909210205078
ell 30, elapsed: 0.0005948543548583984
ell 29, elapsed: 0.0005121231079101562
ell 28, elapsed: 0.0005621910095214844
ell 27, elapsed: 0.0005209445953369141
ell 26, elapsed: 0.0005750656127929688
ell 25, elapsed: 0.0005168914794921875
ell 24, elapsed: 0.0005750656127929688
ell 23, elapsed: 0.0005130767822265625
ell 22, elapsed: 0.0005800724029541016
ell 21, elapsed: 0.0005168914794921875
ell 20, elapsed: 0.0005879402160644531
ell 19, elapsed: 0.0005130767822265625
ell 18, elapsed: 0.0005640983581542969
ell 17, elapsed: 0.0005128383636474609
ell 16, elapsed: 0.0005660057067871094
ell 15, elapsed: 0.0005588531494140625
ell 14, elapsed: 0.0005970001220703125
ell 13, elapsed: 0.0005309581756591797
ell 12, elapsed: 0.0005769729614257812
ell 11, elapsed: 0.0005090236663818359
ell 10, elapsed: 0.0005710124969482422
ell 9, elapsed: 0.0005230903625488281
ell 8, elapsed: 0.0005719661712646484
ell 7, elapsed: 0.0005090236663818359
ell 6, elapsed: 0.0006430149078369141
ell 5, elapsed: 0.0005099773406982422
ell 4, elapsed: 0.000576019287109375
ell 3, elapsed: 0.000514984130859375
ell 2, elapsed: 0.0005710124969482422
ell 1, elapsed: 0.0005168914794921875
ell 0, elapsed: 0.0005738735198974609
  2.950575 seconds (2.03 M allocations: 98.017 MiB, 2.47% gc time)
elapsed: 0.0012938976287841797
step:          0.798076 sec (593.764 k allocations: 28.703 MB, 6.01% gc time)
swapping:      0.000563 sec (0 allocations: 0 byte, 0.0% gc time)
calc_Mellell!: 0.514145 sec (389.77 k allocations: 19.053 MB, 4.84% gc time)
  t0 :  0.0 sec (0 allocations: 0 byte, 0.0% gc time)
  tm2 : 0.0 sec (0 allocations: 0 byte, 0.0% gc time)
  tm2s: 0.0 sec (0 allocations: 0 byte, 0.0% gc time)
  tm4 : 0.0 sec (0 allocations: 0 byte, 0.0% gc time)
  tp2 : 0.0 sec (0 allocations: 0 byte, 0.0% gc time)
  tp2s: 0.0 sec (0 allocations: 0 byte, 0.0% gc time)
  tp4 : 0.0 sec (0 allocations: 0 byte, 0.0% gc time)
calc_wtdll!:   0.937829 sec (526.101 k allocations: 26.389 MB, 0.0% gc time)
calc_wljj!:    0.003734 sec (6 allocations: 96 byte, 0.0% gc time)
mult_prefac!:  0.0 sec (0 allocations: 0 byte, 0.0% gc time)
convert:       0.0 sec (0 allocations: 0 byte, 0.0% gc time)
write:         0.003809 sec (0 allocations: 0 byte, 0.0% gc time)
test_rand_2f1: 0.0 sec (0 allocations: 0 byte, 0.0% gc time)
Closing outfile out/Ml21-cache.bin...   0.000086 seconds
  2.703653 seconds (849.15 k allocations: 81.803 MiB, 1.32% gc time)
make_phi():   0.052330 seconds (8.33 k allocations: 250.500 KiB)
  0.299211 seconds (177.42 k allocations: 11.483 MiB)
tskip:       2.9e-5 sec (0 allocations: 0 byte, 0.0% gc time)
tread:       0.003139 sec (19 allocations: 2.172 KB, 0.0% gc time)
tmultphi:    0.046766 sec (26.022 k allocations: 1.338 MB, 0.0% gc time)
tbrfft:      0.063352 sec (56.599 k allocations: 5.621 MB, 0.0% gc time)
tmultprefac: 0.004317 sec (0 allocations: 0 byte, 0.0% gc time)
toutfunc:    0.181399 sec (94.128 k allocations: 4.452 MB, 0.0% gc time)
Testing R=1.1 ... passed
Calculating fmax: 
  dlrec    = 4
  dlrecRg1 = -4
  q=1.1, R=1.0:	  0.001616 seconds (4.00 k allocations: 300.375 KiB)

  0.001816 seconds (4.04 k allocations: 335.062 KiB)
ℓ = 1202
Δℓ = 4
ΔℓRg1 = -4
N = 1600
q = 1.1
kmin = 1.0e-5
kmax = 100000.00000000004
χ0 = 0.023029999999999995
RR = RR.tsv
ℓmax = ℓmax.bin
f21 = f21.bin
kmin = 1.0e-5
kmax = 100000.0
dlrec    = 4
dlrecRg1 = -4
Output size: 61465536 bytes = 0.05724424123764038 GiB
Output size: 51264 bytes = 4.774332046508789e-5 GiB
Reading 'out/F21EllCache'...   0.001032 seconds (267 allocations: 84.656 KiB)
ellmax: 1202
lmaxcache: 1202
fell[:,1,1] = Complex{Float64}[809.6031528389767 - 1.9829558194077161e-13im, 0.0 + 0.0im]
ell 1202, elapsed: 2.3126602172851562e-5
ell 1201, elapsed: 0.014719963073730469
ell 1200, elapsed: 0.00035381317138671875
ell 1199, elapsed: 0.00034999847412109375
ell 1198, elapsed: 0.00034689903259277344
ell 1197, elapsed: 0.0003941059112548828
ell 1196, elapsed: 0.00039696693420410156
ell 1195, elapsed: 0.0005998611450195312
ell 1194, elapsed: 0.0005090236663818359
ell 1193, elapsed: 0.00045609474182128906
ell 1192, elapsed: 0.0006330013275146484
ell 1191, elapsed: 0.0004601478576660156
ell 1190, elapsed: 0.0003821849822998047
ell 1189, elapsed: 0.0004470348358154297
ell 1188, elapsed: 0.0003829002380371094
ell 1187, elapsed: 0.0004439353942871094
ell 1186, elapsed: 0.00038504600524902344
ell 1185, elapsed: 0.00044608116149902344
ell 1184, elapsed: 0.0004987716674804688
ell 1183, elapsed: 0.0004570484161376953
ell 1182, elapsed: 0.0003840923309326172
ell 1181, elapsed: 0.00045013427734375
ell 1180, elapsed: 0.0003809928894042969
ell 1179, elapsed: 0.0004420280456542969
ell 1178, elapsed: 0.0003809928894042969
ell 1177, elapsed: 0.00044608116149902344
ell 1176, elapsed: 0.0003910064697265625
ell 1175, elapsed: 0.0006380081176757812
ell 1174, elapsed: 0.0003898143768310547
ell 1173, elapsed: 0.00045108795166015625
ell 1172, elapsed: 0.0003769397735595703
ell 1171, elapsed: 0.00045609474182128906
ell 1170, elapsed: 0.00039196014404296875
ell 1169, elapsed: 0.00044989585876464844
ell 1168, elapsed: 0.00038504600524902344
ell 1167, elapsed: 0.0005710124969482422
ell 1166, elapsed: 0.0003910064697265625
ell 1165, elapsed: 0.00045490264892578125
ell 1164, elapsed: 0.0003859996795654297
ell 1163, elapsed: 0.0004520416259765625
ell 1162, elapsed: 0.00038886070251464844
ell 1161, elapsed: 0.0006368160247802734
ell 1160, elapsed: 0.0004489421844482422
ell 1159, elapsed: 0.00057220458984375
ell 1158, elapsed: 0.0003848075866699219
ell 1157, elapsed: 0.00045800209045410156
ell 1156, elapsed: 0.0003859996795654297
ell 1155, elapsed: 0.00046515464782714844
ell 1154, elapsed: 0.00039696693420410156
ell 1153, elapsed: 0.0004520416259765625
ell 1152, elapsed: 0.0003769397735595703
ell 1151, elapsed: 0.00047898292541503906
ell 1150, elapsed: 0.0007479190826416016
ell 1149, elapsed: 0.0004661083221435547
ell 1148, elapsed: 0.0003910064697265625
ell 1147, elapsed: 0.00045299530029296875
ell 1146, elapsed: 0.0003859996795654297
ell 1145, elapsed: 0.0004589557647705078
ell 1144, elapsed: 0.00038504600524902344
ell 1143, elapsed: 0.0004558563232421875
ell 1142, elapsed: 0.0005090236663818359
ell 1141, elapsed: 0.00045680999755859375
ell 1140, elapsed: 0.00038814544677734375
ell 1139, elapsed: 0.00045800209045410156
ell 1138, elapsed: 0.00038695335388183594
ell 1137, elapsed: 0.0004489421844482422
ell 1136, elapsed: 0.0003859996795654297
ell 1135, elapsed: 0.0004711151123046875
ell 1134, elapsed: 0.0005121231079101562
ell 1133, elapsed: 0.0004661083221435547
ell 1132, elapsed: 0.0003859996795654297
ell 1131, elapsed: 0.0004639625549316406
ell 1130, elapsed: 0.00038909912109375
ell 1129, elapsed: 0.0004608631134033203
ell 1128, elapsed: 0.0003859996795654297
ell 1127, elapsed: 0.00044798851013183594
ell 1126, elapsed: 0.0003859996795654297
ell 1125, elapsed: 0.0005888938903808594
ell 1124, elapsed: 0.0003848075866699219
ell 1123, elapsed: 0.0004639625549316406
ell 1122, elapsed: 0.00039005279541015625
ell 1121, elapsed: 0.0004551410675048828
ell 1120, elapsed: 0.0003819465637207031
ell 1119, elapsed: 0.00045418739318847656
ell 1118, elapsed: 0.0003948211669921875
ell 1117, elapsed: 0.0006039142608642578
ell 1116, elapsed: 0.00038814544677734375
ell 1115, elapsed: 0.0004608631134033203
ell 1114, elapsed: 0.00038313865661621094
ell 1113, elapsed: 0.00045490264892578125
ell 1112, elapsed: 0.0003910064697265625
ell 1111, elapsed: 0.0004649162292480469
ell 1110, elapsed: 0.0003859996795654297
ell 1109, elapsed: 0.00044798851013183594
ell 1108, elapsed: 0.0005021095275878906
ell 1107, elapsed: 0.0004649162292480469
ell 1106, elapsed: 0.00047516822814941406
ell 1105, elapsed: 0.0006270408630371094
ell 1104, elapsed: 0.00038504600524902344
ell 1103, elapsed: 0.0004570484161376953
ell 1102, elapsed: 0.0003829002380371094
ell 1101, elapsed: 0.0004570484161376953
ell 1100, elapsed: 0.0004868507385253906
ell 1099, elapsed: 0.0004711151123046875
ell 1098, elapsed: 0.00038695335388183594
ell 1097, elapsed: 0.00044989585876464844
ell 1096, elapsed: 0.0005269050598144531
ell 1095, elapsed: 0.0005469322204589844
ell 1094, elapsed: 0.0003840923309326172
ell 1093, elapsed: 0.0004611015319824219
ell 1092, elapsed: 0.0004839897155761719
ell 1091, elapsed: 0.00047397613525390625
ell 1090, elapsed: 0.00038695335388183594
ell 1089, elapsed: 0.0004520416259765625
ell 1088, elapsed: 0.0003800392150878906
ell 1087, elapsed: 0.0004508495330810547
ell 1086, elapsed: 0.0003898143768310547
ell 1085, elapsed: 0.00045609474182128906
ell 1084, elapsed: 0.0005698204040527344
ell 1083, elapsed: 0.0006320476531982422
ell 1082, elapsed: 0.0003859996795654297
ell 1081, elapsed: 0.00045609474182128906
ell 1080, elapsed: 0.00039196014404296875
ell 1079, elapsed: 0.00046706199645996094
ell 1078, elapsed: 0.00038909912109375
ell 1077, elapsed: 0.00045800209045410156
ell 1076, elapsed: 0.0003879070281982422
ell 1075, elapsed: 0.0004589557647705078
ell 1074, elapsed: 0.00038695335388183594
ell 1073, elapsed: 0.0004589557647705078
ell 1072, elapsed: 0.0003960132598876953
ell 1071, elapsed: 0.0004589557647705078
ell 1070, elapsed: 0.00038504600524902344
ell 1069, elapsed: 0.0004680156707763672
ell 1068, elapsed: 0.000392913818359375
ell 1067, elapsed: 0.00046706199645996094
ell 1066, elapsed: 0.0003879070281982422
ell 1065, elapsed: 0.0004589557647705078
ell 1064, elapsed: 0.00038695335388183594
ell 1063, elapsed: 0.00044798851013183594
ell 1062, elapsed: 0.00038814544677734375
ell 1061, elapsed: 0.000453948974609375
ell 1060, elapsed: 0.00038504600524902344
ell 1059, elapsed: 0.00045800209045410156
ell 1058, elapsed: 0.00040602684020996094
ell 1057, elapsed: 0.0004601478576660156
ell 1056, elapsed: 0.00038504600524902344
ell 1055, elapsed: 0.0004451274871826172
ell 1054, elapsed: 0.0003848075866699219
ell 1053, elapsed: 0.0004520416259765625
ell 1052, elapsed: 0.00038504600524902344
ell 1051, elapsed: 0.00044989585876464844
ell 1050, elapsed: 0.0003819465637207031
ell 1049, elapsed: 0.0005300045013427734
ell 1048, elapsed: 0.00038886070251464844
ell 1047, elapsed: 0.00045299530029296875
ell 1046, elapsed: 0.0003821849822998047
ell 1045, elapsed: 0.0004439353942871094
ell 1044, elapsed: 0.00038695335388183594
ell 1043, elapsed: 0.00044608116149902344
ell 1042, elapsed: 0.00039005279541015625
ell 1041, elapsed: 0.0004611015319824219
ell 1040, elapsed: 0.0004830360412597656
ell 1039, elapsed: 0.0004680156707763672
ell 1038, elapsed: 0.0003840923309326172
ell 1037, elapsed: 0.00045108795166015625
ell 1036, elapsed: 0.0003821849822998047
ell 1035, elapsed: 0.0004589557647705078
ell 1034, elapsed: 0.00038886070251464844
ell 1033, elapsed: 0.00045418739318847656
ell 1032, elapsed: 0.0004780292510986328
ell 1031, elapsed: 0.00047016143798828125
ell 1030, elapsed: 0.0003960132598876953
ell 1029, elapsed: 0.00046181678771972656
ell 1028, elapsed: 0.00038313865661621094
ell 1027, elapsed: 0.0004620552062988281
ell 1026, elapsed: 0.0003910064697265625
ell 1025, elapsed: 0.0004611015319824219
ell 1024, elapsed: 0.0005478858947753906
ell 1023, elapsed: 0.0005030632019042969
ell 1022, elapsed: 0.00038695335388183594
ell 1021, elapsed: 0.00045609474182128906
ell 1020, elapsed: 0.00039196014404296875
ell 1019, elapsed: 0.00045800209045410156
ell 1018, elapsed: 0.00038909912109375
ell 1017, elapsed: 0.00046706199645996094
ell 1016, elapsed: 0.0003921985626220703
ell 1015, elapsed: 0.0005841255187988281
ell 1014, elapsed: 0.00038886070251464844
ell 1013, elapsed: 0.0004429817199707031
ell 1012, elapsed: 0.00038814544677734375
ell 1011, elapsed: 0.00044918060302734375
ell 1010, elapsed: 0.0003859996795654297
ell 1009, elapsed: 0.00044989585876464844
ell 1008, elapsed: 0.0003788471221923828
ell 1007, elapsed: 0.0005199909210205078
ell 1006, elapsed: 0.0005280971527099609
ell 1005, elapsed: 0.0005729198455810547
ell 1004, elapsed: 0.0003788471221923828
ell 1003, elapsed: 0.0004551410675048828
ell 1002, elapsed: 0.0003838539123535156
ell 1001, elapsed: 0.0006108283996582031
ell 1000, elapsed: 0.0004649162292480469
ell 999, elapsed: 0.00047898292541503906
ell 998, elapsed: 0.00049591064453125
ell 997, elapsed: 0.0006000995635986328
ell 996, elapsed: 0.0005578994750976562
ell 995, elapsed: 0.0005290508270263672
ell 994, elapsed: 0.00038504600524902344
ell 993, elapsed: 0.0004520416259765625
ell 992, elapsed: 0.00038504600524902344
ell 991, elapsed: 0.0005669593811035156
ell 990, elapsed: 0.0003859996795654297
ell 989, elapsed: 0.0004458427429199219
ell 988, elapsed: 0.00038313865661621094
ell 987, elapsed: 0.0004570484161376953
ell 986, elapsed: 0.0003838539123535156
ell 985, elapsed: 0.0004570484161376953
ell 984, elapsed: 0.0003879070281982422
ell 983, elapsed: 0.0005700588226318359
ell 982, elapsed: 0.00038695335388183594
ell 981, elapsed: 0.000453948974609375
ell 980, elapsed: 0.00038695335388183594
ell 979, elapsed: 0.00044798851013183594
ell 978, elapsed: 0.00038504600524902344
ell 977, elapsed: 0.000453948974609375
ell 976, elapsed: 0.00038504600524902344
ell 975, elapsed: 0.0004558563232421875
ell 974, elapsed: 0.0007410049438476562
ell 973, elapsed: 0.0006170272827148438
ell 972, elapsed: 0.0005118846893310547
ell 971, elapsed: 0.0004608631134033203
ell 970, elapsed: 0.0003879070281982422
ell 969, elapsed: 0.0004520416259765625
ell 968, elapsed: 0.00038695335388183594
ell 967, elapsed: 0.0005791187286376953
ell 966, elapsed: 0.00038695335388183594
ell 965, elapsed: 0.00045609474182128906
ell 964, elapsed: 0.0003859996795654297
ell 963, elapsed: 0.0006029605865478516
ell 962, elapsed: 0.0005118846893310547
ell 961, elapsed: 0.0004620552062988281
ell 960, elapsed: 0.0003879070281982422
ell 959, elapsed: 0.0007879734039306641
ell 958, elapsed: 0.0003898143768310547
ell 957, elapsed: 0.00045013427734375
ell 956, elapsed: 0.00038814544677734375
ell 955, elapsed: 0.0004630088806152344
ell 954, elapsed: 0.00039005279541015625
ell 953, elapsed: 0.0004601478576660156
ell 952, elapsed: 0.00039005279541015625
ell 951, elapsed: 0.0008168220520019531
ell 950, elapsed: 0.00038909912109375
ell 949, elapsed: 0.0004658699035644531
ell 948, elapsed: 0.0003910064697265625
ell 947, elapsed: 0.0004520416259765625
ell 946, elapsed: 0.0003960132598876953
ell 945, elapsed: 0.00045800209045410156
ell 944, elapsed: 0.0003910064697265625
ell 943, elapsed: 0.0007939338684082031
ell 942, elapsed: 0.00038909912109375
ell 941, elapsed: 0.00045609474182128906
ell 940, elapsed: 0.00038909912109375
ell 939, elapsed: 0.00045490264892578125
ell 938, elapsed: 0.0003859996795654297
ell 937, elapsed: 0.00045180320739746094
ell 936, elapsed: 0.00039005279541015625
ell 935, elapsed: 0.0007760524749755859
ell 934, elapsed: 0.0003879070281982422
ell 933, elapsed: 0.0004589557647705078
ell 932, elapsed: 0.00038695335388183594
ell 931, elapsed: 0.0004780292510986328
ell 930, elapsed: 0.0004019737243652344
ell 929, elapsed: 0.0004508495330810547
ell 928, elapsed: 0.0003979206085205078
ell 927, elapsed: 0.0006411075592041016
ell 926, elapsed: 0.00039005279541015625
ell 925, elapsed: 0.00045490264892578125
ell 924, elapsed: 0.00038695335388183594
ell 923, elapsed: 0.00045108795166015625
ell 922, elapsed: 0.00038695335388183594
ell 921, elapsed: 0.00046515464782714844
ell 920, elapsed: 0.0003941059112548828
ell 919, elapsed: 0.0005388259887695312
ell 918, elapsed: 0.00039887428283691406
ell 917, elapsed: 0.0004601478576660156
ell 916, elapsed: 0.00038695335388183594
ell 915, elapsed: 0.00045299530029296875
ell 914, elapsed: 0.0004851818084716797
ell 913, elapsed: 0.0007090568542480469
ell 912, elapsed: 0.0005609989166259766
ell 911, elapsed: 0.0006070137023925781
ell 910, elapsed: 0.0004031658172607422
ell 909, elapsed: 0.0004661083221435547
ell 908, elapsed: 0.0003960132598876953
ell 907, elapsed: 0.0005948543548583984
ell 906, elapsed: 0.0005550384521484375
ell 905, elapsed: 0.0006239414215087891
ell 904, elapsed: 0.0004851818084716797
ell 903, elapsed: 0.0006151199340820312
ell 902, elapsed: 0.0006210803985595703
ell 901, elapsed: 0.0005419254302978516
ell 900, elapsed: 0.0005030632019042969
ell 899, elapsed: 0.0006120204925537109
ell 898, elapsed: 0.0003991127014160156
ell 897, elapsed: 0.0006449222564697266
ell 896, elapsed: 0.00046515464782714844
ell 895, elapsed: 0.0004668235778808594
ell 894, elapsed: 0.0004761219024658203
ell 893, elapsed: 0.0006389617919921875
ell 892, elapsed: 0.0003960132598876953
ell 891, elapsed: 0.0004589557647705078
ell 890, elapsed: 0.0005919933319091797
ell 889, elapsed: 0.0007119178771972656
ell 888, elapsed: 0.0004451274871826172
ell 887, elapsed: 0.0005731582641601562
ell 886, elapsed: 0.00051116943359375
ell 885, elapsed: 0.0004589557647705078
ell 884, elapsed: 0.00039315223693847656
ell 883, elapsed: 0.0005819797515869141
ell 882, elapsed: 0.00039505958557128906
ell 881, elapsed: 0.0004699230194091797
ell 880, elapsed: 0.0004470348358154297
ell 879, elapsed: 0.0006558895111083984
ell 878, elapsed: 0.0005829334259033203
ell 877, elapsed: 0.0005609989166259766
ell 876, elapsed: 0.00040912628173828125
ell 875, elapsed: 0.0005979537963867188
ell 874, elapsed: 0.0006110668182373047
ell 873, elapsed: 0.0007100105285644531
ell 872, elapsed: 0.0005049705505371094
ell 871, elapsed: 0.0006289482116699219
ell 870, elapsed: 0.0004799365997314453
ell 869, elapsed: 0.0004968643188476562
ell 868, elapsed: 0.00039505958557128906
ell 867, elapsed: 0.0005960464477539062
ell 866, elapsed: 0.0005040168762207031
ell 865, elapsed: 0.0004639625549316406
ell 864, elapsed: 0.0003991127014160156
ell 863, elapsed: 0.0005919933319091797
ell 862, elapsed: 0.0005350112915039062
ell 861, elapsed: 0.0006098747253417969
ell 860, elapsed: 0.0006201267242431641
ell 859, elapsed: 0.0006339550018310547
ell 858, elapsed: 0.0005159378051757812
ell 857, elapsed: 0.0007100105285644531
ell 856, elapsed: 0.0005359649658203125
ell 855, elapsed: 0.0007190704345703125
ell 854, elapsed: 0.0006198883056640625
ell 853, elapsed: 0.0005948543548583984
ell 852, elapsed: 0.0005280971527099609
ell 851, elapsed: 0.0005869865417480469
ell 850, elapsed: 0.0005409717559814453
ell 849, elapsed: 0.0006170272827148438
ell 848, elapsed: 0.00047898292541503906
ell 847, elapsed: 0.0006520748138427734
ell 846, elapsed: 0.0004711151123046875
ell 845, elapsed: 0.0006330013275146484
ell 844, elapsed: 0.0003941059112548828
ell 843, elapsed: 0.0007009506225585938
ell 842, elapsed: 0.0004940032958984375
ell 841, elapsed: 0.0004858970642089844
ell 840, elapsed: 0.00039005279541015625
ell 839, elapsed: 0.00045418739318847656
ell 838, elapsed: 0.00038909912109375
ell 837, elapsed: 0.00045108795166015625
ell 836, elapsed: 0.00038695335388183594
ell 835, elapsed: 0.0005519390106201172
ell 834, elapsed: 0.00039196014404296875
ell 833, elapsed: 0.0004589557647705078
ell 832, elapsed: 0.00039196014404296875
ell 831, elapsed: 0.0004467964172363281
ell 830, elapsed: 0.00039386749267578125
ell 829, elapsed: 0.0004489421844482422
ell 828, elapsed: 0.0003910064697265625
ell 827, elapsed: 0.00045490264892578125
ell 826, elapsed: 0.00046706199645996094
ell 825, elapsed: 0.0004620552062988281
ell 824, elapsed: 0.00038909912109375
ell 823, elapsed: 0.0004551410675048828
ell 822, elapsed: 0.00038814544677734375
ell 821, elapsed: 0.0004451274871826172
ell 820, elapsed: 0.00039005279541015625
ell 819, elapsed: 0.00045800209045410156
ell 818, elapsed: 0.0003879070281982422
ell 817, elapsed: 0.0005359649658203125
ell 816, elapsed: 0.00039386749267578125
ell 815, elapsed: 0.0004551410675048828
ell 814, elapsed: 0.0003910064697265625
ell 813, elapsed: 0.00045299530029296875
ell 812, elapsed: 0.00038909912109375
ell 811, elapsed: 0.0004520416259765625
ell 810, elapsed: 0.00039005279541015625
ell 809, elapsed: 0.0005249977111816406
ell 808, elapsed: 0.0004031658172607422
ell 807, elapsed: 0.0004611015319824219
ell 806, elapsed: 0.00039005279541015625
ell 805, elapsed: 0.00045299530029296875
ell 804, elapsed: 0.0003910064697265625
ell 803, elapsed: 0.000453948974609375
ell 802, elapsed: 0.0003910064697265625
ell 801, elapsed: 0.00045800209045410156
ell 800, elapsed: 0.0004889965057373047
ell 799, elapsed: 0.00045800209045410156
ell 798, elapsed: 0.00039005279541015625
ell 797, elapsed: 0.0004551410675048828
ell 796, elapsed: 0.00039005279541015625
ell 795, elapsed: 0.00045609474182128906
ell 794, elapsed: 0.00038814544677734375
ell 793, elapsed: 0.00045490264892578125
ell 792, elapsed: 0.0003879070281982422
ell 791, elapsed: 0.0005290508270263672
ell 790, elapsed: 0.00039315223693847656
ell 789, elapsed: 0.0004470348358154297
ell 788, elapsed: 0.0003879070281982422
ell 787, elapsed: 0.000453948974609375
ell 786, elapsed: 0.00038886070251464844
ell 785, elapsed: 0.00045180320739746094
ell 784, elapsed: 0.0003879070281982422
ell 783, elapsed: 0.00045609474182128906
ell 782, elapsed: 0.0003960132598876953
ell 781, elapsed: 0.0004611015319824219
ell 780, elapsed: 0.0003898143768310547
ell 779, elapsed: 0.0004470348358154297
ell 778, elapsed: 0.0003879070281982422
ell 777, elapsed: 0.00045800209045410156
ell 776, elapsed: 0.00038695335388183594
ell 775, elapsed: 0.0004520416259765625
ell 774, elapsed: 0.00045800209045410156
ell 773, elapsed: 0.0004620552062988281
ell 772, elapsed: 0.00039005279541015625
ell 771, elapsed: 0.00045609474182128906
ell 770, elapsed: 0.0003910064697265625
ell 769, elapsed: 0.00045108795166015625
ell 768, elapsed: 0.00039196014404296875
ell 767, elapsed: 0.0004458427429199219
ell 766, elapsed: 0.00039196014404296875
ell 765, elapsed: 0.0005419254302978516
ell 764, elapsed: 0.00039196014404296875
ell 763, elapsed: 0.0004620552062988281
ell 762, elapsed: 0.00039005279541015625
ell 761, elapsed: 0.0004589557647705078
ell 760, elapsed: 0.00038909912109375
ell 759, elapsed: 0.0004601478576660156
ell 758, elapsed: 0.00038814544677734375
ell 757, elapsed: 0.00044798851013183594
ell 756, elapsed: 0.000476837158203125
ell 755, elapsed: 0.0004658699035644531
ell 754, elapsed: 0.00038886070251464844
ell 753, elapsed: 0.00045490264892578125
ell 752, elapsed: 0.0003879070281982422
ell 751, elapsed: 0.000469207763671875
ell 750, elapsed: 0.00038909912109375
ell 749, elapsed: 0.0004551410675048828
ell 748, elapsed: 0.0005030632019042969
ell 747, elapsed: 0.0004520416259765625
ell 746, elapsed: 0.00039005279541015625
ell 745, elapsed: 0.0004611015319824219
ell 744, elapsed: 0.00038814544677734375
ell 743, elapsed: 0.0004551410675048828
ell 742, elapsed: 0.0003879070281982422
ell 741, elapsed: 0.0004680156707763672
ell 740, elapsed: 0.00038909912109375
ell 739, elapsed: 0.0005450248718261719
ell 738, elapsed: 0.00039005279541015625
ell 737, elapsed: 0.00045013427734375
ell 736, elapsed: 0.00038504600524902344
ell 735, elapsed: 0.0004470348358154297
ell 734, elapsed: 0.0003879070281982422
ell 733, elapsed: 0.0004551410675048828
ell 732, elapsed: 0.00038695335388183594
ell 731, elapsed: 0.0005261898040771484
ell 730, elapsed: 0.00039196014404296875
ell 729, elapsed: 0.0004658699035644531
ell 728, elapsed: 0.00039005279541015625
ell 727, elapsed: 0.00045800209045410156
ell 726, elapsed: 0.00038695335388183594
ell 725, elapsed: 0.00044989585876464844
ell 724, elapsed: 0.0003829002380371094
ell 723, elapsed: 0.00045800209045410156
ell 722, elapsed: 0.0004711151123046875
ell 721, elapsed: 0.0004639625549316406
ell 720, elapsed: 0.00039196014404296875
ell 719, elapsed: 0.00044989585876464844
ell 718, elapsed: 0.00038814544677734375
ell 717, elapsed: 0.00045108795166015625
ell 716, elapsed: 0.00039005279541015625
ell 715, elapsed: 0.00044918060302734375
ell 714, elapsed: 0.00039196014404296875
ell 713, elapsed: 0.0005280971527099609
ell 712, elapsed: 0.00038909912109375
ell 711, elapsed: 0.000453948974609375
ell 710, elapsed: 0.0003859996795654297
ell 709, elapsed: 0.000453948974609375
ell 708, elapsed: 0.00038695335388183594
ell 707, elapsed: 0.00045418739318847656
ell 706, elapsed: 0.00039005279541015625
ell 705, elapsed: 0.0004551410675048828
ell 704, elapsed: 0.00047707557678222656
ell 703, elapsed: 0.000453948974609375
ell 702, elapsed: 0.0003838539123535156
ell 701, elapsed: 0.00047016143798828125
ell 700, elapsed: 0.00039196014404296875
ell 699, elapsed: 0.0004649162292480469
ell 698, elapsed: 0.0003960132598876953
ell 697, elapsed: 0.0004620552062988281
ell 696, elapsed: 0.0004761219024658203
ell 695, elapsed: 0.00046896934509277344
ell 694, elapsed: 0.00038886070251464844
ell 693, elapsed: 0.00045800209045410156
ell 692, elapsed: 0.0003910064697265625
ell 691, elapsed: 0.0004649162292480469
ell 690, elapsed: 0.00040602684020996094
ell 689, elapsed: 0.0004630088806152344
ell 688, elapsed: 0.0004010200500488281
ell 687, elapsed: 0.00055694580078125
ell 686, elapsed: 0.000514984130859375
ell 685, elapsed: 0.0005748271942138672
ell 684, elapsed: 0.0003840923309326172
ell 683, elapsed: 0.000453948974609375
ell 682, elapsed: 0.00038814544677734375
ell 681, elapsed: 0.00045490264892578125
ell 680, elapsed: 0.00039696693420410156
ell 679, elapsed: 0.0005471706390380859
ell 678, elapsed: 0.0003910064697265625
ell 677, elapsed: 0.0004429817199707031
ell 676, elapsed: 0.0003819465637207031
ell 675, elapsed: 0.0004630088806152344
ell 674, elapsed: 0.0003859996795654297
ell 673, elapsed: 0.0004589557647705078
ell 672, elapsed: 0.00039386749267578125
ell 671, elapsed: 0.0005509853363037109
ell 670, elapsed: 0.0003859996795654297
ell 669, elapsed: 0.0004608631134033203
ell 668, elapsed: 0.0003910064697265625
ell 667, elapsed: 0.0004680156707763672
ell 666, elapsed: 0.000392913818359375
ell 665, elapsed: 0.0005631446838378906
ell 664, elapsed: 0.000514984130859375
ell 663, elapsed: 0.0005998611450195312
ell 662, elapsed: 0.00039315223693847656
ell 661, elapsed: 0.0004589557647705078
ell 660, elapsed: 0.0003871917724609375
ell 659, elapsed: 0.00045800209045410156
ell 658, elapsed: 0.0003859996795654297
ell 657, elapsed: 0.00046896934509277344
ell 656, elapsed: 0.0003910064697265625
ell 655, elapsed: 0.0004570484161376953
ell 654, elapsed: 0.0006630420684814453
ell 653, elapsed: 0.00057220458984375
ell 652, elapsed: 0.0005509853363037109
ell 651, elapsed: 0.0005440711975097656
ell 650, elapsed: 0.00038909912109375
ell 649, elapsed: 0.00045108795166015625
ell 648, elapsed: 0.0003859996795654297
ell 647, elapsed: 0.0005929470062255859
ell 646, elapsed: 0.0003979206085205078
ell 645, elapsed: 0.00046896934509277344
ell 644, elapsed: 0.0004000663757324219
ell 643, elapsed: 0.0004699230194091797
ell 642, elapsed: 0.00039505958557128906
ell 641, elapsed: 0.00045800209045410156
ell 640, elapsed: 0.0003972053527832031
ell 639, elapsed: 0.0005898475646972656
ell 638, elapsed: 0.0005049705505371094
ell 637, elapsed: 0.0006299018859863281
ell 636, elapsed: 0.0003991127014160156
ell 635, elapsed: 0.00046706199645996094
ell 634, elapsed: 0.00039505958557128906
ell 633, elapsed: 0.0004680156707763672
ell 632, elapsed: 0.0004000663757324219
ell 631, elapsed: 0.0005869865417480469
ell 630, elapsed: 0.00039696693420410156
ell 629, elapsed: 0.0004639625549316406
ell 628, elapsed: 0.0003941059112548828
ell 627, elapsed: 0.00045800209045410156
ell 626, elapsed: 0.00039696693420410156
ell 625, elapsed: 0.00046706199645996094
ell 624, elapsed: 0.00039696693420410156
ell 623, elapsed: 0.000637054443359375
ell 622, elapsed: 0.00039696693420410156
ell 621, elapsed: 0.0004718303680419922
ell 620, elapsed: 0.0003998279571533203
ell 619, elapsed: 0.00047707557678222656
ell 618, elapsed: 0.0003981590270996094
ell 617, elapsed: 0.0004649162292480469
ell 616, elapsed: 0.0003981590270996094
ell 615, elapsed: 0.0004718303680419922
ell 614, elapsed: 0.0005550384521484375
ell 613, elapsed: 0.0005910396575927734
ell 612, elapsed: 0.0003859996795654297
ell 611, elapsed: 0.0004520416259765625
ell 610, elapsed: 0.00039505958557128906
ell 609, elapsed: 0.0004780292510986328
ell 608, elapsed: 0.0005421638488769531
ell 607, elapsed: 0.0006210803985595703
ell 606, elapsed: 0.00040078163146972656
ell 605, elapsed: 0.0004658699035644531
ell 604, elapsed: 0.0003941059112548828
ell 603, elapsed: 0.0004642009735107422
ell 602, elapsed: 0.00039696693420410156
ell 601, elapsed: 0.00045990943908691406
ell 600, elapsed: 0.00039005279541015625
ell 599, elapsed: 0.000453948974609375
ell 598, elapsed: 0.00041604042053222656
ell 597, elapsed: 0.0004589557647705078
ell 596, elapsed: 0.00038504600524902344
ell 595, elapsed: 0.0004589557647705078
ell 594, elapsed: 0.00039005279541015625
ell 593, elapsed: 0.00044918060302734375
ell 592, elapsed: 0.0004329681396484375
ell 591, elapsed: 0.0004909038543701172
ell 590, elapsed: 0.0004401206970214844
ell 589, elapsed: 0.0004589557647705078
ell 588, elapsed: 0.00039887428283691406
ell 587, elapsed: 0.0004570484161376953
ell 586, elapsed: 0.0003910064697265625
ell 585, elapsed: 0.0006330013275146484
ell 584, elapsed: 0.0005390644073486328
ell 583, elapsed: 0.0005848407745361328
ell 582, elapsed: 0.0005109310150146484
ell 581, elapsed: 0.00045299530029296875
ell 580, elapsed: 0.0003859996795654297
ell 579, elapsed: 0.0004410743713378906
ell 578, elapsed: 0.0003769397735595703
ell 577, elapsed: 0.0004410743713378906
ell 576, elapsed: 0.0003840923309326172
ell 575, elapsed: 0.0006020069122314453
ell 574, elapsed: 0.0004711151123046875
ell 573, elapsed: 0.0004639625549316406
ell 572, elapsed: 0.00045609474182128906
ell 571, elapsed: 0.0006430149078369141
ell 570, elapsed: 0.0005102157592773438
ell 569, elapsed: 0.0005719661712646484
ell 568, elapsed: 0.0003879070281982422
ell 567, elapsed: 0.00045299530029296875
ell 566, elapsed: 0.0004019737243652344
ell 565, elapsed: 0.0006380081176757812
ell 564, elapsed: 0.0004980564117431641
ell 563, elapsed: 0.0006928443908691406
ell 562, elapsed: 0.0005159378051757812
ell 561, elapsed: 0.0004570484161376953
ell 560, elapsed: 0.0005831718444824219
ell 559, elapsed: 0.0005857944488525391
ell 558, elapsed: 0.0003840923309326172
ell 557, elapsed: 0.0004611015319824219
ell 556, elapsed: 0.0005459785461425781
ell 555, elapsed: 0.0005900859832763672
ell 554, elapsed: 0.0005371570587158203
ell 553, elapsed: 0.0005421638488769531
ell 552, elapsed: 0.0005891323089599609
ell 551, elapsed: 0.0005140304565429688
ell 550, elapsed: 0.0005748271942138672
ell 549, elapsed: 0.0007691383361816406
ell 548, elapsed: 0.00045108795166015625
ell 547, elapsed: 0.0004849433898925781
ell 546, elapsed: 0.0005621910095214844
ell 545, elapsed: 0.0005571842193603516
ell 544, elapsed: 0.0004470348358154297
ell 543, elapsed: 0.0006818771362304688
ell 542, elapsed: 0.000514984130859375
ell 541, elapsed: 0.0004608631134033203
ell 540, elapsed: 0.0003688335418701172
ell 539, elapsed: 0.0004508495330810547
ell 538, elapsed: 0.0004100799560546875
ell 537, elapsed: 0.000598907470703125
ell 536, elapsed: 0.0006101131439208984
ell 535, elapsed: 0.0006990432739257812
ell 534, elapsed: 0.0005159378051757812
ell 533, elapsed: 0.0006358623504638672
ell 532, elapsed: 0.0005018711090087891
ell 531, elapsed: 0.0004570484161376953
ell 530, elapsed: 0.00038886070251464844
ell 529, elapsed: 0.0004620552062988281
ell 528, elapsed: 0.0003809928894042969
ell 527, elapsed: 0.0005779266357421875
ell 526, elapsed: 0.0005509853363037109
ell 525, elapsed: 0.0004649162292480469
ell 524, elapsed: 0.0004088878631591797
ell 523, elapsed: 0.0006721019744873047
ell 522, elapsed: 0.0005660057067871094
ell 521, elapsed: 0.0005919933319091797
ell 520, elapsed: 0.0005240440368652344
ell 519, elapsed: 0.0004680156707763672
ell 518, elapsed: 0.0003941059112548828
ell 517, elapsed: 0.0006570816040039062
ell 516, elapsed: 0.0005481243133544922
ell 515, elapsed: 0.0006051063537597656
ell 514, elapsed: 0.00038695335388183594
ell 513, elapsed: 0.0006310939788818359
ell 512, elapsed: 0.0005359649658203125
ell 511, elapsed: 0.0006430149078369141
ell 510, elapsed: 0.0005509853363037109
ell 509, elapsed: 0.00046896934509277344
ell 508, elapsed: 0.0004918575286865234
ell 507, elapsed: 0.0007059574127197266
ell 506, elapsed: 0.0005371570587158203
ell 505, elapsed: 0.0004611015319824219
ell 504, elapsed: 0.000392913818359375
ell 503, elapsed: 0.0004889965057373047
ell 502, elapsed: 0.00039005279541015625
ell 501, elapsed: 0.0006670951843261719
ell 500, elapsed: 0.0005359649658203125
ell 499, elapsed: 0.0004639625549316406
ell 498, elapsed: 0.00045609474182128906
ell 497, elapsed: 0.0007140636444091797
ell 496, elapsed: 0.0006799697875976562
ell 495, elapsed: 0.0007131099700927734
ell 494, elapsed: 0.0005199909210205078
ell 493, elapsed: 0.0006210803985595703
ell 492, elapsed: 0.00047707557678222656
ell 491, elapsed: 0.0005939006805419922
ell 490, elapsed: 0.0006809234619140625
ell 489, elapsed: 0.0007069110870361328
ell 488, elapsed: 0.0004379749298095703
ell 487, elapsed: 0.0006489753723144531
ell 486, elapsed: 0.00046896934509277344
ell 485, elapsed: 0.0004680156707763672
ell 484, elapsed: 0.0004661083221435547
ell 483, elapsed: 0.0007760524749755859
ell 482, elapsed: 0.0006208419799804688
ell 481, elapsed: 0.0005631446838378906
ell 480, elapsed: 0.0005528926849365234
ell 479, elapsed: 0.0005209445953369141
ell 478, elapsed: 0.0003719329833984375
ell 477, elapsed: 0.0005090236663818359
ell 476, elapsed: 0.00039386749267578125
ell 475, elapsed: 0.0006442070007324219
ell 474, elapsed: 0.0004520416259765625
ell 473, elapsed: 0.0006310939788818359
ell 472, elapsed: 0.00045299530029296875
ell 471, elapsed: 0.0004470348358154297
ell 470, elapsed: 0.0003819465637207031
ell 469, elapsed: 0.0007109642028808594
ell 468, elapsed: 0.0004968643188476562
ell 467, elapsed: 0.00045490264892578125
ell 466, elapsed: 0.0003809928894042969
ell 465, elapsed: 0.0005748271942138672
ell 464, elapsed: 0.0004971027374267578
ell 463, elapsed: 0.00045800209045410156
ell 462, elapsed: 0.0006039142608642578
ell 461, elapsed: 0.0005998611450195312
ell 460, elapsed: 0.0003809928894042969
ell 459, elapsed: 0.0004639625549316406
ell 458, elapsed: 0.0003871917724609375
ell 457, elapsed: 0.000453948974609375
ell 456, elapsed: 0.0003819465637207031
ell 455, elapsed: 0.0004489421844482422
ell 454, elapsed: 0.0003838539123535156
ell 453, elapsed: 0.0004661083221435547
ell 452, elapsed: 0.00039196014404296875
ell 451, elapsed: 0.0004589557647705078
ell 450, elapsed: 0.00038504600524902344
ell 449, elapsed: 0.00045490264892578125
ell 448, elapsed: 0.00038504600524902344
ell 447, elapsed: 0.0004680156707763672
ell 446, elapsed: 0.0003840923309326172
ell 445, elapsed: 0.0005979537963867188
ell 444, elapsed: 0.00038886070251464844
ell 443, elapsed: 0.00045800209045410156
ell 442, elapsed: 0.00038814544677734375
ell 441, elapsed: 0.00045299530029296875
ell 440, elapsed: 0.00038695335388183594
ell 439, elapsed: 0.0004520416259765625
ell 438, elapsed: 0.00039505958557128906
ell 437, elapsed: 0.0005640983581542969
ell 436, elapsed: 0.0003898143768310547
ell 435, elapsed: 0.0004630088806152344
ell 434, elapsed: 0.0003859996795654297
ell 433, elapsed: 0.0004589557647705078
ell 432, elapsed: 0.0003910064697265625
ell 431, elapsed: 0.0004591941833496094
ell 430, elapsed: 0.00038909912109375
ell 429, elapsed: 0.0004630088806152344
ell 428, elapsed: 0.0005130767822265625
ell 427, elapsed: 0.0004611015319824219
ell 426, elapsed: 0.000392913818359375
ell 425, elapsed: 0.0004591941833496094
ell 424, elapsed: 0.00038814544677734375
ell 423, elapsed: 0.0004589557647705078
ell 422, elapsed: 0.00038313865661621094
ell 421, elapsed: 0.00045680999755859375
ell 420, elapsed: 0.0003859996795654297
ell 419, elapsed: 0.00046706199645996094
ell 418, elapsed: 0.00038504600524902344
ell 417, elapsed: 0.000453948974609375
ell 416, elapsed: 0.00038886070251464844
ell 415, elapsed: 0.0004558563232421875
ell 414, elapsed: 0.00038313865661621094
ell 413, elapsed: 0.0004630088806152344
ell 412, elapsed: 0.000392913818359375
ell 411, elapsed: 0.0005910396575927734
ell 410, elapsed: 0.0003960132598876953
ell 409, elapsed: 0.0004639625549316406
ell 408, elapsed: 0.00038886070251464844
ell 407, elapsed: 0.00044989585876464844
ell 406, elapsed: 0.00039196014404296875
ell 405, elapsed: 0.0004570484161376953
ell 404, elapsed: 0.00039005279541015625
ell 403, elapsed: 0.0005970001220703125
ell 402, elapsed: 0.00039005279541015625
ell 401, elapsed: 0.0004570484161376953
ell 400, elapsed: 0.00038695335388183594
ell 399, elapsed: 0.0004589557647705078
ell 398, elapsed: 0.0003879070281982422
ell 397, elapsed: 0.00045299530029296875
ell 396, elapsed: 0.00039196014404296875
ell 395, elapsed: 0.000453948974609375
ell 394, elapsed: 0.0005328655242919922
ell 393, elapsed: 0.0004620552062988281
ell 392, elapsed: 0.00039315223693847656
ell 391, elapsed: 0.00045990943908691406
ell 390, elapsed: 0.0003898143768310547
ell 389, elapsed: 0.00045680999755859375
ell 388, elapsed: 0.00038886070251464844
ell 387, elapsed: 0.0004730224609375
ell 386, elapsed: 0.0005290508270263672
ell 385, elapsed: 0.0004611015319824219
ell 384, elapsed: 0.00039196014404296875
ell 383, elapsed: 0.00045800209045410156
ell 382, elapsed: 0.00039196014404296875
ell 381, elapsed: 0.00045490264892578125
ell 380, elapsed: 0.00038886070251464844
ell 379, elapsed: 0.00045990943908691406
ell 378, elapsed: 0.00038909912109375
ell 377, elapsed: 0.0005939006805419922
ell 376, elapsed: 0.00039005279541015625
ell 375, elapsed: 0.00045800209045410156
ell 374, elapsed: 0.00039196014404296875
ell 373, elapsed: 0.00045800209045410156
ell 372, elapsed: 0.0003829002380371094
ell 371, elapsed: 0.0004611015319824219
ell 370, elapsed: 0.00039696693420410156
ell 369, elapsed: 0.0006229877471923828
ell 368, elapsed: 0.00039196014404296875
ell 367, elapsed: 0.00045490264892578125
ell 366, elapsed: 0.00038504600524902344
ell 365, elapsed: 0.00044918060302734375
ell 364, elapsed: 0.00038313865661621094
ell 363, elapsed: 0.00044798851013183594
ell 362, elapsed: 0.00038909912109375
ell 361, elapsed: 0.00045299530029296875
ell 360, elapsed: 0.0005159378051757812
ell 359, elapsed: 0.0004601478576660156
ell 358, elapsed: 0.00038886070251464844
ell 357, elapsed: 0.0004558563232421875
ell 356, elapsed: 0.00038886070251464844
ell 355, elapsed: 0.00045800209045410156
ell 354, elapsed: 0.00038504600524902344
ell 353, elapsed: 0.00045108795166015625
ell 352, elapsed: 0.00051116943359375
ell 351, elapsed: 0.0004520416259765625
ell 350, elapsed: 0.00037980079650878906
ell 349, elapsed: 0.00044989585876464844
ell 348, elapsed: 0.0003838539123535156
ell 347, elapsed: 0.0004608631134033203
ell 346, elapsed: 0.0003859996795654297
ell 345, elapsed: 0.00045013427734375
ell 344, elapsed: 0.0003859996795654297
ell 343, elapsed: 0.0005741119384765625
ell 342, elapsed: 0.0003838539123535156
ell 341, elapsed: 0.0004551410675048828
ell 340, elapsed: 0.0003790855407714844
ell 339, elapsed: 0.0004570484161376953
ell 338, elapsed: 0.00038909912109375
ell 337, elapsed: 0.0004589557647705078
ell 336, elapsed: 0.00038504600524902344
ell 335, elapsed: 0.0005829334259033203
ell 334, elapsed: 0.0003859996795654297
ell 333, elapsed: 0.00045490264892578125
ell 332, elapsed: 0.00038504600524902344
ell 331, elapsed: 0.0004520416259765625
ell 330, elapsed: 0.00038814544677734375
ell 329, elapsed: 0.00045490264892578125
ell 328, elapsed: 0.00039005279541015625
ell 327, elapsed: 0.0004601478576660156
ell 326, elapsed: 0.0005140304565429688
ell 325, elapsed: 0.0004611015319824219
ell 324, elapsed: 0.000392913818359375
ell 323, elapsed: 0.0004589557647705078
ell 322, elapsed: 0.000392913818359375
ell 321, elapsed: 0.00044989585876464844
ell 320, elapsed: 0.0003910064697265625
ell 319, elapsed: 0.0004551410675048828
ell 318, elapsed: 0.0003910064697265625
ell 317, elapsed: 0.0005729198455810547
ell 316, elapsed: 0.0003910064697265625
ell 315, elapsed: 0.00045418739318847656
ell 314, elapsed: 0.0003879070281982422
ell 313, elapsed: 0.00045609474182128906
ell 312, elapsed: 0.00038909912109375
ell 311, elapsed: 0.0004489421844482422
ell 310, elapsed: 0.00037789344787597656
ell 309, elapsed: 0.0005171298980712891
ell 308, elapsed: 0.0004909038543701172
ell 307, elapsed: 0.0006089210510253906
ell 306, elapsed: 0.0003871917724609375
ell 305, elapsed: 0.00044989585876464844
ell 304, elapsed: 0.00038909912109375
ell 303, elapsed: 0.0004520416259765625
ell 302, elapsed: 0.0003871917724609375
ell 301, elapsed: 0.0005388259887695312
ell 300, elapsed: 0.0003829002380371094
ell 299, elapsed: 0.0005710124969482422
ell 298, elapsed: 0.0006070137023925781
ell 297, elapsed: 0.0005328655242919922
ell 296, elapsed: 0.0003879070281982422
ell 295, elapsed: 0.000453948974609375
ell 294, elapsed: 0.0004811286926269531
ell 293, elapsed: 0.0007331371307373047
ell 292, elapsed: 0.00039005279541015625
ell 291, elapsed: 0.00045299530029296875
ell 290, elapsed: 0.0005090236663818359
ell 289, elapsed: 0.0005888938903808594
ell 288, elapsed: 0.0003859996795654297
ell 287, elapsed: 0.0005359649658203125
ell 286, elapsed: 0.0006220340728759766
ell 285, elapsed: 0.00045108795166015625
ell 284, elapsed: 0.00038504600524902344
ell 283, elapsed: 0.00044798851013183594
ell 282, elapsed: 0.0003871917724609375
ell 281, elapsed: 0.0004470348358154297
ell 280, elapsed: 0.00038504600524902344
ell 279, elapsed: 0.0004470348358154297
ell 278, elapsed: 0.00038909912109375
ell 277, elapsed: 0.0005300045013427734
ell 276, elapsed: 0.0003879070281982422
ell 275, elapsed: 0.00044918060302734375
ell 274, elapsed: 0.0004780292510986328
ell 273, elapsed: 0.0006098747253417969
ell 272, elapsed: 0.0003960132598876953
ell 271, elapsed: 0.0004467964172363281
ell 270, elapsed: 0.0003859996795654297
ell 269, elapsed: 0.0005350112915039062
ell 268, elapsed: 0.00039196014404296875
ell 267, elapsed: 0.00045299530029296875
ell 266, elapsed: 0.0003910064697265625
ell 265, elapsed: 0.00045800209045410156
ell 264, elapsed: 0.00038886070251464844
ell 263, elapsed: 0.00045299530029296875
ell 262, elapsed: 0.0003859996795654297
ell 261, elapsed: 0.00045108795166015625
ell 260, elapsed: 0.0005400180816650391
ell 259, elapsed: 0.0006291866302490234
ell 258, elapsed: 0.0005178451538085938
ell 257, elapsed: 0.0005738735198974609
ell 256, elapsed: 0.0005249977111816406
ell 255, elapsed: 0.0005822181701660156
ell 254, elapsed: 0.0006208419799804688
ell 253, elapsed: 0.0005481243133544922
ell 252, elapsed: 0.0005619525909423828
ell 251, elapsed: 0.0005400180816650391
ell 250, elapsed: 0.00039005279541015625
ell 249, elapsed: 0.0004520416259765625
ell 248, elapsed: 0.00038909912109375
ell 247, elapsed: 0.00045180320739746094
ell 246, elapsed: 0.0004868507385253906
ell 245, elapsed: 0.0004570484161376953
ell 244, elapsed: 0.0003838539123535156
ell 243, elapsed: 0.0004448890686035156
ell 242, elapsed: 0.0003829002380371094
ell 241, elapsed: 0.00043702125549316406
ell 240, elapsed: 0.0003769397735595703
ell 239, elapsed: 0.0004429817199707031
ell 238, elapsed: 0.00039005279541015625
ell 237, elapsed: 0.0005350112915039062
ell 236, elapsed: 0.0003941059112548828
ell 235, elapsed: 0.00044798851013183594
ell 234, elapsed: 0.00038814544677734375
ell 233, elapsed: 0.0004489421844482422
ell 232, elapsed: 0.0003809928894042969
ell 231, elapsed: 0.0004401206970214844
ell 230, elapsed: 0.00037789344787597656
ell 229, elapsed: 0.00044989585876464844
ell 228, elapsed: 0.0005011558532714844
ell 227, elapsed: 0.0005931854248046875
ell 226, elapsed: 0.0005049705505371094
ell 225, elapsed: 0.0006089210510253906
ell 224, elapsed: 0.0005099773406982422
ell 223, elapsed: 0.0005638599395751953
ell 222, elapsed: 0.0006010532379150391
ell 221, elapsed: 0.0004930496215820312
ell 220, elapsed: 0.00038504600524902344
ell 219, elapsed: 0.000453948974609375
ell 218, elapsed: 0.0003840923309326172
ell 217, elapsed: 0.0004520416259765625
ell 216, elapsed: 0.0003829002380371094
ell 215, elapsed: 0.00044798851013183594
ell 214, elapsed: 0.00038313865661621094
ell 213, elapsed: 0.0005340576171875
ell 212, elapsed: 0.00038504600524902344
ell 211, elapsed: 0.0004458427429199219
ell 210, elapsed: 0.0003819465637207031
ell 209, elapsed: 0.00045013427734375
ell 208, elapsed: 0.0003819465637207031
ell 207, elapsed: 0.0004489421844482422
ell 206, elapsed: 0.0003840923309326172
ell 205, elapsed: 0.00045299530029296875
ell 204, elapsed: 0.00047516822814941406
ell 203, elapsed: 0.0006139278411865234
ell 202, elapsed: 0.0004630088806152344
ell 201, elapsed: 0.00045990943908691406
ell 200, elapsed: 0.0005559921264648438
ell 199, elapsed: 0.0006289482116699219
ell 198, elapsed: 0.0004038810729980469
ell 197, elapsed: 0.0007469654083251953
ell 196, elapsed: 0.0004229545593261719
ell 195, elapsed: 0.0005719661712646484
ell 194, elapsed: 0.0005118846893310547
ell 193, elapsed: 0.0004458427429199219
ell 192, elapsed: 0.00038695335388183594
ell 191, elapsed: 0.00045013427734375
ell 190, elapsed: 0.00038695335388183594
ell 189, elapsed: 0.0005300045013427734
ell 188, elapsed: 0.0003859996795654297
ell 187, elapsed: 0.00045180320739746094
ell 186, elapsed: 0.0003840923309326172
ell 185, elapsed: 0.0004470348358154297
ell 184, elapsed: 0.00038695335388183594
ell 183, elapsed: 0.0004489421844482422
ell 182, elapsed: 0.0003829002380371094
ell 181, elapsed: 0.000537872314453125
ell 180, elapsed: 0.00039196014404296875
ell 179, elapsed: 0.0006310939788818359
ell 178, elapsed: 0.0005807876586914062
ell 177, elapsed: 0.0005991458892822266
ell 176, elapsed: 0.0005459785461425781
ell 175, elapsed: 0.000720977783203125
ell 174, elapsed: 0.0005381107330322266
ell 173, elapsed: 0.0004658699035644531
ell 172, elapsed: 0.0003879070281982422
ell 171, elapsed: 0.0004410743713378906
ell 170, elapsed: 0.0003848075866699219
ell 169, elapsed: 0.0004508495330810547
ell 168, elapsed: 0.00038695335388183594
ell 167, elapsed: 0.0004489421844482422
ell 166, elapsed: 0.0004658699035644531
ell 165, elapsed: 0.0004551410675048828
ell 164, elapsed: 0.00039005279541015625
ell 163, elapsed: 0.0004601478576660156
ell 162, elapsed: 0.00044798851013183594
ell 161, elapsed: 0.0007150173187255859
ell 160, elapsed: 0.00043892860412597656
ell 159, elapsed: 0.00044798851013183594
ell 158, elapsed: 0.00048804283142089844
ell 157, elapsed: 0.0004620552062988281
ell 156, elapsed: 0.0004658699035644531
ell 155, elapsed: 0.0006270408630371094
ell 154, elapsed: 0.0005009174346923828
ell 153, elapsed: 0.0005829334259033203
ell 152, elapsed: 0.0003829002380371094
ell 151, elapsed: 0.0004451274871826172
ell 150, elapsed: 0.011506080627441406
ell 149, elapsed: 0.0005099773406982422
ell 148, elapsed: 0.0003941059112548828
ell 147, elapsed: 0.00045990943908691406
ell 146, elapsed: 0.0003879070281982422
ell 145, elapsed: 0.0004611015319824219
ell 144, elapsed: 0.00038909912109375
ell 143, elapsed: 0.0004611015319824219
ell 142, elapsed: 0.0003910064697265625
ell 141, elapsed: 0.0004589557647705078
ell 140, elapsed: 0.000492095947265625
ell 139, elapsed: 0.0004608631134033203
ell 138, elapsed: 0.00038814544677734375
ell 137, elapsed: 0.0004520416259765625
ell 136, elapsed: 0.00039005279541015625
ell 135, elapsed: 0.00045108795166015625
ell 134, elapsed: 0.0003879070281982422
ell 133, elapsed: 0.00045418739318847656
ell 132, elapsed: 0.00039196014404296875
ell 131, elapsed: 0.0005810260772705078
ell 130, elapsed: 0.0005080699920654297
ell 129, elapsed: 0.0004520416259765625
ell 128, elapsed: 0.00039005279541015625
ell 127, elapsed: 0.00045299530029296875
ell 126, elapsed: 0.0003871917724609375
ell 125, elapsed: 0.0004589557647705078
ell 124, elapsed: 0.00039315223693847656
ell 123, elapsed: 0.0004899501800537109
ell 122, elapsed: 0.0003819465637207031
ell 121, elapsed: 0.0005490779876708984
ell 120, elapsed: 0.0005240440368652344
ell 119, elapsed: 0.0004470348358154297
ell 118, elapsed: 0.0003921985626220703
ell 117, elapsed: 0.0004608631134033203
ell 116, elapsed: 0.00039696693420410156
ell 115, elapsed: 0.0004839897155761719
ell 114, elapsed: 0.0003879070281982422
ell 113, elapsed: 0.000453948974609375
ell 112, elapsed: 0.00038695335388183594
ell 111, elapsed: 0.0004410743713378906
ell 110, elapsed: 0.00038313865661621094
ell 109, elapsed: 0.0005769729614257812
ell 108, elapsed: 0.0005102157592773438
ell 107, elapsed: 0.0004658699035644531
ell 106, elapsed: 0.000392913818359375
ell 105, elapsed: 0.0004620552062988281
ell 104, elapsed: 0.0003921985626220703
ell 103, elapsed: 0.0004630088806152344
ell 102, elapsed: 0.0003979206085205078
ell 101, elapsed: 0.00045800209045410156
ell 100, elapsed: 0.000392913818359375
ell 99, elapsed: 0.0004620552062988281
ell 98, elapsed: 0.00041103363037109375
ell 97, elapsed: 0.0004639625549316406
ell 96, elapsed: 0.00039196014404296875
ell 95, elapsed: 0.0005729198455810547
ell 94, elapsed: 0.0005249977111816406
ell 93, elapsed: 0.00045609474182128906
ell 92, elapsed: 0.0003960132598876953
ell 91, elapsed: 0.0004968643188476562
ell 90, elapsed: 0.0004990100860595703
ell 89, elapsed: 0.0006480216979980469
ell 88, elapsed: 0.0003941059112548828
ell 87, elapsed: 0.00045490264892578125
ell 86, elapsed: 0.0003879070281982422
ell 85, elapsed: 0.0004608631134033203
ell 84, elapsed: 0.0003941059112548828
ell 83, elapsed: 0.0007638931274414062
ell 82, elapsed: 0.0005688667297363281
ell 81, elapsed: 0.0005869865417480469
ell 80, elapsed: 0.0005021095275878906
ell 79, elapsed: 0.00043487548828125
ell 78, elapsed: 0.0005390644073486328
ell 77, elapsed: 0.000598907470703125
ell 76, elapsed: 0.00036406517028808594
ell 75, elapsed: 0.00047087669372558594
ell 74, elapsed: 0.0005500316619873047
ell 73, elapsed: 0.0007190704345703125
ell 72, elapsed: 0.0006198883056640625
ell 71, elapsed: 0.0007140636444091797
ell 70, elapsed: 0.0005030632019042969
ell 69, elapsed: 0.0004761219024658203
ell 68, elapsed: 0.0005609989166259766
ell 67, elapsed: 0.0005640983581542969
ell 66, elapsed: 0.0003910064697265625
ell 65, elapsed: 0.0006670951843261719
ell 64, elapsed: 0.0006029605865478516
ell 63, elapsed: 0.0007219314575195312
ell 62, elapsed: 0.0005199909210205078
ell 61, elapsed: 0.0004649162292480469
ell 60, elapsed: 0.0005421638488769531
ell 59, elapsed: 0.0005698204040527344
ell 58, elapsed: 0.0003609657287597656
ell 57, elapsed: 0.0006539821624755859
ell 56, elapsed: 0.0006330013275146484
ell 55, elapsed: 0.0007269382476806641
ell 54, elapsed: 0.0006299018859863281
ell 53, elapsed: 0.0007028579711914062
ell 52, elapsed: 0.0006101131439208984
ell 51, elapsed: 0.0005700588226318359
ell 50, elapsed: 0.0005879402160644531
ell 49, elapsed: 0.0005598068237304688
ell 48, elapsed: 0.00040411949157714844
ell 47, elapsed: 0.0006260871887207031
ell 46, elapsed: 0.000453948974609375
ell 45, elapsed: 0.00046181678771972656
ell 44, elapsed: 0.0005018711090087891
ell 43, elapsed: 0.0006039142608642578
ell 42, elapsed: 0.00039505958557128906
ell 41, elapsed: 0.0005660057067871094
ell 40, elapsed: 0.0006220340728759766
ell 39, elapsed: 0.0006968975067138672
ell 38, elapsed: 0.0005471706390380859
ell 37, elapsed: 0.00061798095703125
ell 36, elapsed: 0.0006520748138427734
ell 35, elapsed: 0.0005729198455810547
ell 34, elapsed: 0.0005669593811035156
ell 33, elapsed: 0.000537872314453125
ell 32, elapsed: 0.00039315223693847656
ell 31, elapsed: 0.0005910396575927734
ell 30, elapsed: 0.0005049705505371094
ell 29, elapsed: 0.0006039142608642578
ell 28, elapsed: 0.0006251335144042969
ell 27, elapsed: 0.0007100105285644531
ell 26, elapsed: 0.000576019287109375
ell 25, elapsed: 0.0006239414215087891
ell 24, elapsed: 0.0005240440368652344
ell 23, elapsed: 0.0007810592651367188
ell 22, elapsed: 0.0006201267242431641
ell 21, elapsed: 0.0006198883056640625
ell 20, elapsed: 0.00039505958557128906
ell 19, elapsed: 0.0006399154663085938
ell 18, elapsed: 0.0004611015319824219
ell 17, elapsed: 0.0006709098815917969
ell 16, elapsed: 0.0004930496215820312
ell 15, elapsed: 0.0004630088806152344
ell 14, elapsed: 0.00039505958557128906
ell 13, elapsed: 0.00045609474182128906
ell 12, elapsed: 0.00039505958557128906
ell 11, elapsed: 0.0006589889526367188
ell 10, elapsed: 0.0006589889526367188
ell 9, elapsed: 0.0006139278411865234
ell 8, elapsed: 0.0005691051483154297
ell 7, elapsed: 0.0007119178771972656
ell 6, elapsed: 0.0005080699920654297
ell 5, elapsed: 0.00046515464782714844
ell 4, elapsed: 0.0005328655242919922
ell 3, elapsed: 0.0005829334259033203
ell 2, elapsed: 0.00039505958557128906
ell 1, elapsed: 0.00046896934509277344
ell 0, elapsed: 0.0005300045013427734
  0.633083 seconds (41.19 k allocations: 2.940 MiB)
elapsed: 0.0007259845733642578
step:          0.065182 sec (0 allocations: 0 byte, 0.0% gc time)
swapping:      0.000928 sec (0 allocations: 0 byte, 0.0% gc time)
calc_Mellell!: 0.011467 sec (0 allocations: 0 byte, 0.0% gc time)
  t0 :  0.002826 sec (0 allocations: 0 byte, 0.0% gc time)
  tm2 : 0.108785 sec (0 allocations: 0 byte, 0.0% gc time)
  tm2s: 0.002049 sec (0 allocations: 0 byte, 0.0% gc time)
  tm4 : 0.26006 sec (0 allocations: 0 byte, 0.0% gc time)
  tp2 : 0.0 sec (0 allocations: 0 byte, 0.0% gc time)
  tp2s: 0.0 sec (0 allocations: 0 byte, 0.0% gc time)
  tp4 : 0.0 sec (0 allocations: 0 byte, 0.0% gc time)
calc_wtdll!:   0.391877 sec (9.874 k allocations: 1.043 MB, 0.0% gc time)
calc_wljj!:    0.044044 sec (689 allocations: 10.766 KB, 0.0% gc time)
mult_prefac!:  0.0 sec (0 allocations: 0 byte, 0.0% gc time)
convert:       0.0 sec (0 allocations: 0 byte, 0.0% gc time)
write:         0.04817 sec (0 allocations: 0 byte, 0.0% gc time)
test_rand_2f1: 0.0 sec (0 allocations: 0 byte, 0.0% gc time)
Closing outfile out/Ml21-cache.bin...   0.000046 seconds
  0.000693 seconds (52 allocations: 28.297 KiB)
make_phi():   0.011068 seconds (8.33 k allocations: 250.531 KiB)
  0.846654 seconds (742.80 k allocations: 63.366 MiB, 1.12% gc time)
tskip:       0.001126 sec (0 allocations: 0 byte, 0.0% gc time)
tread:       0.03207 sec (19 allocations: 10.688 KB, 0.0% gc time)
tmultphi:    0.018173 sec (0 allocations: 0 byte, 0.0% gc time)
tbrfft:      0.653154 sec (605.704 k allocations: 60.176 MB, 1.46% gc time)
tmultprefac: 0.055414 sec (0 allocations: 0 byte, 0.0% gc time)
toutfunc:    0.084052 sec (129.905 k allocations: 2.421 MB, 0.0% gc time)
Testing R=1.0 ... passed
Calculating fmax: 
  dlrec    = 4
  dlrecRg1 = -4
  q=1.1, R=0.9:	  0.472620 seconds (116.47 k allocations: 15.614 MiB)

  0.475040 seconds (116.50 k allocations: 15.647 MiB)
ℓ = 1202
Δℓ = 4
ΔℓRg1 = -4
N = 1600
q = 1.1
kmin = 1.0e-5
kmax = 100000.00000000004
χ0 = 0.023029999999999995
RR = RR.tsv
ℓmax = ℓmax.bin
f21 = f21.bin
kmin = 1.0e-5
kmax = 100000.0
dlrec    = 4
dlrecRg1 = -4
Output size: 5741568 bytes = 0.005347251892089844 GiB
Output size: 51264 bytes = 4.774332046508789e-5 GiB
Reading 'out/F21EllCache'...   0.001390 seconds (267 allocations: 84.656 KiB)
ellmax: 1202
lmaxcache: 1202
fell[:,1,1] = Complex{Float64}[1.3482014726274674e-57 - 3.302141236118086e-73im, 1.357860004724329e-57 - 3.3257978169518355e-73im]
ell 1202, elapsed: 2.3126602172851562e-5
ell 1201, elapsed: 0.0005481243133544922
ell 1200, elapsed: 0.0005500316619873047
ell 1199, elapsed: 0.0008528232574462891
ell 1198, elapsed: 0.00047898292541503906
ell 1002, elapsed: 0.01125192642211914
ell 1001, elapsed: 0.00035190582275390625
ell 1000, elapsed: 0.00035500526428222656
ell 999, elapsed: 0.0003590583801269531
ell 998, elapsed: 0.0005080699920654297
ell 902, elapsed: 0.006326913833618164
ell 901, elapsed: 0.0005419254302978516
ell 900, elapsed: 0.00044798851013183594
ell 899, elapsed: 0.0004961490631103516
ell 898, elapsed: 0.0004639625549316406
ell 802, elapsed: 0.006067991256713867
ell 801, elapsed: 0.0005979537963867188
ell 800, elapsed: 0.0005679130554199219
ell 799, elapsed: 0.0009560585021972656
ell 798, elapsed: 0.0005629062652587891
ell 702, elapsed: 0.005136013031005859
ell 701, elapsed: 0.0003941059112548828
ell 700, elapsed: 0.00035500526428222656
ell 699, elapsed: 0.0002689361572265625
ell 698, elapsed: 0.0002701282501220703
ell 602, elapsed: 0.0045850276947021484
ell 601, elapsed: 0.0004520416259765625
ell 600, elapsed: 0.0005290508270263672
ell 599, elapsed: 0.00035691261291503906
ell 598, elapsed: 0.00035500526428222656
ell 502, elapsed: 0.006324052810668945
ell 501, elapsed: 0.0007870197296142578
ell 500, elapsed: 0.0005631446838378906
ell 499, elapsed: 0.0005850791931152344
ell 498, elapsed: 0.0007369518280029297
ell 402, elapsed: 0.006412982940673828
ell 401, elapsed: 0.0004279613494873047
ell 400, elapsed: 0.0004210472106933594
ell 399, elapsed: 0.00042319297790527344
ell 398, elapsed: 0.0004220008850097656
ell 302, elapsed: 0.006788969039916992
ell 301, elapsed: 0.00043010711669921875
ell 300, elapsed: 0.0004258155822753906
ell 299, elapsed: 0.0006501674652099609
ell 298, elapsed: 0.0004260540008544922
ell 202, elapsed: 0.006639957427978516
ell 201, elapsed: 0.00043201446533203125
ell 200, elapsed: 0.0006241798400878906
ell 199, elapsed: 0.0004279613494873047
ell 198, elapsed: 0.0004279613494873047
ell 152, elapsed: 0.0036661624908447266
ell 151, elapsed: 0.00042700767517089844
ell 150, elapsed: 0.0004239082336425781
ell 149, elapsed: 0.0004239082336425781
ell 148, elapsed: 0.00042319297790527344
ell 127, elapsed: 0.0019350051879882812
ell 126, elapsed: 0.00039386749267578125
ell 125, elapsed: 0.00039386749267578125
ell 124, elapsed: 0.00039196014404296875
ell 123, elapsed: 0.00039005279541015625
ell 114, elapsed: 0.0008909702301025391
ell 113, elapsed: 0.0005497932434082031
ell 112, elapsed: 0.00047898292541503906
ell 111, elapsed: 0.0004820823669433594
ell 110, elapsed: 0.0004818439483642578
ell 102, elapsed: 0.0010170936584472656
ell 101, elapsed: 0.0004820823669433594
ell 100, elapsed: 0.0004799365997314453
ell 99, elapsed: 0.0007481575012207031
ell 98, elapsed: 0.0005068778991699219
ell 97, elapsed: 0.00046896934509277344
ell 96, elapsed: 0.0005500316619873047
ell 95, elapsed: 0.0004630088806152344
ell 94, elapsed: 0.0005440711975097656
ell 93, elapsed: 0.00046515464782714844
ell 92, elapsed: 0.0008151531219482422
ell 91, elapsed: 0.0005819797515869141
ell 90, elapsed: 0.0006029605865478516
ell 89, elapsed: 0.0005180835723876953
ell 88, elapsed: 0.0006110668182373047
ell 87, elapsed: 0.0005168914794921875
ell 86, elapsed: 0.0005929470062255859
ell 85, elapsed: 0.0005171298980712891
ell 84, elapsed: 0.0006039142608642578
ell 83, elapsed: 0.0005190372467041016
ell 82, elapsed: 0.0006139278411865234
ell 81, elapsed: 0.000598907470703125
ell 80, elapsed: 0.0006048679351806641
ell 79, elapsed: 0.0004680156707763672
ell 78, elapsed: 0.0005428791046142578
ell 77, elapsed: 0.0004661083221435547
ell 76, elapsed: 0.0006480216979980469
ell 75, elapsed: 0.0005309581756591797
ell 74, elapsed: 0.0005500316619873047
ell 73, elapsed: 0.0004658699035644531
ell 72, elapsed: 0.0005390644073486328
ell 71, elapsed: 0.0004649162292480469
ell 70, elapsed: 0.0005362033843994141
ell 69, elapsed: 0.0005700588226318359
ell 68, elapsed: 0.0005910396575927734
ell 67, elapsed: 0.0004668235778808594
ell 66, elapsed: 0.0005350112915039062
ell 65, elapsed: 0.0004661083221435547
ell 64, elapsed: 0.0005400180816650391
ell 63, elapsed: 0.0004649162292480469
ell 62, elapsed: 0.0006160736083984375
ell 61, elapsed: 0.0005221366882324219
ell 60, elapsed: 0.0005521774291992188
ell 59, elapsed: 0.0004639625549316406
ell 58, elapsed: 0.0005419254302978516
ell 57, elapsed: 0.0004639625549316406
ell 56, elapsed: 0.0005400180816650391
ell 55, elapsed: 0.0004658699035644531
ell 54, elapsed: 0.0006151199340820312
ell 53, elapsed: 0.0004680156707763672
ell 52, elapsed: 0.0005400180816650391
ell 51, elapsed: 0.00046515464782714844
ell 50, elapsed: 0.0005388259887695312
ell 49, elapsed: 0.00046515464782714844
ell 48, elapsed: 0.0005450248718261719
ell 47, elapsed: 0.0006549358367919922
ell 46, elapsed: 0.0006620883941650391
ell 45, elapsed: 0.00046515464782714844
ell 44, elapsed: 0.0005338191986083984
ell 43, elapsed: 0.0004661083221435547
ell 42, elapsed: 0.0005400180816650391
ell 41, elapsed: 0.00046706199645996094
ell 40, elapsed: 0.0006549358367919922
ell 39, elapsed: 0.0007369518280029297
ell 38, elapsed: 0.0005788803100585938
ell 37, elapsed: 0.0004658699035644531
ell 36, elapsed: 0.0005400180816650391
ell 35, elapsed: 0.0004661083221435547
ell 34, elapsed: 0.0006799697875976562
ell 33, elapsed: 0.0005500316619873047
ell 32, elapsed: 0.0005509853363037109
ell 31, elapsed: 0.0004680156707763672
ell 30, elapsed: 0.0005419254302978516
ell 29, elapsed: 0.00046706199645996094
ell 28, elapsed: 0.0005490779876708984
ell 27, elapsed: 0.0006160736083984375
ell 26, elapsed: 0.0006339550018310547
ell 25, elapsed: 0.0004680156707763672
ell 24, elapsed: 0.0005328655242919922
ell 23, elapsed: 0.0004668235778808594
ell 22, elapsed: 0.0005509853363037109
ell 21, elapsed: 0.0004668235778808594
ell 20, elapsed: 0.0006611347198486328
ell 19, elapsed: 0.0004661083221435547
ell 18, elapsed: 0.0005512237548828125
ell 17, elapsed: 0.0004668235778808594
ell 16, elapsed: 0.0005488395690917969
ell 15, elapsed: 0.0004661083221435547
ell 14, elapsed: 0.000537872314453125
ell 13, elapsed: 0.00046896934509277344
ell 12, elapsed: 0.0008032321929931641
ell 11, elapsed: 0.0005447864532470703
ell 10, elapsed: 0.0005428791046142578
ell 9, elapsed: 0.00046706199645996094
ell 8, elapsed: 0.0005440711975097656
ell 7, elapsed: 0.0004680156707763672
ell 6, elapsed: 0.0006561279296875
ell 5, elapsed: 0.00046706199645996094
ell 4, elapsed: 0.0005731582641601562
ell 3, elapsed: 0.0004680156707763672
ell 2, elapsed: 0.0005469322204589844
ell 1, elapsed: 0.0004661083221435547
ell 0, elapsed: 0.0005419254302978516
  0.161694 seconds (10.83 k allocations: 697.938 KiB)
elapsed: 0.0007448196411132812
step:          0.066609 sec (0 allocations: 0 byte, 0.0% gc time)
swapping:      0.000656 sec (0 allocations: 0 byte, 0.0% gc time)
calc_Mellell!: 0.001859 sec (0 allocations: 0 byte, 0.0% gc time)
  t0 :  0.000542 sec (0 allocations: 0 byte, 0.0% gc time)
  tm2 : 0.016687 sec (0 allocations: 0 byte, 0.0% gc time)
  tm2s: 0.000373 sec (0 allocations: 0 byte, 0.0% gc time)
  tm4 : 0.041533 sec (0 allocations: 0 byte, 0.0% gc time)
  tp2 : 0.0 sec (0 allocations: 0 byte, 0.0% gc time)
  tp2s: 0.0 sec (0 allocations: 0 byte, 0.0% gc time)
  tp4 : 0.0 sec (0 allocations: 0 byte, 0.0% gc time)
calc_wtdll!:   0.059736 sec (1.344 k allocations: 147.0 KB, 0.0% gc time)
calc_wljj!:    0.004411 sec (6 allocations: 96 byte, 0.0% gc time)
mult_prefac!:  0.0 sec (0 allocations: 0 byte, 0.0% gc time)
convert:       0.0 sec (0 allocations: 0 byte, 0.0% gc time)
write:         0.005244 sec (0 allocations: 0 byte, 0.0% gc time)
test_rand_2f1: 0.0 sec (0 allocations: 0 byte, 0.0% gc time)
Closing outfile out/Ml21-cache.bin...   0.000095 seconds
  0.000962 seconds (52 allocations: 28.297 KiB)
make_phi():   0.003038 seconds (8.33 k allocations: 250.453 KiB)
  0.087490 seconds (69.40 k allocations: 5.919 MiB)
tskip:       2.5e-5 sec (0 allocations: 0 byte, 0.0% gc time)
tread:       0.002999 sec (19 allocations: 2.172 KB, 0.0% gc time)
tmultphi:    0.001275 sec (0 allocations: 0 byte, 0.0% gc time)
tbrfft:      0.074184 sec (58.202 k allocations: 5.646 MB, 0.0% gc time)
tmultprefac: 0.003393 sec (0 allocations: 0 byte, 0.0% gc time)
toutfunc:    0.005557 sec (10.528 k allocations: 206.5 KB, 0.0% gc time)
Testing R=0.9 ... passed
Calculating fmax: 
  dlrec    = 4
  dlrecRg1 = -4
  q=1.1, R=0.8:	  0.372407 seconds (113.61 k allocations: 15.166 MiB)

  0.372805 seconds (113.65 k allocations: 15.200 MiB)
ℓ = 1202
Δℓ = 4
ΔℓRg1 = -4
N = 1600
q = 1.1
kmin = 1.0e-5
kmax = 100000.00000000004
χ0 = 0.023029999999999995
RR = RR.tsv
ℓmax = ℓmax.bin
f21 = f21.bin
kmin = 1.0e-5
kmax = 100000.0
dlrec    = 4
dlrecRg1 = -4
Output size: 5741568 bytes = 0.005347251892089844 GiB
Output size: 51264 bytes = 4.774332046508789e-5 GiB
Reading 'out/F21EllCache'...   0.001090 seconds (267 allocations: 84.656 KiB)
ellmax: 1202
lmaxcache: 1202
fell[:,1,1] = Complex{Float64}[7.519068145690986e-120 - 1.8416405474382574e-135im, 7.541664537386155e-120 - 1.847175067190611e-135im]
ell 1202, elapsed: 7.796287536621094e-5
ell 1201, elapsed: 0.0008099079132080078
ell 1200, elapsed: 0.0008230209350585938
ell 1199, elapsed: 0.0007359981536865234
ell 1198, elapsed: 0.0007419586181640625
ell 1002, elapsed: 0.00978708267211914
ell 1001, elapsed: 0.0005910396575927734
ell 1000, elapsed: 0.0007028579711914062
ell 999, elapsed: 0.0006880760192871094
ell 998, elapsed: 0.0005528926849365234
ell 902, elapsed: 0.0055010318756103516
ell 901, elapsed: 0.0007369518280029297
ell 900, elapsed: 0.0008418560028076172
ell 899, elapsed: 0.0004429817199707031
ell 898, elapsed: 0.000576019287109375
ell 802, elapsed: 0.0054738521575927734
ell 801, elapsed: 0.00045013427734375
ell 800, elapsed: 0.0006220340728759766
ell 799, elapsed: 0.0006160736083984375
ell 798, elapsed: 0.0005779266357421875
ell 702, elapsed: 0.0057430267333984375
ell 701, elapsed: 0.0005571842193603516
ell 700, elapsed: 0.0005950927734375
ell 699, elapsed: 0.0006411075592041016
ell 698, elapsed: 0.0006580352783203125
ell 602, elapsed: 0.0053288936614990234
ell 601, elapsed: 0.0007948875427246094
ell 600, elapsed: 0.0005750656127929688
ell 599, elapsed: 0.0006151199340820312
ell 598, elapsed: 0.0004909038543701172
ell 502, elapsed: 0.005795955657958984
ell 501, elapsed: 0.0006680488586425781
ell 500, elapsed: 0.0007979869842529297
ell 499, elapsed: 0.0006630420684814453
ell 498, elapsed: 0.0005090236663818359
ell 402, elapsed: 0.00548100471496582
ell 401, elapsed: 0.0006139278411865234
ell 400, elapsed: 0.0007939338684082031
ell 399, elapsed: 0.0006499290466308594
ell 398, elapsed: 0.0007288455963134766
ell 302, elapsed: 0.006163835525512695
ell 301, elapsed: 0.0008008480072021484
ell 300, elapsed: 0.0007991790771484375
ell 299, elapsed: 0.0008411407470703125
ell 298, elapsed: 0.0007851123809814453
ell 202, elapsed: 0.005947113037109375
ell 201, elapsed: 0.0008618831634521484
ell 200, elapsed: 0.0005719661712646484
ell 199, elapsed: 0.0005500316619873047
ell 198, elapsed: 0.0005559921264648438
ell 152, elapsed: 0.002894163131713867
ell 151, elapsed: 0.0007328987121582031
ell 150, elapsed: 0.00078582763671875
ell 149, elapsed: 0.0007369518280029297
ell 148, elapsed: 0.0008258819580078125
ell 127, elapsed: 0.002028942108154297
ell 126, elapsed: 0.0008521080017089844
ell 125, elapsed: 0.000514984130859375
ell 124, elapsed: 0.0005381107330322266
ell 123, elapsed: 0.0005178451538085938
ell 114, elapsed: 0.0012679100036621094
ell 113, elapsed: 0.0006530284881591797
ell 112, elapsed: 0.00047206878662109375
ell 111, elapsed: 0.0004069805145263672
ell 110, elapsed: 0.00040602684020996094
ell 102, elapsed: 0.0009000301361083984
ell 101, elapsed: 0.0004940032958984375
ell 100, elapsed: 0.0006091594696044922
ell 99, elapsed: 0.0006108283996582031
ell 98, elapsed: 0.0006639957427978516
ell 97, elapsed: 0.0004949569702148438
ell 96, elapsed: 0.0007710456848144531
ell 95, elapsed: 0.0005290508270263672
ell 94, elapsed: 0.0005719661712646484
ell 93, elapsed: 0.0004241466522216797
ell 92, elapsed: 0.0004820823669433594
ell 91, elapsed: 0.0007059574127197266
ell 90, elapsed: 0.0006940364837646484
ell 89, elapsed: 0.0005259513854980469
ell 88, elapsed: 0.0008108615875244141
ell 87, elapsed: 0.0007908344268798828
ell 86, elapsed: 0.0007829666137695312
ell 85, elapsed: 0.0007951259613037109
ell 84, elapsed: 0.0007221698760986328
ell 83, elapsed: 0.0006299018859863281
ell 82, elapsed: 0.0004830360412597656
ell 81, elapsed: 0.00031304359436035156
ell 80, elapsed: 0.00035309791564941406
ell 79, elapsed: 0.0002949237823486328
ell 78, elapsed: 0.0003898143768310547
ell 77, elapsed: 0.00037789344787597656
ell 76, elapsed: 0.0004341602325439453
ell 75, elapsed: 0.0003800392150878906
ell 74, elapsed: 0.0004379749298095703
ell 73, elapsed: 0.0003769397735595703
ell 72, elapsed: 0.0004279613494873047
ell 71, elapsed: 0.0003800392150878906
ell 70, elapsed: 0.0004420280456542969
ell 69, elapsed: 0.00039696693420410156
ell 68, elapsed: 0.0004458427429199219
ell 67, elapsed: 0.0003809928894042969
ell 66, elapsed: 0.0004360675811767578
ell 65, elapsed: 0.0003809928894042969
ell 64, elapsed: 0.00043582916259765625
ell 63, elapsed: 0.0003788471221923828
ell 62, elapsed: 0.00043010711669921875
ell 61, elapsed: 0.0003769397735595703
ell 60, elapsed: 0.000453948974609375
ell 59, elapsed: 0.0003879070281982422
ell 58, elapsed: 0.00044608116149902344
ell 57, elapsed: 0.0003819465637207031
ell 56, elapsed: 0.00043892860412597656
ell 55, elapsed: 0.0003800392150878906
ell 54, elapsed: 0.0004379749298095703
ell 53, elapsed: 0.00037789344787597656
ell 52, elapsed: 0.0004341602325439453
ell 51, elapsed: 0.0003879070281982422
ell 50, elapsed: 0.0004360675811767578
ell 49, elapsed: 0.0003800392150878906
ell 48, elapsed: 0.0004429817199707031
ell 47, elapsed: 0.0003821849822998047
ell 46, elapsed: 0.0004360675811767578
ell 45, elapsed: 0.0003819465637207031
ell 44, elapsed: 0.00043511390686035156
ell 43, elapsed: 0.0003609657287597656
ell 42, elapsed: 0.0005631446838378906
ell 41, elapsed: 0.0007319450378417969
ell 40, elapsed: 0.0007729530334472656
ell 39, elapsed: 0.00047707557678222656
ell 38, elapsed: 0.0005660057067871094
ell 37, elapsed: 0.0004830360412597656
ell 36, elapsed: 0.0005581378936767578
ell 35, elapsed: 0.0006668567657470703
ell 34, elapsed: 0.0005588531494140625
ell 33, elapsed: 0.0004680156707763672
ell 32, elapsed: 0.0006461143493652344
ell 31, elapsed: 0.0007550716400146484
ell 30, elapsed: 0.0007889270782470703
ell 29, elapsed: 0.0004570484161376953
ell 28, elapsed: 0.0004870891571044922
ell 27, elapsed: 0.0004248619079589844
ell 26, elapsed: 0.0007901191711425781
ell 25, elapsed: 0.0005948543548583984
ell 24, elapsed: 0.0005991458892822266
ell 23, elapsed: 0.0004909038543701172
ell 22, elapsed: 0.0005609989166259766
[...]
ell 782, elapsed: 0.0016469955444335938
ell 781, elapsed: 0.0008580684661865234
ell 780, elapsed: 0.0008728504180908203
ell 779, elapsed: 0.0008599758148193359
ell 778, elapsed: 0.0008490085601806641
ell 772, elapsed: 0.0016150474548339844
ell 771, elapsed: 0.0008780956268310547
ell 770, elapsed: 0.0008549690246582031
ell 769, elapsed: 0.0008509159088134766
ell 768, elapsed: 0.0008678436279296875
ell 762, elapsed: 0.0016560554504394531
ell 761, elapsed: 0.0008549690246582031
ell 760, elapsed: 0.0008599758148193359
ell 759, elapsed: 0.0008561611175537109
ell 758, elapsed: 0.0008699893951416016
ell 752, elapsed: 0.0016200542449951172
ell 751, elapsed: 0.0008249282836914062
ell 750, elapsed: 0.0008499622344970703
ell 749, elapsed: 0.0008609294891357422
ell 748, elapsed: 0.0008490085601806641
ell 742, elapsed: 0.0016210079193115234
ell 741, elapsed: 0.0008602142333984375
ell 740, elapsed: 0.0008480548858642578
ell 739, elapsed: 0.0008449554443359375
ell 738, elapsed: 0.0008480548858642578
ell 732, elapsed: 0.0016109943389892578
ell 731, elapsed: 0.0008499622344970703
ell 730, elapsed: 0.0008471012115478516
ell 729, elapsed: 0.0008490085601806641
ell 728, elapsed: 0.0008609294891357422
ell 722, elapsed: 0.0015997886657714844
ell 721, elapsed: 0.0008521080017089844
ell 720, elapsed: 0.0008599758148193359
ell 719, elapsed: 0.0008728504180908203
ell 718, elapsed: 0.0008571147918701172
ell 712, elapsed: 0.0018241405487060547
ell 711, elapsed: 0.0008099079132080078
ell 710, elapsed: 0.0008790493011474609
ell 709, elapsed: 0.0008509159088134766
ell 708, elapsed: 0.0008509159088134766
ell 702, elapsed: 0.0018048286437988281
ell 701, elapsed: 0.0008661746978759766
ell 700, elapsed: 0.0008568763732910156
ell 699, elapsed: 0.0008549690246582031
ell 698, elapsed: 0.0008561611175537109
ell 692, elapsed: 0.0018439292907714844
ell 691, elapsed: 0.0008070468902587891
ell 690, elapsed: 0.0008528232574462891
ell 689, elapsed: 0.0009350776672363281
ell 688, elapsed: 0.0008580684661865234
ell 682, elapsed: 0.001634836196899414
ell 681, elapsed: 0.0009579658508300781
ell 680, elapsed: 0.0008580684661865234
ell 679, elapsed: 0.0008528232574462891
ell 678, elapsed: 0.0008568763732910156
ell 672, elapsed: 0.0017108917236328125
ell 671, elapsed: 0.0008499622344970703
ell 670, elapsed: 0.0008528232574462891
ell 669, elapsed: 0.0008451938629150391
ell 668, elapsed: 0.0009441375732421875
ell 662, elapsed: 0.0017898082733154297
ell 661, elapsed: 0.0007910728454589844
ell 660, elapsed: 0.0008499622344970703
ell 659, elapsed: 0.0009291172027587891
ell 658, elapsed: 0.0008399486541748047
ell 652, elapsed: 0.0016140937805175781
ell 651, elapsed: 0.0009410381317138672
ell 650, elapsed: 0.00084686279296875
ell 649, elapsed: 0.0008478164672851562
ell 648, elapsed: 0.0008480548858642578
ell 642, elapsed: 0.0016930103302001953
ell 641, elapsed: 0.0008518695831298828
ell 640, elapsed: 0.0008509159088134766
ell 639, elapsed: 0.0008540153503417969
ell 638, elapsed: 0.0009429454803466797
ell 632, elapsed: 0.0018320083618164062
ell 631, elapsed: 0.0008020401000976562
ell 630, elapsed: 0.0008490085601806641
ell 629, elapsed: 0.0009570121765136719
ell 628, elapsed: 0.0008530616760253906
ell 622, elapsed: 0.0018579959869384766
ell 621, elapsed: 0.0009100437164306641
ell 620, elapsed: 0.0008511543273925781
ell 619, elapsed: 0.0008521080017089844
ell 618, elapsed: 0.0008549690246582031
ell 612, elapsed: 0.0017709732055664062
ell 611, elapsed: 0.0008530616760253906
ell 610, elapsed: 0.0008521080017089844
ell 609, elapsed: 0.0008399486541748047
ell 608, elapsed: 0.0010020732879638672
ell 602, elapsed: 0.002071857452392578
ell 601, elapsed: 0.0007960796356201172
ell 600, elapsed: 0.0009779930114746094
ell 599, elapsed: 0.0008399486541748047
ell 598, elapsed: 0.0008399486541748047
ell 592, elapsed: 0.0019941329956054688
ell 591, elapsed: 0.000885009765625
ell 590, elapsed: 0.0009448528289794922
ell 589, elapsed: 0.0008499622344970703
ell 588, elapsed: 0.0008950233459472656
ell 582, elapsed: 0.001486063003540039
ell 581, elapsed: 0.0008170604705810547
ell 580, elapsed: 0.0008189678192138672
ell 579, elapsed: 0.0009589195251464844
ell 578, elapsed: 0.0008218288421630859
ell 572, elapsed: 0.0015659332275390625
ell 571, elapsed: 0.0008230209350585938
ell 570, elapsed: 0.0009241104125976562
ell 569, elapsed: 0.000823974609375
ell 568, elapsed: 0.0008168220520019531
ell 562, elapsed: 0.0015821456909179688
ell 561, elapsed: 0.0008320808410644531
ell 560, elapsed: 0.000823974609375
ell 559, elapsed: 0.0008230209350585938
ell 558, elapsed: 0.0008151531219482422
ell 552, elapsed: 0.0014450550079345703
ell 551, elapsed: 0.0008149147033691406
ell 550, elapsed: 0.0007801055908203125
ell 549, elapsed: 0.0008111000061035156
ell 548, elapsed: 0.0008020401000976562
ell 542, elapsed: 0.0015201568603515625
ell 541, elapsed: 0.0008070468902587891
ell 540, elapsed: 0.0008280277252197266
ell 539, elapsed: 0.0007760524749755859
ell 538, elapsed: 0.0008120536804199219
ell 532, elapsed: 0.0015130043029785156
ell 531, elapsed: 0.0007948875427246094
ell 530, elapsed: 0.0008521080017089844
ell 529, elapsed: 0.0007700920104980469
ell 528, elapsed: 0.0008170604705810547
ell 522, elapsed: 0.0017399787902832031
ell 521, elapsed: 0.0007610321044921875
ell 520, elapsed: 0.0008099079132080078
ell 519, elapsed: 0.0007960796356201172
ell 518, elapsed: 0.0008349418640136719
ell 512, elapsed: 0.0017321109771728516
ell 511, elapsed: 0.0008320808410644531
ell 510, elapsed: 0.0008370876312255859
ell 509, elapsed: 0.0007669925689697266
ell 508, elapsed: 0.0009019374847412109
ell 502, elapsed: 0.0014832019805908203
ell 501, elapsed: 0.0008220672607421875
ell 500, elapsed: 0.0007998943328857422
ell 499, elapsed: 0.0010099411010742188
ell 498, elapsed: 0.0009601116180419922
ell 492, elapsed: 0.0015711784362792969
ell 491, elapsed: 0.0008280277252197266
ell 490, elapsed: 0.0008111000061035156
ell 489, elapsed: 0.0007810592651367188
ell 488, elapsed: 0.0008289813995361328
ell 482, elapsed: 0.0018038749694824219
ell 481, elapsed: 0.0007801055908203125
ell 480, elapsed: 0.0008211135864257812
ell 479, elapsed: 0.0007710456848144531
ell 478, elapsed: 0.0007939338684082031
ell 472, elapsed: 0.0016241073608398438
ell 471, elapsed: 0.0007648468017578125
ell 470, elapsed: 0.0008111000061035156
ell 469, elapsed: 0.0009579658508300781
ell 468, elapsed: 0.0008349418640136719
ell 462, elapsed: 0.001550912857055664
ell 461, elapsed: 0.0008029937744140625
ell 460, elapsed: 0.0007789134979248047
ell 459, elapsed: 0.0007920265197753906
ell 458, elapsed: 0.0007929801940917969
ell 452, elapsed: 0.0016739368438720703
ell 451, elapsed: 0.00061798095703125
ell 450, elapsed: 0.0006420612335205078
ell 449, elapsed: 0.0006299018859863281
ell 448, elapsed: 0.0006411075592041016
ell 442, elapsed: 0.0013408660888671875
ell 441, elapsed: 0.0008420944213867188
ell 440, elapsed: 0.0006270408630371094
ell 439, elapsed: 0.0006101131439208984
ell 438, elapsed: 0.0006210803985595703
ell 432, elapsed: 0.0013000965118408203
ell 431, elapsed: 0.0007948875427246094
ell 430, elapsed: 0.0007631778717041016
ell 429, elapsed: 0.0007410049438476562
ell 428, elapsed: 0.0007510185241699219
ell 422, elapsed: 0.0015649795532226562
ell 421, elapsed: 0.0007829666137695312
ell 420, elapsed: 0.0008230209350585938
ell 419, elapsed: 0.0008101463317871094
ell 418, elapsed: 0.0009119510650634766
ell 412, elapsed: 0.0015101432800292969
ell 411, elapsed: 0.0007841587066650391
ell 410, elapsed: 0.0008289813995361328
ell 409, elapsed: 0.0008649826049804688
ell 408, elapsed: 0.0008070468902587891
ell 402, elapsed: 0.00152587890625
ell 401, elapsed: 0.0008020401000976562
ell 400, elapsed: 0.0009138584136962891
ell 399, elapsed: 0.0007982254028320312
ell 398, elapsed: 0.000823974609375
ell 392, elapsed: 0.0016281604766845703
ell 391, elapsed: 0.0007929801940917969
ell 390, elapsed: 0.0008161067962646484
ell 389, elapsed: 0.0007648468017578125
ell 388, elapsed: 0.000804901123046875
ell 382, elapsed: 0.0016169548034667969
ell 381, elapsed: 0.000759124755859375
ell 380, elapsed: 0.0008139610290527344
ell 379, elapsed: 0.0008120536804199219
ell 378, elapsed: 0.0009179115295410156
ell 372, elapsed: 0.0014791488647460938
ell 371, elapsed: 0.0007989406585693359
ell 370, elapsed: 0.0007719993591308594
ell 369, elapsed: 0.0008909702301025391
ell 368, elapsed: 0.0008289813995361328
ell 362, elapsed: 0.0015308856964111328
ell 361, elapsed: 0.0008051395416259766
ell 360, elapsed: 0.000926971435546875
ell 359, elapsed: 0.0008199214935302734
ell 358, elapsed: 0.0008289813995361328
ell 352, elapsed: 0.0016810894012451172
ell 351, elapsed: 0.0008389949798583984
ell 350, elapsed: 0.0008208751678466797
ell 349, elapsed: 0.0008389949798583984
ell 348, elapsed: 0.0007700920104980469
ell 342, elapsed: 0.0016551017761230469
ell 341, elapsed: 0.0008361339569091797
ell 340, elapsed: 0.0007500648498535156
ell 339, elapsed: 0.0008020401000976562
ell 338, elapsed: 0.0009310245513916016
ell 332, elapsed: 0.001477956771850586
ell 331, elapsed: 0.0008139610290527344
ell 330, elapsed: 0.0009629726409912109
ell 329, elapsed: 0.0007719993591308594
ell 328, elapsed: 0.0007879734039306641
ell 322, elapsed: 0.0015799999237060547
ell 321, elapsed: 0.0008599758148193359
ell 320, elapsed: 0.0008289813995361328
ell 319, elapsed: 0.0008120536804199219
ell 318, elapsed: 0.0008318424224853516
ell 312, elapsed: 0.0016720294952392578
ell 311, elapsed: 0.0007669925689697266
ell 310, elapsed: 0.000804901123046875
ell 309, elapsed: 0.0008029937744140625
ell 308, elapsed: 0.0008199214935302734
ell 302, elapsed: 0.0016319751739501953
ell 301, elapsed: 0.0008409023284912109
ell 300, elapsed: 0.0008311271667480469
ell 299, elapsed: 0.0009169578552246094
ell 298, elapsed: 0.0008170604705810547
ell 292, elapsed: 0.0015718936920166016
ell 291, elapsed: 0.0008139610290527344
ell 290, elapsed: 0.0008871555328369141
ell 289, elapsed: 0.0008029937744140625
ell 288, elapsed: 0.0008261203765869141
ell 282, elapsed: 0.0014660358428955078
ell 281, elapsed: 0.000904083251953125
ell 280, elapsed: 0.0008318424224853516
ell 279, elapsed: 0.0007688999176025391
ell 278, elapsed: 0.0008330345153808594
ell 272, elapsed: 0.0015718936920166016
ell 271, elapsed: 0.0008368492126464844
ell 270, elapsed: 0.0007770061492919922
ell 269, elapsed: 0.0007939338684082031
ell 268, elapsed: 0.0009400844573974609
ell 262, elapsed: 0.0016870498657226562
ell 261, elapsed: 0.0008261203765869141
ell 260, elapsed: 0.0007641315460205078
ell 259, elapsed: 0.0011968612670898438
ell 258, elapsed: 0.0008301734924316406
ell 252, elapsed: 0.0015571117401123047
ell 251, elapsed: 0.0009698867797851562
ell 250, elapsed: 0.0008349418640136719
ell 249, elapsed: 0.0008227825164794922
ell 248, elapsed: 0.0008320808410644531
ell 242, elapsed: 0.0016300678253173828
ell 241, elapsed: 0.0008490085601806641
ell 240, elapsed: 0.0007679462432861328
ell 239, elapsed: 0.0008251667022705078
ell 238, elapsed: 0.0009019374847412109
ell 232, elapsed: 0.001474142074584961
ell 231, elapsed: 0.000823974609375
ell 230, elapsed: 0.0008161067962646484
ell 229, elapsed: 0.0007770061492919922
ell 228, elapsed: 0.0007939338684082031
ell 222, elapsed: 0.0016858577728271484
ell 221, elapsed: 0.0008189678192138672
ell 220, elapsed: 0.0009388923645019531
ell 219, elapsed: 0.0007970333099365234
ell 218, elapsed: 0.0008199214935302734
ell 212, elapsed: 0.0014569759368896484
ell 211, elapsed: 0.0009720325469970703
ell 210, elapsed: 0.0007770061492919922
ell 209, elapsed: 0.0008070468902587891
ell 208, elapsed: 0.0008039474487304688
ell 202, elapsed: 0.0016739368438720703
ell 201, elapsed: 0.0008320808410644531
ell 200, elapsed: 0.0008251667022705078
ell 199, elapsed: 0.0008220672607421875
ell 198, elapsed: 0.0007810592651367188
ell 192, elapsed: 0.001168966293334961
ell 191, elapsed: 0.0006139278411865234
ell 190, elapsed: 0.00061798095703125
ell 189, elapsed: 0.0006117820739746094
ell 188, elapsed: 0.0007879734039306641
ell 182, elapsed: 0.0014009475708007812
ell 181, elapsed: 0.0007789134979248047
ell 180, elapsed: 0.0008139610290527344
ell 179, elapsed: 0.0008800029754638672
ell 178, elapsed: 0.0008008480072021484
ell 172, elapsed: 0.0014638900756835938
ell 171, elapsed: 0.0008189678192138672
ell 170, elapsed: 0.0009028911590576172
ell 169, elapsed: 0.0007669925689697266
ell 168, elapsed: 0.0007991790771484375
ell 162, elapsed: 0.001550912857055664
ell 161, elapsed: 0.0008749961853027344
ell 160, elapsed: 0.0007929801940917969
ell 159, elapsed: 0.0008158683776855469
ell 158, elapsed: 0.0007791519165039062
ell 152, elapsed: 0.0016579627990722656
ell 151, elapsed: 0.0007729530334472656
ell 150, elapsed: 0.0007960796356201172
ell 149, elapsed: 0.0008020401000976562
ell 148, elapsed: 0.0008311271667480469
ell 142, elapsed: 0.0014929771423339844
ell 141, elapsed: 0.0008149147033691406
ell 140, elapsed: 0.0008139610290527344
ell 139, elapsed: 0.0008029937744140625
ell 138, elapsed: 0.0008440017700195312
ell 132, elapsed: 0.0015060901641845703
ell 131, elapsed: 0.0008251667022705078
ell 130, elapsed: 0.0007998943328857422
ell 129, elapsed: 0.0008180141448974609
ell 128, elapsed: 0.0007970333099365234
ell 122, elapsed: 0.0015032291412353516
ell 121, elapsed: 0.0008411407470703125
ell 120, elapsed: 0.0007879734039306641
ell 119, elapsed: 0.0008401870727539062
ell 118, elapsed: 0.0007848739624023438
ell 112, elapsed: 0.0018880367279052734
ell 111, elapsed: 0.0008389949798583984
ell 110, elapsed: 0.0008289813995361328
ell 109, elapsed: 0.0008280277252197266
ell 108, elapsed: 0.0010609626770019531
ell 102, elapsed: 0.0015881061553955078
ell 101, elapsed: 0.003988981246948242
ell 100, elapsed: 0.004418134689331055
ell 99, elapsed: 0.0035359859466552734
ell 98, elapsed: 0.0035238265991210938
ell 92, elapsed: 0.007300853729248047
ell 91, elapsed: 0.004156827926635742
ell 90, elapsed: 0.004142045974731445
ell 89, elapsed: 0.0039038658142089844
ell 88, elapsed: 0.005686044692993164
ell 82, elapsed: 0.005903005599975586
ell 81, elapsed: 0.003846883773803711
ell 80, elapsed: 0.0037238597869873047
ell 79, elapsed: 0.004087924957275391
ell 78, elapsed: 0.004077911376953125
ell 72, elapsed: 0.0064089298248291016
ell 71, elapsed: 0.003298044204711914
ell 70, elapsed: 0.003477811813354492
ell 69, elapsed: 0.0036649703979492188
ell 68, elapsed: 0.0037899017333984375
ell 62, elapsed: 0.006662845611572266
ell 61, elapsed: 0.004415988922119141
ell 60, elapsed: 0.0035648345947265625
ell 59, elapsed: 0.003718137741088867
ell 58, elapsed: 0.003080129623413086
ell 52, elapsed: 0.0061490535736083984
ell 51, elapsed: 0.0039060115814208984
ell 50, elapsed: 0.003643035888671875
ell 49, elapsed: 0.003914833068847656
ell 48, elapsed: 0.004361152648925781
ell 42, elapsed: 0.006238222122192383
ell 41, elapsed: 0.004006862640380859
ell 40, elapsed: 0.0038099288940429688
ell 39, elapsed: 0.003634929656982422
ell 38, elapsed: 0.004094839096069336
ell 32, elapsed: 0.00616002082824707
ell 31, elapsed: 0.004087924957275391
ell 30, elapsed: 0.004382133483886719
ell 29, elapsed: 0.0036890506744384766
ell 28, elapsed: 0.003933906555175781
ell 22, elapsed: 0.00586390495300293
ell 21, elapsed: 0.0038919448852539062
ell 20, elapsed: 0.0037660598754882812
ell 19, elapsed: 0.0037500858306884766
ell 18, elapsed: 0.0037848949432373047
ell 12, elapsed: 0.006696939468383789
ell 11, elapsed: 0.003924131393432617
ell 10, elapsed: 0.0038390159606933594
ell 9, elapsed: 0.004714012145996094
ell 8, elapsed: 0.004615068435668945
  0.801813 seconds (66.75 k allocations: 12.139 MiB, 1.55% gc time)
elapsed: 0.0052318572998046875
step:          0.072046 sec (0 allocations: 0 byte, 0.0% gc time)
swapping:      0.000843 sec (0 allocations: 0 byte, 0.0% gc time)
calc_Mellell!: 0.036398 sec (0 allocations: 0 byte, 0.0% gc time)
  t0 :  0.013564 sec (0 allocations: 0 byte, 0.0% gc time)
  tm2 : 0.077698 sec (0 allocations: 0 byte, 0.0% gc time)
  tm2s: 0.008913 sec (0 allocations: 0 byte, 0.0% gc time)
  tm4 : 0.201194 sec (0 allocations: 0 byte, 0.0% gc time)
  tp2 : 0.0 sec (0 allocations: 0 byte, 0.0% gc time)
  tp2s: 0.0 sec (0 allocations: 0 byte, 0.0% gc time)
  tp4 : 0.0 sec (0 allocations: 0 byte, 0.0% gc time)
calc_wtdll!:   0.572761 sec (49.2 k allocations: 11.133 MB, 2.17% gc time)
calc_wljj!:    0.041017 sec (69 allocations: 1.078 KB, 0.0% gc time)
mult_prefac!:  0.0 sec (0 allocations: 0 byte, 0.0% gc time)
convert:       0.0 sec (0 allocations: 0 byte, 0.0% gc time)
write:         0.035497 sec (0 allocations: 0 byte, 0.0% gc time)
test_rand_2f1: 0.0 sec (0 allocations: 0 byte, 0.0% gc time)
Closing outfile out/MlCache/MlCache.bin...   0.000007 seconds
xi, l=0, nu=0:   0.485720 seconds (650.41 k allocations: 31.239 MiB, 3.12% gc time)
xi, l=0, nu=-2:  0.003049 seconds (423 allocations: 177.078 KiB)
Created 'out/xi.tsv'.
  q=1.1, R=0.6:	  0.731220 seconds (291.08 k allocations: 38.895 MiB, 1.74% gc time)
  q=1.1, R=0.7:	  0.842509 seconds (304.75 k allocations: 40.996 MiB, 1.10% gc time)
  q=1.1, R=0.8:	  0.858489 seconds (299.14 k allocations: 40.132 MiB, 0.89% gc time)
  q=1.1, R=0.9:	  0.969443 seconds (293.57 k allocations: 39.286 MiB)
  q=1.1, R=0.998:	 20.232198 seconds (10.67 M allocations: 823.460 MiB, 0.27% gc time)
  q=1.1, R=1.0:	  0.004195 seconds (10.24 k allocations: 768.375 KiB)

ℓ = 1000
Δℓ = 4
ΔℓRg1 = -4
N = 4096
q = 1.1
kmin = 1.0e-5
kmax = 1000.0
χ0 = 0.001
RR = RR.tsv
ℓmax = ℓmax.bin
f21 = f21.bin
kmin = 1.0e-5
kmax = 1000.0
dlrec    = 4
dlrecRg1 = -4
Output size: 1573632 bytes = 0.0014655590057373047 GiB
Output size: 786816 bytes = 0.0007327795028686523 GiB
Reading 'out/F21EllCache'...   0.001598 seconds (268 allocations: 533.531 KiB)
ellmax: 1002
lmaxcache: 1000
fell[:,1,1] = Complex{Float64}[1.7262928128202118e-224 - 4.2281979352226944e-240im, 1.7282693092099662e-224 - 4.233038955177176e-240im]
ell 1002, elapsed: 2.6941299438476562e-5
ell 1001, elapsed: 0.0008759498596191406
ell 1000, elapsed: 0.0008389949798583984
ell 999, elapsed: 0.008949041366577148
ell 998, elapsed: 0.007308006286621094
ell 44, elapsed: 0.6817469596862793
ell 43, elapsed: 0.0052640438079833984
ell 42, elapsed: 0.005242824554443359
ell 41, elapsed: 0.005316019058227539
ell 40, elapsed: 0.0051670074462890625
  0.727544 seconds (4.55 k allocations: 320.359 KiB)
elapsed: 0.006392002105712891
step:          0.681098 sec (0 allocations: 0 byte, 0.0% gc time)
swapping:      0.000592 sec (0 allocations: 0 byte, 0.0% gc time)
calc_Mellell!: 0.001338 sec (0 allocations: 0 byte, 0.0% gc time)
  t0 :  0.000478 sec (0 allocations: 0 byte, 0.0% gc time)
  tm2 : 0.010741 sec (0 allocations: 0 byte, 0.0% gc time)
  tm2s: 0.000319 sec (0 allocations: 0 byte, 0.0% gc time)
  tm4 : 0.027798 sec (0 allocations: 0 byte, 0.0% gc time)
  tp2 : 0.0 sec (0 allocations: 0 byte, 0.0% gc time)
  tp2s: 0.0 sec (0 allocations: 0 byte, 0.0% gc time)
  tp4 : 0.0 sec (0 allocations: 0 byte, 0.0% gc time)
calc_wtdll!:   0.039547 sec (480 allocations: 52.5 KB, 0.0% gc time)
calc_wljj!:    0.001 sec (1 allocations: 16 byte, 0.0% gc time)
mult_prefac!:  0.0 sec (0 allocations: 0 byte, 0.0% gc time)
convert:       0.0 sec (0 allocations: 0 byte, 0.0% gc time)
write:         0.000946 sec (0 allocations: 0 byte, 0.0% gc time)
test_rand_2f1: 0.0 sec (0 allocations: 0 byte, 0.0% gc time)
Closing outfile out/MlCache/MlCache.bin...   0.000009 seconds
  1.276363 seconds (581.58 k allocations: 56.907 MiB, 1.49% gc time)
make_phi():   0.028569 seconds (225 allocations: 290.906 KiB)
  0.011315 seconds (6.10 k allocations: 618.406 KiB)
tskip:       1.0e-6 sec (0 allocations: 0 byte, 0.0% gc time)
tread:       0.001128 sec (19 allocations: 1.312 KB, 0.0% gc time)
tmultphi:    0.000333 sec (0 allocations: 0 byte, 0.0% gc time)
tbrfft:      0.009009 sec (6.086 k allocations: 617.094 KB, 0.0% gc time)
tmultprefac: 0.000835 sec (0 allocations: 0 byte, 0.0% gc time)
toutfunc:    0.000128 sec (0 allocations: 0 byte, 0.0% gc time)
Created 'out/wl42_jj00.tsv'.
Created 'out/wl42_jj02.tsv'.
    Testing TwoFAST tests passed 
