Julia Version 1.4.2-pre.13
Commit 58353fd273 (2020-05-10 17:03 UTC)
Platform Info:
  OS: Linux (x86_64-linux-gnu)
  CPU: Intel(R) Xeon(R) Silver 4114 CPU @ 2.20GHz
  WORD_SIZE: 64
  LIBM: libopenlibm
  LLVM: libLLVM-8.0.1 (ORCJIT, skylake)
Environment:
  JULIA_DEPOT_PATH = ::/usr/local/share/julia
  JULIA_NUM_THREADS = 2

  Resolving package versions...
  Installed FFTW_jll ───────────────────── v3.3.9+5
  Installed AbstractFFTs ───────────────── v0.5.0
  Installed LoadFlint ──────────────────── v0.1.3
  Installed SpecialFunctions ───────────── v0.10.0
  Installed BinaryProvider ─────────────── v0.5.9
  Installed AbstractAlgebra ────────────── v0.9.1
  Installed Nemo ───────────────────────── v0.17.5
  Installed OpenSpecFun_jll ────────────── v0.5.3+3
  Installed Reexport ───────────────────── v0.2.0
  Installed IntelOpenMP_jll ────────────── v2018.0.3+0
  Installed MKL_jll ────────────────────── v2019.0.117+2
  Installed CompilerSupportLibraries_jll ─ v0.3.3+0
  Installed FFTW ───────────────────────── v1.2.1
  Installed TwoFAST ────────────────────── v0.1.1
   Updating `~/.julia/environments/v1.4/Project.toml`
  [0dd23c3e] + TwoFAST v0.1.1
   Updating `~/.julia/environments/v1.4/Manifest.toml`
  [c3fe647b] + AbstractAlgebra v0.9.1
  [621f4979] + AbstractFFTs v0.5.0
  [b99e7846] + BinaryProvider v0.5.9
  [e66e0078] + CompilerSupportLibraries_jll v0.3.3+0
  [7a1cc6ca] + FFTW v1.2.1
  [f5851436] + FFTW_jll v3.3.9+5
  [1d5cc7b8] + IntelOpenMP_jll v2018.0.3+0
  [472f376f] + LoadFlint v0.1.3
  [856f044c] + MKL_jll v2019.0.117+2
  [2edaba10] + Nemo v0.17.5
  [efe28fd5] + OpenSpecFun_jll v0.5.3+3
  [189a3867] + Reexport v0.2.0
  [276daf66] + SpecialFunctions v0.10.0
  [0dd23c3e] + TwoFAST v0.1.1
  [2a0f44e3] + Base64 
  [ade2ca70] + Dates 
  [8bb1440f] + DelimitedFiles 
  [8ba89e20] + Distributed 
  [b77e0a4c] + InteractiveUtils 
  [76f85450] + LibGit2 
  [8f399da3] + Libdl 
  [37e2e46d] + LinearAlgebra 
  [56ddb016] + Logging 
  [d6f4376e] + Markdown 
  [a63ad114] + Mmap 
  [44cfe95a] + Pkg 
  [de0858da] + Printf 
  [3fa0cd96] + REPL 
  [9a3f8284] + Random 
  [ea8e919c] + SHA 
  [9e88b42a] + Serialization 
  [6462fe0b] + Sockets 
  [2f01184e] + SparseArrays 
  [8dfed614] + Test 
  [cf7118a7] + UUIDs 
  [4ec0a83e] + Unicode 
   Building LoadFlint → `~/.julia/packages/LoadFlint/42zpR/deps/build.log`
   Building Nemo ─────→ `~/.julia/packages/Nemo/Pc5ui/deps/build.log`
   Building FFTW ─────→ `~/.julia/packages/FFTW/5DZuu/deps/build.log`
    Testing TwoFAST
Status `/tmp/jl_XAXpX4/Manifest.toml`
  [c3fe647b] AbstractAlgebra v0.9.1
  [621f4979] AbstractFFTs v0.5.0
  [b99e7846] BinaryProvider v0.5.9
  [e66e0078] CompilerSupportLibraries_jll v0.3.3+0
  [39dd38d3] Dierckx v0.4.1
  [7a1cc6ca] FFTW v1.2.1
  [f5851436] FFTW_jll v3.3.9+5
  [1d5cc7b8] IntelOpenMP_jll v2018.0.3+0
  [472f376f] LoadFlint v0.1.3
  [856f044c] MKL_jll v2019.0.117+2
  [2edaba10] Nemo v0.17.5
  [efe28fd5] OpenSpecFun_jll v0.5.3+3
  [189a3867] Reexport v0.2.0
  [276daf66] SpecialFunctions v0.10.0
  [0dd23c3e] TwoFAST v0.1.1
  [2a0f44e3] Base64 
  [ade2ca70] Dates 
  [8bb1440f] DelimitedFiles 
  [8ba89e20] Distributed 
  [b77e0a4c] InteractiveUtils 
  [76f85450] LibGit2 
  [8f399da3] Libdl 
  [37e2e46d] LinearAlgebra 
  [56ddb016] Logging 
  [d6f4376e] Markdown 
  [a63ad114] Mmap 
  [44cfe95a] Pkg 
  [de0858da] Printf 
  [3fa0cd96] REPL 
  [9a3f8284] Random 
  [ea8e919c] SHA 
  [9e88b42a] Serialization 
  [6462fe0b] Sockets 
  [2f01184e] SparseArrays 
  [8dfed614] Test 
  [cf7118a7] UUIDs 
  [4ec0a83e] Unicode 
Testing ξ(r), ℓ=0, ν=-1 ... passed
Testing ξ(r), ℓ=0, ν=0 ... passed
Testing ξ(r), ℓ=0, ν=1 ... passed
Testing ξ(r), ℓ=0, ν=2 ... passed
Testing ξ(r), ℓ=0, ν=3 ... passed
Testing ξ(r), ℓ=1, ν=0 ... passed
Testing ξ(r), ℓ=1, ν=1 ... passed
Testing ξ(r), ℓ=1, ν=2 ... passed
Testing ξ(r), ℓ=1, ν=3 ... passed
Testing ξ(r), ℓ=2, ν=-1 ... passed
Testing ξ(r), ℓ=2, ν=0 ... passed
Testing ξ(r), ℓ=2, ν=1 ... passed
Testing ξ(r), ℓ=2, ν=2 ... passed
Testing ξ(r), ℓ=2, ν=3 ... passed
Testing ξ(r), ℓ=3, ν=-1 ... passed
Testing ξ(r), ℓ=3, ν=0 ... passed
Testing ξ(r), ℓ=3, ν=1 ... passed
Testing ξ(r), ℓ=3, ν=2 ... passed
Testing ξ(r), ℓ=3, ν=3 ... passed
Testing ξ(r), ℓ=4, ν=-1 ... passed
Testing ξ(r), ℓ=4, ν=0 ... passed
Testing ξ(r), ℓ=4, ν=1 ... passed
Testing ξ(r), ℓ=4, ν=2 ... passed
Testing ξ(r), ℓ=4, ν=3 ... passed
Testing ξ(r) ... passed
Testing ξ′(r) ... passed
Testing ξ″(r) ... passed
Calculating fmax: 
  dlrec    = 4
  dlrecRg1 = -4
  q=1.1, R=1.1:	  4.957864 seconds (1.39 M allocations: 76.347 MiB, 2.26% gc time)

  4.998695 seconds (1.41 M allocations: 77.456 MiB, 2.24% gc time)
ℓ = 1202
Δℓ = 4
ΔℓRg1 = -4
N = 1600
q = 1.1
kmin = 1.0e-5
kmax = 100000.00000000004
χ0 = 0.023029999999999995
RR = RR.tsv
ℓmax = ℓmax.bin
f21 = f21.bin
kmin = 1.0e-5
kmax = 100000.0
dlrec    = 4
dlrecRg1 = -4
Output size: 5741568 bytes = 0.005347251892089844 GiB
Output size: 51264 bytes = 4.774332046508789e-5 GiB
Reading 'out/F21EllCache'...   0.589122 seconds (320.90 k allocations: 16.481 MiB, 4.18% gc time)
ellmax: 1202
lmaxcache: 1202
fell[:,1,1] = Complex{Float64}[3.9583795592771634e-52 - 9.695233714158177e-68im, 3.990121772925759e-52 - 9.772979714843386e-68im]
ell 1202, elapsed: 0.0002491474151611328
ell 1201, elapsed: 2.1636409759521484
ell 1200, elapsed: 0.0004990100860595703
ell 1199, elapsed: 0.0004711151123046875
ell 1198, elapsed: 0.00047087669372558594
ell 1002, elapsed: 0.009734153747558594
ell 1001, elapsed: 0.0004899501800537109
ell 1000, elapsed: 0.00047206878662109375
ell 999, elapsed: 0.0004680156707763672
ell 998, elapsed: 0.0004849433898925781
ell 902, elapsed: 0.00503087043762207
ell 901, elapsed: 0.0004811286926269531
ell 900, elapsed: 0.0004680156707763672
ell 899, elapsed: 0.0004799365997314453
ell 898, elapsed: 0.00046896934509277344
ell 802, elapsed: 0.00510096549987793
ell 801, elapsed: 0.0004987716674804688
ell 800, elapsed: 0.00047206878662109375
ell 799, elapsed: 0.0004668235778808594
ell 798, elapsed: 0.00048089027404785156
ell 702, elapsed: 0.005013942718505859
ell 701, elapsed: 0.0004839897155761719
ell 700, elapsed: 0.0004677772521972656
ell 699, elapsed: 0.000492095947265625
ell 698, elapsed: 0.00046706199645996094
ell 602, elapsed: 0.005101919174194336
ell 601, elapsed: 0.0004839897155761719
ell 600, elapsed: 0.00047707557678222656
ell 599, elapsed: 0.0004680156707763672
ell 598, elapsed: 0.0004811286926269531
ell 502, elapsed: 0.005635976791381836
ell 501, elapsed: 0.0004830360412597656
ell 500, elapsed: 0.00047898292541503906
ell 499, elapsed: 0.0004699230194091797
ell 498, elapsed: 0.0004668235778808594
ell 402, elapsed: 0.005294084548950195
ell 401, elapsed: 0.000492095947265625
ell 400, elapsed: 0.00046896934509277344
ell 399, elapsed: 0.000476837158203125
ell 398, elapsed: 0.0004730224609375
ell 302, elapsed: 0.005103111267089844
ell 301, elapsed: 0.0004839897155761719
ell 300, elapsed: 0.00047707557678222656
ell 299, elapsed: 0.0004680156707763672
ell 298, elapsed: 0.0004668235778808594
ell 202, elapsed: 0.005136966705322266
ell 201, elapsed: 0.0004980564117431641
ell 200, elapsed: 0.00047898292541503906
ell 199, elapsed: 0.000469207763671875
ell 198, elapsed: 0.0004792213439941406
ell 152, elapsed: 0.0026628971099853516
ell 151, elapsed: 0.0004801750183105469
ell 150, elapsed: 0.0004680156707763672
ell 149, elapsed: 0.00047588348388671875
ell 148, elapsed: 0.00047016143798828125
ell 127, elapsed: 0.0015349388122558594
ell 126, elapsed: 0.0006561279296875
ell 125, elapsed: 0.0004699230194091797
ell 124, elapsed: 0.0004620552062988281
ell 123, elapsed: 0.00047707557678222656
ell 114, elapsed: 0.0008881092071533203
ell 113, elapsed: 0.00047278404235839844
ell 112, elapsed: 0.0004630088806152344
ell 111, elapsed: 0.0005698204040527344
ell 110, elapsed: 0.0004680156707763672
ell 102, elapsed: 0.0009191036224365234
ell 101, elapsed: 0.0004680156707763672
ell 100, elapsed: 0.0004630088806152344
ell 99, elapsed: 0.0004780292510986328
ell 98, elapsed: 0.00046896934509277344
ell 97, elapsed: 0.0005459785461425781
ell 96, elapsed: 0.0006539821624755859
ell 95, elapsed: 0.0005099773406982422
ell 94, elapsed: 0.0005791187286376953
ell 93, elapsed: 0.0005030632019042969
ell 92, elapsed: 0.0005629062652587891
ell 91, elapsed: 0.0005071163177490234
ell 90, elapsed: 0.0006680488586425781
ell 89, elapsed: 0.0005211830139160156
ell 88, elapsed: 0.0005679130554199219
ell 87, elapsed: 0.000514984130859375
ell 86, elapsed: 0.0005679130554199219
ell 85, elapsed: 0.0005030632019042969
ell 84, elapsed: 0.0006809234619140625
ell 83, elapsed: 0.0005109310150146484
ell 82, elapsed: 0.0005819797515869141
ell 81, elapsed: 0.0005009174346923828
ell 80, elapsed: 0.0005741119384765625
ell 79, elapsed: 0.0005080699920654297
ell 78, elapsed: 0.0005669593811035156
ell 77, elapsed: 0.0005669593811035156
ell 76, elapsed: 0.0005679130554199219
ell 75, elapsed: 0.0005130767822265625
ell 74, elapsed: 0.0005691051483154297
ell 73, elapsed: 0.00051116943359375
ell 72, elapsed: 0.0005750656127929688
ell 71, elapsed: 0.0005090236663818359
ell 70, elapsed: 0.0006000995635986328
ell 69, elapsed: 0.0005080699920654297
ell 68, elapsed: 0.0005669593811035156
ell 67, elapsed: 0.0005259513854980469
ell 66, elapsed: 0.0006349086761474609
ell 65, elapsed: 0.0005190372467041016
ell 64, elapsed: 0.0005669593811035156
ell 63, elapsed: 0.0005168914794921875
ell 62, elapsed: 0.0005729198455810547
ell 61, elapsed: 0.0005049705505371094
ell 60, elapsed: 0.000576019287109375
ell 59, elapsed: 0.0005040168762207031
ell 58, elapsed: 0.0005650520324707031
ell 57, elapsed: 0.0005068778991699219
ell 56, elapsed: 0.00086212158203125
ell 55, elapsed: 0.0005090236663818359
ell 54, elapsed: 0.0005638599395751953
ell 53, elapsed: 0.0005199909210205078
ell 52, elapsed: 0.0005710124969482422
ell 51, elapsed: 0.0005021095275878906
ell 50, elapsed: 0.0005679130554199219
ell 49, elapsed: 0.0005919933319091797
ell 48, elapsed: 0.0005898475646972656
ell 47, elapsed: 0.0005068778991699219
ell 46, elapsed: 0.0005741119384765625
ell 45, elapsed: 0.0005061626434326172
ell 44, elapsed: 0.0005669593811035156
ell 43, elapsed: 0.0005128383636474609
ell 42, elapsed: 0.0006601810455322266
ell 41, elapsed: 0.0005221366882324219
ell 40, elapsed: 0.0005710124969482422
ell 39, elapsed: 0.0005021095275878906
ell 38, elapsed: 0.0005719661712646484
ell 37, elapsed: 0.0005080699920654297
ell 36, elapsed: 0.0005757808685302734
ell 35, elapsed: 0.0005128383636474609
ell 34, elapsed: 0.0005707740783691406
ell 33, elapsed: 0.0005059242248535156
ell 32, elapsed: 0.0005629062652587891
ell 31, elapsed: 0.000514984130859375
ell 30, elapsed: 0.0005679130554199219
ell 29, elapsed: 0.0006239414215087891
ell 28, elapsed: 0.0005769729614257812
ell 27, elapsed: 0.0005021095275878906
ell 26, elapsed: 0.0005650520324707031
ell 25, elapsed: 0.0005049705505371094
ell 24, elapsed: 0.0005779266357421875
ell 23, elapsed: 0.0005030632019042969
ell 22, elapsed: 0.0006878376007080078
ell 21, elapsed: 0.0005130767822265625
ell 20, elapsed: 0.0005650520324707031
ell 19, elapsed: 0.0005159378051757812
ell 18, elapsed: 0.0005691051483154297
ell 17, elapsed: 0.0005040168762207031
ell 16, elapsed: 0.0005671977996826172
ell 15, elapsed: 0.0005881786346435547
ell 14, elapsed: 0.0005791187286376953
ell 13, elapsed: 0.0005061626434326172
ell 12, elapsed: 0.00057220458984375
ell 11, elapsed: 0.0005090236663818359
ell 10, elapsed: 0.0005679130554199219
ell 9, elapsed: 0.0005168914794921875
ell 8, elapsed: 0.0006809234619140625
ell 7, elapsed: 0.0005180835723876953
ell 6, elapsed: 0.0005700588226318359
ell 5, elapsed: 0.0005009174346923828
ell 4, elapsed: 0.0005719661712646484
ell 3, elapsed: 0.0005071163177490234
ell 2, elapsed: 0.0005869865417480469
ell 1, elapsed: 0.0006721019744873047
ell 0, elapsed: 0.0007109642028808594
  3.037095 seconds (2.03 M allocations: 98.021 MiB, 2.75% gc time)
elapsed: 0.0008499622344970703
step:          0.786368 sec (593.764 k allocations: 28.703 MB, 3.6% gc time)
swapping:      0.000524 sec (0 allocations: 0 byte, 0.0% gc time)
calc_Mellell!: 0.526703 sec (389.778 k allocations: 19.057 MB, 0.0% gc time)
  t0 :  0.0 sec (0 allocations: 0 byte, 0.0% gc time)
  tm2 : 0.0 sec (0 allocations: 0 byte, 0.0% gc time)
  tm2s: 0.0 sec (0 allocations: 0 byte, 0.0% gc time)
  tm4 : 0.0 sec (0 allocations: 0 byte, 0.0% gc time)
  tp2 : 0.0 sec (0 allocations: 0 byte, 0.0% gc time)
  tp2s: 0.0 sec (0 allocations: 0 byte, 0.0% gc time)
  tp4 : 0.0 sec (0 allocations: 0 byte, 0.0% gc time)
calc_wtdll!:   0.97537 sec (526.101 k allocations: 26.389 MB, 2.79% gc time)
calc_wljj!:    0.003708 sec (6 allocations: 96 byte, 0.0% gc time)
mult_prefac!:  0.0 sec (0 allocations: 0 byte, 0.0% gc time)
convert:       0.0 sec (0 allocations: 0 byte, 0.0% gc time)
write:         0.004037 sec (0 allocations: 0 byte, 0.0% gc time)
test_rand_2f1: 0.0 sec (0 allocations: 0 byte, 0.0% gc time)
Closing outfile out/Ml21-cache.bin...   0.000099 seconds
  2.623945 seconds (845.67 k allocations: 81.003 MiB, 0.86% gc time)
make_phi():   0.043361 seconds (8.33 k allocations: 250.531 KiB)
  0.367637 seconds (179.04 k allocations: 11.508 MiB, 9.86% gc time)
tskip:       2.8e-5 sec (0 allocations: 0 byte, 0.0% gc time)
tread:       0.002841 sec (19 allocations: 2.172 KB, 0.0% gc time)
tmultphi:    0.042284 sec (26.022 k allocations: 1.338 MB, 0.0% gc time)
tbrfft:      0.134479 sec (58.221 k allocations: 5.646 MB, 26.95% gc time)
tmultprefac: 0.003574 sec (0 allocations: 0 byte, 0.0% gc time)
toutfunc:    0.184327 sec (94.127 k allocations: 4.452 MB, 0.0% gc time)
Testing R=1.1 ... passed
Calculating fmax: 
  dlrec    = 4
  dlrecRg1 = -4
  q=1.1, R=1.0:	  0.001682 seconds (4.00 k allocations: 300.375 KiB)

  0.001915 seconds (4.04 k allocations: 334.734 KiB)
ℓ = 1202
Δℓ = 4
ΔℓRg1 = -4
N = 1600
q = 1.1
kmin = 1.0e-5
kmax = 100000.00000000004
χ0 = 0.023029999999999995
RR = RR.tsv
ℓmax = ℓmax.bin
f21 = f21.bin
kmin = 1.0e-5
kmax = 100000.0
dlrec    = 4
dlrecRg1 = -4
Output size: 61465536 bytes = 0.05724424123764038 GiB
Output size: 51264 bytes = 4.774332046508789e-5 GiB
Reading 'out/F21EllCache'...   0.003159 seconds (267 allocations: 84.656 KiB)
ellmax: 1202
lmaxcache: 1202
fell[:,1,1] = Complex{Float64}[809.6031528389767 - 1.9829558194077161e-13im, 0.0 + 0.0im]
ell 1202, elapsed: 2.5033950805664062e-5
ell 1201, elapsed: 0.0167388916015625
ell 1200, elapsed: 0.00040912628173828125
ell 1199, elapsed: 0.0003960132598876953
ell 1198, elapsed: 0.00037980079650878906
ell 1197, elapsed: 0.00045990943908691406
ell 1196, elapsed: 0.0004589557647705078
ell 1195, elapsed: 0.0003631114959716797
ell 1194, elapsed: 0.00028896331787109375
ell 1193, elapsed: 0.0003418922424316406
ell 1192, elapsed: 0.00028896331787109375
ell 1191, elapsed: 0.000347137451171875
ell 1190, elapsed: 0.0002899169921875
ell 1189, elapsed: 0.0003421306610107422
ell 1188, elapsed: 0.0002899169921875
ell 1187, elapsed: 0.0003399848937988281
ell 1186, elapsed: 0.0002899169921875
ell 1185, elapsed: 0.00045680999755859375
ell 1184, elapsed: 0.00038814544677734375
ell 1183, elapsed: 0.0004620552062988281
ell 1182, elapsed: 0.0003819465637207031
ell 1181, elapsed: 0.00045299530029296875
ell 1180, elapsed: 0.0003769397735595703
ell 1179, elapsed: 0.0004558563232421875
ell 1178, elapsed: 0.0003809928894042969
ell 1177, elapsed: 0.0004589557647705078
ell 1176, elapsed: 0.00041604042053222656
ell 1175, elapsed: 0.0004649162292480469
ell 1174, elapsed: 0.0003840923309326172
ell 1173, elapsed: 0.0004749298095703125
ell 1172, elapsed: 0.0005209445953369141
ell 1171, elapsed: 0.0006098747253417969
ell 1170, elapsed: 0.0005278587341308594
ell 1169, elapsed: 0.000682830810546875
ell 1168, elapsed: 0.0005238056182861328
ell 1167, elapsed: 0.0006120204925537109
ell 1166, elapsed: 0.0005350112915039062
ell 1165, elapsed: 0.0006120204925537109
ell 1164, elapsed: 0.0005280971527099609
ell 1163, elapsed: 0.0006120204925537109
ell 1162, elapsed: 0.0006270408630371094
ell 1161, elapsed: 0.0006091594696044922
ell 1160, elapsed: 0.0005321502685546875
ell 1159, elapsed: 0.0005950927734375
ell 1158, elapsed: 0.00039505958557128906
ell 1157, elapsed: 0.00047707557678222656
ell 1156, elapsed: 0.0004038810729980469
ell 1155, elapsed: 0.0007429122924804688
ell 1154, elapsed: 0.0004100799560546875
ell 1153, elapsed: 0.0004830360412597656
ell 1152, elapsed: 0.0004069805145263672
ell 1151, elapsed: 0.0004889965057373047
ell 1150, elapsed: 0.0004048347473144531
ell 1149, elapsed: 0.00046896934509277344
ell 1148, elapsed: 0.00041294097900390625
ell 1147, elapsed: 0.000579833984375
ell 1146, elapsed: 0.00040602684020996094
ell 1145, elapsed: 0.00046896934509277344
ell 1144, elapsed: 0.0004000663757324219
ell 1143, elapsed: 0.00047397613525390625
ell 1142, elapsed: 0.0004029273986816406
ell 1141, elapsed: 0.0004680156707763672
ell 1140, elapsed: 0.0003991127014160156
ell 1139, elapsed: 0.0005559921264648438
ell 1138, elapsed: 0.0004100799560546875
ell 1137, elapsed: 0.00047087669372558594
ell 1136, elapsed: 0.0004010200500488281
ell 1135, elapsed: 0.0004711151123046875
ell 1134, elapsed: 0.0003979206085205078
ell 1133, elapsed: 0.0004730224609375
ell 1132, elapsed: 0.0003979206085205078
ell 1131, elapsed: 0.0005719661712646484
ell 1130, elapsed: 0.0003991127014160156
ell 1129, elapsed: 0.0004718303680419922
ell 1128, elapsed: 0.0004010200500488281
ell 1127, elapsed: 0.0004749298095703125
ell 1126, elapsed: 0.0004069805145263672
ell 1125, elapsed: 0.0004889965057373047
ell 1124, elapsed: 0.0004019737243652344
ell 1123, elapsed: 0.0004730224609375
ell 1122, elapsed: 0.0004849433898925781
ell 1121, elapsed: 0.00047588348388671875
ell 1120, elapsed: 0.0003979206085205078
ell 1119, elapsed: 0.0004639625549316406
ell 1118, elapsed: 0.0003960132598876953
ell 1117, elapsed: 0.00047588348388671875
ell 1116, elapsed: 0.00039696693420410156
ell 1115, elapsed: 0.00047588348388671875
ell 1114, elapsed: 0.000514984130859375
ell 1113, elapsed: 0.0004639625549316406
ell 1112, elapsed: 0.00038909912109375
ell 1111, elapsed: 0.0004680156707763672
ell 1110, elapsed: 0.00038814544677734375
ell 1109, elapsed: 0.0004508495330810547
ell 1108, elapsed: 0.00038909912109375
ell 1107, elapsed: 0.00045990943908691406
ell 1106, elapsed: 0.00038909912109375
ell 1105, elapsed: 0.0005528926849365234
ell 1104, elapsed: 0.00044417381286621094
ell 1103, elapsed: 0.0006279945373535156
ell 1102, elapsed: 0.0005240440368652344
ell 1101, elapsed: 0.0005559921264648438
ell 1100, elapsed: 0.0003781318664550781
ell 1099, elapsed: 0.0004410743713378906
ell 1098, elapsed: 0.0004961490631103516
ell 1097, elapsed: 0.00045299530029296875
ell 1096, elapsed: 0.0003800392150878906
ell 1095, elapsed: 0.0004420280456542969
ell 1094, elapsed: 0.00045180320739746094
ell 1093, elapsed: 0.0006170272827148438
ell 1092, elapsed: 0.00039005279541015625
ell 1091, elapsed: 0.00044798851013183594
ell 1090, elapsed: 0.0004899501800537109
ell 1089, elapsed: 0.0004699230194091797
ell 1088, elapsed: 0.0003981590270996094
ell 1087, elapsed: 0.00045299530029296875
ell 1086, elapsed: 0.0004899501800537109
ell 1085, elapsed: 0.0007190704345703125
ell 1084, elapsed: 0.0005888938903808594
ell 1083, elapsed: 0.0007078647613525391
ell 1082, elapsed: 0.00038313865661621094
ell 1081, elapsed: 0.0005991458892822266
ell 1080, elapsed: 0.0006089210510253906
ell 1079, elapsed: 0.0007071495056152344
ell 1078, elapsed: 0.0004570484161376953
ell 1077, elapsed: 0.0005970001220703125
ell 1076, elapsed: 0.0006160736083984375
ell 1075, elapsed: 0.0004630088806152344
ell 1074, elapsed: 0.00038909912109375
ell 1073, elapsed: 0.0004520416259765625
ell 1072, elapsed: 0.0005431175231933594
ell 1071, elapsed: 0.0006289482116699219
ell 1070, elapsed: 0.0003809928894042969
ell 1069, elapsed: 0.0005800724029541016
ell 1068, elapsed: 0.0004558563232421875
ell 1067, elapsed: 0.0006949901580810547
ell 1066, elapsed: 0.0004620552062988281
ell 1065, elapsed: 0.00045299530029296875
ell 1064, elapsed: 0.0005419254302978516
ell 1063, elapsed: 0.0006220340728759766
ell 1062, elapsed: 0.0005729198455810547
ell 1061, elapsed: 0.0006039142608642578
ell 1060, elapsed: 0.0003859996795654297
ell 1059, elapsed: 0.0005850791931152344
ell 1058, elapsed: 0.0004990100860595703
ell 1057, elapsed: 0.0004448890686035156
ell 1056, elapsed: 0.0003829002380371094
ell 1055, elapsed: 0.0004420280456542969
ell 1054, elapsed: 0.0004820823669433594
ell 1053, elapsed: 0.0004639625549316406
ell 1052, elapsed: 0.0003800392150878906
ell 1051, elapsed: 0.0004451274871826172
ell 1050, elapsed: 0.00037980079650878906
ell 1049, elapsed: 0.0004448890686035156
ell 1048, elapsed: 0.0003788471221923828
ell 1047, elapsed: 0.00043892860412597656
ell 1046, elapsed: 0.00038504600524902344
ell 1045, elapsed: 0.0005521774291992188
ell 1044, elapsed: 0.0003769397735595703
ell 1043, elapsed: 0.00045609474182128906
ell 1042, elapsed: 0.0003809928894042969
ell 1041, elapsed: 0.0005691051483154297
ell 1040, elapsed: 0.0004980564117431641
ell 1039, elapsed: 0.0004508495330810547
ell 1038, elapsed: 0.00038504600524902344
ell 1037, elapsed: 0.0005350112915039062
ell 1036, elapsed: 0.00038695335388183594
ell 1035, elapsed: 0.0004401206970214844
ell 1034, elapsed: 0.0003769397735595703
ell 1033, elapsed: 0.00044608116149902344
ell 1032, elapsed: 0.0003769397735595703
ell 1031, elapsed: 0.0004458427429199219
ell 1030, elapsed: 0.0003790855407714844
ell 1029, elapsed: 0.0004420280456542969
ell 1028, elapsed: 0.0004830360412597656
ell 1027, elapsed: 0.00044798851013183594
ell 1026, elapsed: 0.0003809928894042969
ell 1025, elapsed: 0.0006089210510253906
ell 1024, elapsed: 0.0004570484161376953
ell 1023, elapsed: 0.00045299530029296875
ell 1022, elapsed: 0.0005190372467041016
ell 1021, elapsed: 0.0006659030914306641
ell 1020, elapsed: 0.0003859996795654297
ell 1019, elapsed: 0.0004589557647705078
ell 1018, elapsed: 0.0003910064697265625
ell 1017, elapsed: 0.0004570484161376953
ell 1016, elapsed: 0.00038814544677734375
ell 1015, elapsed: 0.00044989585876464844
ell 1014, elapsed: 0.00038695335388183594
ell 1013, elapsed: 0.00044989585876464844
ell 1012, elapsed: 0.0007319450378417969
ell 1011, elapsed: 0.0004639625549316406
ell 1010, elapsed: 0.00039315223693847656
ell 1009, elapsed: 0.0004680156707763672
ell 1008, elapsed: 0.0003960132598876953
ell 1007, elapsed: 0.0004699230194091797
ell 1006, elapsed: 0.0003981590270996094
ell 1005, elapsed: 0.00045490264892578125
ell 1004, elapsed: 0.0007050037384033203
ell 1003, elapsed: 0.00045299530029296875
ell 1002, elapsed: 0.0003790855407714844
ell 1001, elapsed: 0.0004458427429199219
ell 1000, elapsed: 0.0003788471221923828
ell 999, elapsed: 0.0004410743713378906
ell 998, elapsed: 0.0003809928894042969
ell 997, elapsed: 0.00044989585876464844
ell 996, elapsed: 0.0007829666137695312
ell 995, elapsed: 0.0004520416259765625
ell 994, elapsed: 0.0003788471221923828
ell 993, elapsed: 0.0004448890686035156
ell 992, elapsed: 0.0003809928894042969
ell 991, elapsed: 0.0004470348358154297
ell 990, elapsed: 0.0003790855407714844
ell 989, elapsed: 0.0004391670227050781
ell 988, elapsed: 0.0004961490631103516
ell 987, elapsed: 0.0004680156707763672
ell 986, elapsed: 0.00039005279541015625
ell 985, elapsed: 0.00044989585876464844
ell 984, elapsed: 0.0003809928894042969
ell 983, elapsed: 0.0004448890686035156
ell 982, elapsed: 0.00039196014404296875
ell 981, elapsed: 0.00045108795166015625
ell 980, elapsed: 0.0003809928894042969
ell 979, elapsed: 0.0009050369262695312
ell 978, elapsed: 0.0004830360412597656
ell 977, elapsed: 0.0006589889526367188
ell 976, elapsed: 0.00037980079650878906
ell 975, elapsed: 0.0004520416259765625
ell 974, elapsed: 0.00037598609924316406
ell 973, elapsed: 0.0004439353942871094
ell 972, elapsed: 0.0008230209350585938
ell 971, elapsed: 0.00045490264892578125
ell 970, elapsed: 0.0003879070281982422
ell 969, elapsed: 0.0004520416259765625
ell 968, elapsed: 0.0003829002380371094
ell 967, elapsed: 0.0004489421844482422
ell 966, elapsed: 0.00038313865661621094
ell 965, elapsed: 0.00044798851013183594
ell 964, elapsed: 0.0008308887481689453
ell 963, elapsed: 0.000453948974609375
ell 962, elapsed: 0.0003790855407714844
ell 961, elapsed: 0.0004630088806152344
ell 960, elapsed: 0.0003719329833984375
ell 959, elapsed: 0.0004508495330810547
ell 958, elapsed: 0.00037598609924316406
ell 957, elapsed: 0.0004341602325439453
ell 956, elapsed: 0.0009720325469970703
ell 955, elapsed: 0.00044417381286621094
ell 954, elapsed: 0.00039315223693847656
ell 953, elapsed: 0.0004391670227050781
ell 952, elapsed: 0.0003800392150878906
ell 951, elapsed: 0.0004749298095703125
ell 950, elapsed: 0.00038504600524902344
ell 949, elapsed: 0.0008809566497802734
ell 948, elapsed: 0.0004229545593261719
ell 947, elapsed: 0.00049591064453125
ell 946, elapsed: 0.0003898143768310547
ell 945, elapsed: 0.0004901885986328125
ell 944, elapsed: 0.00039196014404296875
ell 943, elapsed: 0.0004870891571044922
ell 942, elapsed: 0.0003859996795654297
ell 941, elapsed: 0.0008671283721923828
ell 940, elapsed: 0.0004191398620605469
ell 939, elapsed: 0.0004570484161376953
ell 938, elapsed: 0.0004208087921142578
ell 937, elapsed: 0.0004591941833496094
ell 936, elapsed: 0.00039315223693847656
ell 935, elapsed: 0.0004730224609375
ell 934, elapsed: 0.0007920265197753906
ell 933, elapsed: 0.0005240440368652344
ell 932, elapsed: 0.0003981590270996094
ell 931, elapsed: 0.000492095947265625
ell 930, elapsed: 0.00038886070251464844
ell 929, elapsed: 0.0004849433898925781
ell 928, elapsed: 0.00038909912109375
ell 927, elapsed: 0.0004839897155761719
ell 926, elapsed: 0.0008289813995361328
ell 925, elapsed: 0.00046515464782714844
ell 924, elapsed: 0.0004248619079589844
ell 923, elapsed: 0.00045609474182128906
ell 922, elapsed: 0.00041794776916503906
ell 921, elapsed: 0.0004508495330810547
ell 920, elapsed: 0.0003781318664550781
ell 919, elapsed: 0.0008940696716308594
ell 918, elapsed: 0.00042700767517089844
ell 917, elapsed: 0.00044989585876464844
ell 916, elapsed: 0.0004200935363769531
ell 915, elapsed: 0.0004532337188720703
ell 914, elapsed: 0.00042319297790527344
ell 913, elapsed: 0.00045800209045410156
ell 912, elapsed: 0.0004181861877441406
ell 911, elapsed: 0.0005621910095214844
ell 910, elapsed: 0.0003819465637207031
ell 909, elapsed: 0.0004470348358154297
ell 908, elapsed: 0.0003991127014160156
ell 907, elapsed: 0.00045800209045410156
ell 906, elapsed: 0.0003821849822998047
ell 905, elapsed: 0.0004899501800537109
ell 904, elapsed: 0.0003821849822998047
ell 903, elapsed: 0.0005218982696533203
ell 902, elapsed: 0.0004220008850097656
ell 901, elapsed: 0.00045013427734375
ell 900, elapsed: 0.0004189014434814453
ell 899, elapsed: 0.00044989585876464844
ell 898, elapsed: 0.00039505958557128906
ell 897, elapsed: 0.0004761219024658203
ell 896, elapsed: 0.0003898143768310547
ell 895, elapsed: 0.0004839897155761719
ell 894, elapsed: 0.0005061626434326172
ell 893, elapsed: 0.0004930496215820312
ell 892, elapsed: 0.0003898143768310547
ell 891, elapsed: 0.0004889965057373047
ell 890, elapsed: 0.0003879070281982422
ell 889, elapsed: 0.0004870891571044922
ell 888, elapsed: 0.0003879070281982422
ell 887, elapsed: 0.0004849433898925781
ell 886, elapsed: 0.0007600784301757812
ell 885, elapsed: 0.0004849433898925781
ell 884, elapsed: 0.00038695335388183594
ell 883, elapsed: 0.0004868507385253906
ell 882, elapsed: 0.00038695335388183594
ell 881, elapsed: 0.0004949569702148438
ell 880, elapsed: 0.00038504600524902344
ell 879, elapsed: 0.0004899501800537109
ell 878, elapsed: 0.00055694580078125
ell 877, elapsed: 0.0004999637603759766
ell 876, elapsed: 0.0003960132598876953
ell 875, elapsed: 0.0004849433898925781
ell 874, elapsed: 0.0004029273986816406
ell 873, elapsed: 0.0004730224609375
ell 872, elapsed: 0.0004119873046875
ell 871, elapsed: 0.0004639625549316406
ell 870, elapsed: 0.0005059242248535156
ell 869, elapsed: 0.00045418739318847656
ell 868, elapsed: 0.00038814544677734375
ell 867, elapsed: 0.0004470348358154297
ell 866, elapsed: 0.0003840923309326172
ell 865, elapsed: 0.00045609474182128906
ell 864, elapsed: 0.0003879070281982422
ell 863, elapsed: 0.0004489421844482422
ell 862, elapsed: 0.0003829002380371094
ell 861, elapsed: 0.0006430149078369141
ell 860, elapsed: 0.0004239082336425781
ell 859, elapsed: 0.00045800209045410156
ell 858, elapsed: 0.0003809928894042969
ell 857, elapsed: 0.0004570484161376953
ell 856, elapsed: 0.00039005279541015625
ell 855, elapsed: 0.0004608631134033203
ell 854, elapsed: 0.0003838539123535156
ell 853, elapsed: 0.0005757808685302734
ell 852, elapsed: 0.0003859996795654297
ell 851, elapsed: 0.00047588348388671875
ell 850, elapsed: 0.0004458427429199219
ell 849, elapsed: 0.000659942626953125
ell 848, elapsed: 0.0003979206085205078
ell 847, elapsed: 0.0004467964172363281
ell 846, elapsed: 0.000392913818359375
ell 845, elapsed: 0.0006470680236816406
ell 844, elapsed: 0.00039315223693847656
ell 843, elapsed: 0.0004551410675048828
ell 842, elapsed: 0.0003840923309326172
ell 841, elapsed: 0.0004611015319824219
ell 840, elapsed: 0.00038504600524902344
ell 839, elapsed: 0.0004520416259765625
ell 838, elapsed: 0.0003859996795654297
ell 837, elapsed: 0.0005838871002197266
ell 836, elapsed: 0.0003809928894042969
ell 835, elapsed: 0.00044989585876464844
ell 834, elapsed: 0.00037980079650878906
ell 833, elapsed: 0.0004520416259765625
ell 832, elapsed: 0.00038695335388183594
ell 831, elapsed: 0.0004589557647705078
ell 830, elapsed: 0.0003809928894042969
ell 829, elapsed: 0.0007128715515136719
ell 828, elapsed: 0.00044918060302734375
ell 827, elapsed: 0.000453948974609375
ell 826, elapsed: 0.00038504600524902344
ell 825, elapsed: 0.0004420280456542969
ell 824, elapsed: 0.00038504600524902344
ell 823, elapsed: 0.0004467964172363281
ell 822, elapsed: 0.0004799365997314453
ell 821, elapsed: 0.0007479190826416016
ell 820, elapsed: 0.0003859996795654297
ell 819, elapsed: 0.00045108795166015625
ell 818, elapsed: 0.0003809928894042969
ell 817, elapsed: 0.00045180320739746094
ell 816, elapsed: 0.0003809928894042969
ell 815, elapsed: 0.0005438327789306641
ell 814, elapsed: 0.0005359649658203125
ell 813, elapsed: 0.0006811618804931641
ell 812, elapsed: 0.0003998279571533203
ell 811, elapsed: 0.00045609474182128906
ell 810, elapsed: 0.0003819465637207031
ell 809, elapsed: 0.00045609474182128906
ell 808, elapsed: 0.00038695335388183594
ell 807, elapsed: 0.0004639625549316406
ell 806, elapsed: 0.0003848075866699219
ell 805, elapsed: 0.0005500316619873047
ell 804, elapsed: 0.000392913818359375
ell 803, elapsed: 0.000453948974609375
ell 802, elapsed: 0.0003879070281982422
ell 801, elapsed: 0.00045108795166015625
ell 800, elapsed: 0.00038504600524902344
ell 799, elapsed: 0.0004508495330810547
ell 798, elapsed: 0.00038695335388183594
ell 797, elapsed: 0.00045299530029296875
ell 796, elapsed: 0.00055694580078125
ell 795, elapsed: 0.00047397613525390625
ell 794, elapsed: 0.0003879070281982422
ell 793, elapsed: 0.0004661083221435547
ell 792, elapsed: 0.0003910064697265625
ell 791, elapsed: 0.0004570484161376953
ell 790, elapsed: 0.0003879070281982422
ell 789, elapsed: 0.00045609474182128906
ell 788, elapsed: 0.0005080699920654297
ell 787, elapsed: 0.0004730224609375
ell 786, elapsed: 0.00038123130798339844
ell 785, elapsed: 0.0004489421844482422
ell 784, elapsed: 0.0005271434783935547
ell 783, elapsed: 0.0005650520324707031
ell 782, elapsed: 0.00038886070251464844
ell 781, elapsed: 0.00045013427734375
ell 780, elapsed: 0.0005002021789550781
ell 779, elapsed: 0.0004601478576660156
ell 778, elapsed: 0.00039005279541015625
ell 777, elapsed: 0.00045490264892578125
ell 776, elapsed: 0.0003829002380371094
ell 775, elapsed: 0.00044798851013183594
ell 774, elapsed: 0.0003910064697265625
ell 773, elapsed: 0.0004470348358154297
ell 772, elapsed: 0.00038504600524902344
ell 771, elapsed: 0.0005850791931152344
ell 770, elapsed: 0.0003859996795654297
ell 769, elapsed: 0.0004489421844482422
ell 768, elapsed: 0.0003819465637207031
ell 767, elapsed: 0.0004558563232421875
ell 766, elapsed: 0.00039005279541015625
ell 765, elapsed: 0.0005619525909423828
ell 764, elapsed: 0.0005159378051757812
ell 763, elapsed: 0.0006220340728759766
ell 762, elapsed: 0.00038909912109375
ell 761, elapsed: 0.00045418739318847656
ell 760, elapsed: 0.0003809928894042969
ell 759, elapsed: 0.00044798851013183594
ell 758, elapsed: 0.00038504600524902344
ell 757, elapsed: 0.00045299530029296875
ell 756, elapsed: 0.0003838539123535156
ell 755, elapsed: 0.0005600452423095703
ell 754, elapsed: 0.0003859996795654297
ell 753, elapsed: 0.00045299530029296875
ell 752, elapsed: 0.00038695335388183594
ell 751, elapsed: 0.00045490264892578125
ell 750, elapsed: 0.0003859996795654297
ell 749, elapsed: 0.00045108795166015625
ell 748, elapsed: 0.00038504600524902344
ell 747, elapsed: 0.00045108795166015625
ell 746, elapsed: 0.0005538463592529297
ell 745, elapsed: 0.0004611015319824219
ell 744, elapsed: 0.0003879070281982422
ell 743, elapsed: 0.0004520416259765625
ell 742, elapsed: 0.00038886070251464844
ell 741, elapsed: 0.00046181678771972656
ell 740, elapsed: 0.00038313865661621094
ell 739, elapsed: 0.0004429817199707031
ell 738, elapsed: 0.0003819465637207031
ell 737, elapsed: 0.0005700588226318359
ell 736, elapsed: 0.00038504600524902344
ell 735, elapsed: 0.00044989585876464844
ell 734, elapsed: 0.0003819465637207031
ell 733, elapsed: 0.0004467964172363281
ell 732, elapsed: 0.0003879070281982422
ell 731, elapsed: 0.00044798851013183594
ell 730, elapsed: 0.00037598609924316406
ell 729, elapsed: 0.0006020069122314453
ell 728, elapsed: 0.00039505958557128906
ell 727, elapsed: 0.00045609474182128906
ell 726, elapsed: 0.00038814544677734375
ell 725, elapsed: 0.00045800209045410156
ell 724, elapsed: 0.0003859996795654297
ell 723, elapsed: 0.0006480216979980469
ell 722, elapsed: 0.00048613548278808594
ell 721, elapsed: 0.0007488727569580078
ell 720, elapsed: 0.0003840923309326172
ell 719, elapsed: 0.00044798851013183594
ell 718, elapsed: 0.0003800392150878906
ell 717, elapsed: 0.00044918060302734375
ell 716, elapsed: 0.0003859996795654297
ell 715, elapsed: 0.0004570484161376953
ell 714, elapsed: 0.0003840923309326172
ell 713, elapsed: 0.0005698204040527344
ell 712, elapsed: 0.00039196014404296875
ell 711, elapsed: 0.0005850791931152344
ell 710, elapsed: 0.0004820823669433594
ell 709, elapsed: 0.00045108795166015625
ell 708, elapsed: 0.0003809928894042969
ell 707, elapsed: 0.00045490264892578125
ell 706, elapsed: 0.000392913818359375
ell 705, elapsed: 0.0005669593811035156
ell 704, elapsed: 0.00039887428283691406
ell 703, elapsed: 0.0006051063537597656
ell 702, elapsed: 0.0004379749298095703
ell 701, elapsed: 0.0004620552062988281
ell 700, elapsed: 0.0003859996795654297
ell 699, elapsed: 0.00045490264892578125
ell 698, elapsed: 0.0003809928894042969
ell 697, elapsed: 0.0007011890411376953
ell 696, elapsed: 0.0004341602325439453
ell 695, elapsed: 0.00045180320739746094
ell 694, elapsed: 0.0003819465637207031
ell 693, elapsed: 0.00044798851013183594
ell 692, elapsed: 0.0003840923309326172
ell 691, elapsed: 0.00045299530029296875
ell 690, elapsed: 0.00038695335388183594
ell 689, elapsed: 0.0005509853363037109
ell 688, elapsed: 0.0003898143768310547
ell 687, elapsed: 0.00044798851013183594
ell 686, elapsed: 0.00038313865661621094
ell 685, elapsed: 0.0004589557647705078
ell 684, elapsed: 0.00038504600524902344
ell 683, elapsed: 0.00045490264892578125
ell 682, elapsed: 0.0003809928894042969
ell 681, elapsed: 0.00045299530029296875
ell 680, elapsed: 0.0004839897155761719
ell 679, elapsed: 0.0004611015319824219
ell 678, elapsed: 0.00038313865661621094
ell 677, elapsed: 0.0004649162292480469
ell 676, elapsed: 0.0003879070281982422
ell 675, elapsed: 0.00045180320739746094
ell 674, elapsed: 0.00038695335388183594
ell 673, elapsed: 0.0004489421844482422
ell 672, elapsed: 0.00039005279541015625
ell 671, elapsed: 0.0005428791046142578
ell 670, elapsed: 0.0003829002380371094
ell 669, elapsed: 0.0004642009735107422
ell 668, elapsed: 0.0003809928894042969
ell 667, elapsed: 0.0004470348358154297
ell 666, elapsed: 0.0003809928894042969
ell 665, elapsed: 0.00044989585876464844
ell 664, elapsed: 0.0003809928894042969
ell 663, elapsed: 0.0005500316619873047
ell 662, elapsed: 0.00038504600524902344
ell 661, elapsed: 0.0004448890686035156
ell 660, elapsed: 0.0003800392150878906
ell 659, elapsed: 0.0004420280456542969
ell 658, elapsed: 0.0003809928894042969
ell 657, elapsed: 0.0004458427429199219
ell 656, elapsed: 0.0003819465637207031
ell 655, elapsed: 0.00043892860412597656
ell 654, elapsed: 0.0004858970642089844
ell 653, elapsed: 0.00044608116149902344
ell 652, elapsed: 0.0003809928894042969
ell 651, elapsed: 0.0004520416259765625
ell 650, elapsed: 0.0003819465637207031
ell 649, elapsed: 0.00044608116149902344
ell 648, elapsed: 0.0003781318664550781
ell 647, elapsed: 0.0004439353942871094
ell 646, elapsed: 0.0003809928894042969
ell 645, elapsed: 0.00055694580078125
ell 644, elapsed: 0.0003809928894042969
ell 643, elapsed: 0.0004448890686035156
ell 642, elapsed: 0.0003859996795654297
ell 641, elapsed: 0.0004448890686035156
ell 640, elapsed: 0.00038313865661621094
ell 639, elapsed: 0.0004448890686035156
ell 638, elapsed: 0.0003809928894042969
ell 637, elapsed: 0.0004470348358154297
ell 636, elapsed: 0.0004918575286865234
ell 635, elapsed: 0.0004508495330810547
ell 634, elapsed: 0.0003809928894042969
ell 633, elapsed: 0.0004458427429199219
ell 632, elapsed: 0.0003781318664550781
ell 631, elapsed: 0.0004439353942871094
ell 630, elapsed: 0.0003829002380371094
ell 629, elapsed: 0.0004520416259765625
ell 628, elapsed: 0.00038504600524902344
ell 627, elapsed: 0.0006039142608642578
ell 626, elapsed: 0.00039315223693847656
ell 625, elapsed: 0.0004520416259765625
ell 624, elapsed: 0.0003840923309326172
ell 623, elapsed: 0.0004410743713378906
ell 622, elapsed: 0.00038504600524902344
ell 621, elapsed: 0.00043892860412597656
ell 620, elapsed: 0.0003809928894042969
ell 619, elapsed: 0.0005509853363037109
ell 618, elapsed: 0.00038313865661621094
ell 617, elapsed: 0.0004432201385498047
ell 616, elapsed: 0.0003790855407714844
ell 615, elapsed: 0.00044417381286621094
ell 614, elapsed: 0.0003800392150878906
ell 613, elapsed: 0.0004432201385498047
ell 612, elapsed: 0.0003809928894042969
ell 611, elapsed: 0.0004448890686035156
ell 610, elapsed: 0.0005249977111816406
ell 609, elapsed: 0.00045800209045410156
ell 608, elapsed: 0.0003840923309326172
ell 607, elapsed: 0.0004429817199707031
ell 606, elapsed: 0.0003800392150878906
ell 605, elapsed: 0.00044417381286621094
ell 604, elapsed: 0.00038504600524902344
ell 603, elapsed: 0.0006248950958251953
ell 602, elapsed: 0.0005340576171875
ell 601, elapsed: 0.00044608116149902344
ell 600, elapsed: 0.0003838539123535156
ell 599, elapsed: 0.0004467964172363281
ell 598, elapsed: 0.0003790855407714844
ell 597, elapsed: 0.0004589557647705078
ell 596, elapsed: 0.000392913818359375
ell 595, elapsed: 0.0004551410675048828
ell 594, elapsed: 0.0003838539123535156
ell 593, elapsed: 0.0006139278411865234
ell 592, elapsed: 0.00039196014404296875
ell 591, elapsed: 0.00044798851013183594
ell 590, elapsed: 0.0003859996795654297
ell 589, elapsed: 0.000453948974609375
ell 588, elapsed: 0.00038695335388183594
ell 587, elapsed: 0.0004520416259765625
ell 586, elapsed: 0.00038504600524902344
ell 585, elapsed: 0.0005559921264648438
ell 584, elapsed: 0.0003840923309326172
ell 583, elapsed: 0.00045490264892578125
ell 582, elapsed: 0.0003910064697265625
ell 581, elapsed: 0.0004601478576660156
ell 580, elapsed: 0.0003848075866699219
ell 579, elapsed: 0.00045180320739746094
ell 578, elapsed: 0.00039196014404296875
ell 577, elapsed: 0.00045990943908691406
ell 576, elapsed: 0.0005388259887695312
ell 575, elapsed: 0.0005679130554199219
ell 574, elapsed: 0.0004780292510986328
ell 573, elapsed: 0.0005490779876708984
ell 572, elapsed: 0.0004811286926269531
ell 571, elapsed: 0.0005528926849365234
ell 570, elapsed: 0.00048804283142089844
ell 569, elapsed: 0.0005340576171875
ell 568, elapsed: 0.0003809928894042969
ell 567, elapsed: 0.00045609474182128906
ell 566, elapsed: 0.0003910064697265625
ell 565, elapsed: 0.0004589557647705078
ell 564, elapsed: 0.0003921985626220703
ell 563, elapsed: 0.00045990943908691406
ell 562, elapsed: 0.00038886070251464844
ell 561, elapsed: 0.0005750656127929688
ell 560, elapsed: 0.00047516822814941406
ell 559, elapsed: 0.0005519390106201172
ell 558, elapsed: 0.00047898292541503906
ell 557, elapsed: 0.000553131103515625
ell 556, elapsed: 0.0004699230194091797
ell 555, elapsed: 0.0006709098815917969
ell 554, elapsed: 0.0004458427429199219
ell 553, elapsed: 0.00045299530029296875
ell 552, elapsed: 0.0003859996795654297
ell 551, elapsed: 0.0004589557647705078
ell 550, elapsed: 0.000392913818359375
ell 549, elapsed: 0.0004591941833496094
ell 548, elapsed: 0.0003879070281982422
ell 547, elapsed: 0.0006690025329589844
ell 546, elapsed: 0.00047206878662109375
ell 545, elapsed: 0.0005459785461425781
ell 544, elapsed: 0.0005199909210205078
ell 543, elapsed: 0.0007359981536865234
ell 542, elapsed: 0.0005249977111816406
ell 541, elapsed: 0.0005090236663818359
ell 540, elapsed: 0.0004780292510986328
ell 539, elapsed: 0.0006880760192871094
ell 538, elapsed: 0.00043892860412597656
ell 537, elapsed: 0.0005540847778320312
ell 536, elapsed: 0.0005340576171875
ell 535, elapsed: 0.0005540847778320312
ell 534, elapsed: 0.0005168914794921875
ell 533, elapsed: 0.0006320476531982422
ell 532, elapsed: 0.0005190372467041016
ell 531, elapsed: 0.0006999969482421875
ell 530, elapsed: 0.00043392181396484375
ell 529, elapsed: 0.00045299530029296875
ell 528, elapsed: 0.0003871917724609375
ell 527, elapsed: 0.0006918907165527344
ell 526, elapsed: 0.00040602684020996094
ell 525, elapsed: 0.00044798851013183594
ell 524, elapsed: 0.0003859996795654297
ell 523, elapsed: 0.0006120204925537109
ell 522, elapsed: 0.0004589557647705078
ell 521, elapsed: 0.0004248619079589844
ell 520, elapsed: 0.0003559589385986328
ell 519, elapsed: 0.0005829334259033203
ell 518, elapsed: 0.0005841255187988281
ell 517, elapsed: 0.0005538463592529297
ell 516, elapsed: 0.00037097930908203125
ell 515, elapsed: 0.0006020069122314453
ell 514, elapsed: 0.0005881786346435547
ell 513, elapsed: 0.0005979537963867188
ell 512, elapsed: 0.0005850791931152344
ell 511, elapsed: 0.0006220340728759766
ell 510, elapsed: 0.0006167888641357422
ell 509, elapsed: 0.0006260871887207031
ell 508, elapsed: 0.0005049705505371094
ell 507, elapsed: 0.0007112026214599609
ell 506, elapsed: 0.0005221366882324219
ell 505, elapsed: 0.00043392181396484375
ell 504, elapsed: 0.0004899501800537109
ell 503, elapsed: 0.0006821155548095703
ell 502, elapsed: 0.0005118846893310547
ell 501, elapsed: 0.0006589889526367188
ell 500, elapsed: 0.0005500316619873047
ell 499, elapsed: 0.0006220340728759766
ell 498, elapsed: 0.0004830360412597656
ell 497, elapsed: 0.0006449222564697266
ell 496, elapsed: 0.0006129741668701172
ell 495, elapsed: 0.0007159709930419922
ell 494, elapsed: 0.0006051063537597656
ell 493, elapsed: 0.0005469322204589844
ell 492, elapsed: 0.0005631446838378906
ell 491, elapsed: 0.0005629062652587891
ell 490, elapsed: 0.0004608631134033203
ell 489, elapsed: 0.0007081031799316406
ell 488, elapsed: 0.0006198883056640625
ell 487, elapsed: 0.000614166259765625
ell 486, elapsed: 0.0005190372467041016
ell 485, elapsed: 0.0007078647613525391
ell 484, elapsed: 0.0005309581756591797
ell 483, elapsed: 0.0006499290466308594
ell 482, elapsed: 0.00047087669372558594
ell 481, elapsed: 0.0007088184356689453
ell 480, elapsed: 0.0004761219024658203
ell 479, elapsed: 0.0006539821624755859
ell 478, elapsed: 0.0005619525909423828
ell 477, elapsed: 0.0005931854248046875
ell 476, elapsed: 0.0005600452423095703
ell 475, elapsed: 0.0006010532379150391
ell 474, elapsed: 0.00041294097900390625
ell 473, elapsed: 0.0005879402160644531
ell 472, elapsed: 0.0006098747253417969
ell 471, elapsed: 0.00061798095703125
ell 470, elapsed: 0.00039386749267578125
ell 469, elapsed: 0.0004630088806152344
ell 468, elapsed: 0.0005221366882324219
ell 467, elapsed: 0.0006420612335205078
ell 466, elapsed: 0.00039887428283691406
ell 465, elapsed: 0.0006031990051269531
ell 464, elapsed: 0.0005209445953369141
ell 463, elapsed: 0.0006380081176757812
ell 462, elapsed: 0.0004839897155761719
ell 461, elapsed: 0.0004520416259765625
ell 460, elapsed: 0.0004069805145263672
ell 459, elapsed: 0.0004601478576660156
ell 458, elapsed: 0.00038695335388183594
ell 457, elapsed: 0.0004558563232421875
ell 456, elapsed: 0.0004489421844482422
ell 455, elapsed: 0.0006890296936035156
ell 454, elapsed: 0.0005040168762207031
ell 453, elapsed: 0.0006921291351318359
ell 452, elapsed: 0.00039386749267578125
ell 451, elapsed: 0.00045490264892578125
ell 450, elapsed: 0.0003910064697265625
ell 449, elapsed: 0.0006210803985595703
ell 448, elapsed: 0.0004799365997314453
ell 447, elapsed: 0.0006239414215087891
ell 446, elapsed: 0.0004799365997314453
ell 445, elapsed: 0.0004811286926269531
ell 444, elapsed: 0.0005350112915039062
ell 443, elapsed: 0.000698089599609375
ell 442, elapsed: 0.0006120204925537109
ell 441, elapsed: 0.0005240440368652344
ell 440, elapsed: 0.0005600452423095703
ell 439, elapsed: 0.0007519721984863281
ell 438, elapsed: 0.0004730224609375
ell 437, elapsed: 0.0005941390991210938
ell 436, elapsed: 0.0004870891571044922
ell 435, elapsed: 0.00044989585876464844
ell 434, elapsed: 0.0004661083221435547
ell 433, elapsed: 0.0006270408630371094
ell 432, elapsed: 0.0005838871002197266
ell 431, elapsed: 0.000576019287109375
ell 430, elapsed: 0.0003840923309326172
ell 429, elapsed: 0.0004470348358154297
ell 428, elapsed: 0.0003819465637207031
ell 427, elapsed: 0.0006170272827148438
ell 426, elapsed: 0.0004649162292480469
ell 425, elapsed: 0.00044989585876464844
ell 424, elapsed: 0.00043487548828125
ell 423, elapsed: 0.0005438327789306641
ell 422, elapsed: 0.0005340576171875
ell 421, elapsed: 0.0004520416259765625
ell 420, elapsed: 0.0003840923309326172
ell 419, elapsed: 0.00044608116149902344
ell 418, elapsed: 0.00038695335388183594
ell 417, elapsed: 0.00044989585876464844
ell 416, elapsed: 0.000492095947265625
ell 415, elapsed: 0.0006239414215087891
ell 414, elapsed: 0.0003859996795654297
ell 413, elapsed: 0.0004589557647705078
ell 412, elapsed: 0.0003840923309326172
ell 411, elapsed: 0.0006158351898193359
ell 410, elapsed: 0.0004570484161376953
ell 409, elapsed: 0.00045299530029296875
ell 408, elapsed: 0.00041604042053222656
ell 407, elapsed: 0.0006070137023925781
ell 406, elapsed: 0.0004730224609375
ell 405, elapsed: 0.0004558563232421875
ell 404, elapsed: 0.0003819465637207031
ell 403, elapsed: 0.00045490264892578125
ell 402, elapsed: 0.00038909912109375
ell 401, elapsed: 0.0004439353942871094
ell 400, elapsed: 0.00042700767517089844
ell 399, elapsed: 0.00044989585876464844
ell 398, elapsed: 0.0005559921264648438
ell 397, elapsed: 0.0006151199340820312
ell 396, elapsed: 0.0005421638488769531
ell 395, elapsed: 0.0006971359252929688
ell 394, elapsed: 0.0004558563232421875
ell 393, elapsed: 0.0006811618804931641
ell 392, elapsed: 0.0005040168762207031
ell 391, elapsed: 0.00044989585876464844
ell 390, elapsed: 0.0005049705505371094
ell 389, elapsed: 0.0005960464477539062
ell 388, elapsed: 0.00038504600524902344
ell 387, elapsed: 0.0006489753723144531
ell 386, elapsed: 0.0004699230194091797
ell 385, elapsed: 0.00045299530029296875
ell 384, elapsed: 0.0003688335418701172
ell 383, elapsed: 0.00045299530029296875
ell 382, elapsed: 0.0004870891571044922
ell 381, elapsed: 0.000621795654296875
ell 380, elapsed: 0.0003769397735595703
ell 379, elapsed: 0.00046706199645996094
ell 378, elapsed: 0.0005481243133544922
ell 377, elapsed: 0.0006921291351318359
ell 376, elapsed: 0.0005021095275878906
ell 375, elapsed: 0.00044989585876464844
ell 374, elapsed: 0.0005462169647216797
ell 373, elapsed: 0.0006918907165527344
ell 372, elapsed: 0.0006489753723144531
ell 371, elapsed: 0.0007100105285644531
ell 370, elapsed: 0.0004439353942871094
ell 369, elapsed: 0.0005719661712646484
ell 368, elapsed: 0.0006029605865478516
ell 367, elapsed: 0.0006968975067138672
ell 366, elapsed: 0.0006020069122314453
ell 365, elapsed: 0.0005950927734375
ell 364, elapsed: 0.00038886070251464844
ell 363, elapsed: 0.00047206878662109375
ell 362, elapsed: 0.00038695335388183594
ell 361, elapsed: 0.0006110668182373047
ell 360, elapsed: 0.0006248950958251953
ell 359, elapsed: 0.0005738735198974609
ell 358, elapsed: 0.0005609989166259766
ell 357, elapsed: 0.0006260871887207031
ell 356, elapsed: 0.0005509853363037109
ell 355, elapsed: 0.0006949901580810547
ell 354, elapsed: 0.0006079673767089844
ell 353, elapsed: 0.0005671977996826172
ell 352, elapsed: 0.0004220008850097656
ell 351, elapsed: 0.0006191730499267578
ell 350, elapsed: 0.0004699230194091797
ell 349, elapsed: 0.0006721019744873047
ell 348, elapsed: 0.0004730224609375
ell 347, elapsed: 0.0007159709930419922
ell 346, elapsed: 0.0006809234619140625
ell 345, elapsed: 0.0005548000335693359
ell 344, elapsed: 0.00051116943359375
ell 343, elapsed: 0.0007150173187255859
ell 342, elapsed: 0.0004799365997314453
ell 341, elapsed: 0.0006659030914306641
ell 340, elapsed: 0.0006499290466308594
ell 339, elapsed: 0.00061798095703125
ell 338, elapsed: 0.0005731582641601562
ell 337, elapsed: 0.0006401538848876953
ell 336, elapsed: 0.0005359649658203125
ell 335, elapsed: 0.0005638599395751953
ell 334, elapsed: 0.0005290508270263672
ell 333, elapsed: 0.0005991458892822266
ell 332, elapsed: 0.0005521774291992188
ell 331, elapsed: 0.0006008148193359375
ell 330, elapsed: 0.0005090236663818359
ell 329, elapsed: 0.0007069110870361328
ell 328, elapsed: 0.0005338191986083984
ell 327, elapsed: 0.0006618499755859375
ell 326, elapsed: 0.0005450248718261719
ell 325, elapsed: 0.0007059574127197266
ell 324, elapsed: 0.0006129741668701172
ell 323, elapsed: 0.0005629062652587891
ell 322, elapsed: 0.00039005279541015625
ell 321, elapsed: 0.0004620552062988281
ell 320, elapsed: 0.0034041404724121094
ell 319, elapsed: 0.0006949901580810547
ell 318, elapsed: 0.000431060791015625
ell 317, elapsed: 0.0004699230194091797
ell 316, elapsed: 0.0005600452423095703
ell 315, elapsed: 0.0005700588226318359
ell 314, elapsed: 0.001444101333618164
ell 313, elapsed: 0.0005929470062255859
ell 312, elapsed: 0.0005159378051757812
ell 311, elapsed: 0.0005431175231933594
ell 310, elapsed: 0.0005369186401367188
ell 309, elapsed: 0.00045800209045410156
ell 308, elapsed: 0.0004658699035644531
ell 307, elapsed: 0.0006339550018310547
ell 306, elapsed: 0.0004189014434814453
ell 305, elapsed: 0.00046896934509277344
ell 304, elapsed: 0.00138092041015625
ell 303, elapsed: 0.0005888938903808594
ell 302, elapsed: 0.0005440711975097656
ell 301, elapsed: 0.000982046127319336
ell 300, elapsed: 0.00038909912109375
ell 299, elapsed: 0.0004589557647705078
ell 298, elapsed: 0.0003681182861328125
ell 297, elapsed: 0.0006189346313476562
ell 296, elapsed: 0.0004489421844482422
ell 295, elapsed: 0.0007679462432861328
ell 294, elapsed: 0.00039315223693847656
ell 293, elapsed: 0.000598907470703125
ell 292, elapsed: 0.0004990100860595703
ell 291, elapsed: 0.0006361007690429688
ell 290, elapsed: 0.0004591941833496094
ell 289, elapsed: 0.00045490264892578125
ell 288, elapsed: 0.0005099773406982422
ell 287, elapsed: 0.0004680156707763672
ell 286, elapsed: 0.0004899501800537109
ell 285, elapsed: 0.0006020069122314453
ell 284, elapsed: 0.0004820823669433594
ell 283, elapsed: 0.0005979537963867188
ell 282, elapsed: 0.0005190372467041016
ell 281, elapsed: 0.0007131099700927734
ell 280, elapsed: 0.0003790855407714844
ell 279, elapsed: 0.0006339550018310547
ell 278, elapsed: 0.0004558563232421875
ell 277, elapsed: 0.0004589557647705078
ell 276, elapsed: 0.00039196014404296875
ell 275, elapsed: 0.0006670951843261719
ell 274, elapsed: 0.0007181167602539062
ell 273, elapsed: 0.0005998611450195312
ell 272, elapsed: 0.0003910064697265625
ell 271, elapsed: 0.0004630088806152344
ell 270, elapsed: 0.00039005279541015625
ell 269, elapsed: 0.00045800209045410156
ell 268, elapsed: 0.0003859996795654297
ell 267, elapsed: 0.00045609474182128906
ell 266, elapsed: 0.0004899501800537109
ell 265, elapsed: 0.0004680156707763672
ell 264, elapsed: 0.0003859996795654297
ell 263, elapsed: 0.000453948974609375
ell 262, elapsed: 0.0009670257568359375
ell 261, elapsed: 0.0006730556488037109
ell 260, elapsed: 0.0008630752563476562
ell 259, elapsed: 0.00046896934509277344
ell 258, elapsed: 0.0003879070281982422
ell 257, elapsed: 0.0004642009735107422
ell 256, elapsed: 0.00047707557678222656
ell 255, elapsed: 0.000637054443359375
ell 254, elapsed: 0.0003941059112548828
ell 253, elapsed: 0.0004639625549316406
ell 252, elapsed: 0.0005168914794921875
ell 251, elapsed: 0.0007109642028808594
ell 250, elapsed: 0.0004489421844482422
ell 249, elapsed: 0.0004661083221435547
ell 248, elapsed: 0.00039005279541015625
ell 247, elapsed: 0.0004642009735107422
ell 246, elapsed: 0.0004069805145263672
ell 245, elapsed: 0.0004839897155761719
ell 244, elapsed: 0.00040602684020996094
ell 243, elapsed: 0.00047779083251953125
ell 242, elapsed: 0.00040793418884277344
ell 241, elapsed: 0.0004839897155761719
ell 240, elapsed: 0.0004980564117431641
ell 239, elapsed: 0.0007090568542480469
ell 238, elapsed: 0.00045299530029296875
ell 237, elapsed: 0.0006451606750488281
ell 236, elapsed: 0.0006120204925537109
ell 235, elapsed: 0.0007028579711914062
ell 234, elapsed: 0.0006148815155029297
ell 233, elapsed: 0.0007090568542480469
ell 232, elapsed: 0.0006349086761474609
ell 231, elapsed: 0.0007081031799316406
ell 230, elapsed: 0.0006101131439208984
ell 229, elapsed: 0.0007011890411376953
ell 228, elapsed: 0.0006108283996582031
ell 227, elapsed: 0.0006289482116699219
ell 226, elapsed: 0.0005831718444824219
ell 225, elapsed: 0.0007050037384033203
ell 224, elapsed: 0.0006110668182373047
ell 223, elapsed: 0.0006959438323974609
ell 222, elapsed: 0.0006191730499267578
ell 221, elapsed: 0.0007071495056152344
ell 220, elapsed: 0.0006389617919921875
ell 219, elapsed: 0.0007028579711914062
ell 218, elapsed: 0.0006079673767089844
ell 217, elapsed: 0.0007038116455078125
ell 216, elapsed: 0.0006079673767089844
ell 215, elapsed: 0.0007028579711914062
ell 214, elapsed: 0.0005950927734375
ell 213, elapsed: 0.0007040500640869141
ell 212, elapsed: 0.0006108283996582031
ell 211, elapsed: 0.000701904296875
ell 210, elapsed: 0.0006120204925537109
ell 209, elapsed: 0.0007288455963134766
ell 208, elapsed: 0.0006198883056640625
ell 207, elapsed: 0.0007100105285644531
ell 206, elapsed: 0.0006148815155029297
ell 205, elapsed: 0.0006101131439208984
ell 204, elapsed: 0.00037407875061035156
ell 203, elapsed: 0.00044989585876464844
ell 202, elapsed: 0.0005719661712646484
ell 201, elapsed: 0.0007169246673583984
ell 200, elapsed: 0.0004949569702148438
ell 199, elapsed: 0.00045609474182128906
ell 198, elapsed: 0.00038814544677734375
ell 197, elapsed: 0.0004570484161376953
ell 196, elapsed: 0.00039005279541015625
ell 195, elapsed: 0.0005311965942382812
ell 194, elapsed: 0.0003859996795654297
ell 193, elapsed: 0.00045108795166015625
ell 192, elapsed: 0.00038695335388183594
ell 191, elapsed: 0.00045490264892578125
ell 190, elapsed: 0.00038814544677734375
ell 189, elapsed: 0.0005750656127929688
ell 188, elapsed: 0.0005190372467041016
ell 187, elapsed: 0.0006389617919921875
ell 186, elapsed: 0.00046706199645996094
ell 185, elapsed: 0.0006439685821533203
ell 184, elapsed: 0.0006182193756103516
ell 183, elapsed: 0.0006921291351318359
ell 182, elapsed: 0.0006060600280761719
ell 181, elapsed: 0.000720977783203125
ell 180, elapsed: 0.0006091594696044922
ell 179, elapsed: 0.0006918907165527344
ell 178, elapsed: 0.0006029605865478516
ell 177, elapsed: 0.0006940364837646484
ell 176, elapsed: 0.0006020069122314453
ell 175, elapsed: 0.0007109642028808594
ell 174, elapsed: 0.0006070137023925781
ell 173, elapsed: 0.0006859302520751953
ell 172, elapsed: 0.0006041526794433594
ell 171, elapsed: 0.0006911754608154297
ell 170, elapsed: 0.0006010532379150391
ell 169, elapsed: 0.0007181167602539062
ell 168, elapsed: 0.0006039142608642578
ell 167, elapsed: 0.0006968975067138672
ell 166, elapsed: 0.0006089210510253906
ell 165, elapsed: 0.0006968975067138672
ell 164, elapsed: 0.0006279945373535156
ell 163, elapsed: 0.0006849765777587891
ell 162, elapsed: 0.0006139278411865234
ell 161, elapsed: 0.0007050037384033203
ell 160, elapsed: 0.0006070137023925781
ell 159, elapsed: 0.0007121562957763672
ell 158, elapsed: 0.0006499290466308594
ell 157, elapsed: 0.0007028579711914062
ell 156, elapsed: 0.0006070137023925781
ell 155, elapsed: 0.0006921291351318359
ell 154, elapsed: 0.0006160736083984375
ell 153, elapsed: 0.0006909370422363281
ell 152, elapsed: 0.0006299018859863281
ell 151, elapsed: 0.0006859302520751953
ell 150, elapsed: 0.0006120204925537109
ell 149, elapsed: 0.0006999969482421875
ell 148, elapsed: 0.0006151199340820312
ell 147, elapsed: 0.0007231235504150391
ell 146, elapsed: 0.0006089210510253906
ell 145, elapsed: 0.0006940364837646484
ell 144, elapsed: 0.00048089027404785156
ell 143, elapsed: 0.0006082057952880859
ell 142, elapsed: 0.0006098747253417969
ell 141, elapsed: 0.0007188320159912109
ell 140, elapsed: 0.000614166259765625
ell 139, elapsed: 0.0006918907165527344
ell 138, elapsed: 0.0006029605865478516
ell 137, elapsed: 0.0006930828094482422
ell 136, elapsed: 0.0006029605865478516
ell 135, elapsed: 0.0007097721099853516
ell 134, elapsed: 0.0006110668182373047
ell 133, elapsed: 0.000698089599609375
ell 132, elapsed: 0.0006070137023925781
ell 131, elapsed: 0.0006928443908691406
ell 130, elapsed: 0.0006039142608642578
ell 129, elapsed: 0.000720977783203125
ell 128, elapsed: 0.0004949569702148438
ell 127, elapsed: 0.0006330013275146484
ell 126, elapsed: 0.0006089210510253906
ell 125, elapsed: 0.0006930828094482422
ell 124, elapsed: 0.0006091594696044922
ell 123, elapsed: 0.0007109642028808594
ell 122, elapsed: 0.0006239414215087891
ell 121, elapsed: 0.0006921291351318359
ell 120, elapsed: 0.0006110668182373047
ell 119, elapsed: 0.000682830810546875
ell 118, elapsed: 0.00046896934509277344
ell 117, elapsed: 0.0006380081176757812
ell 116, elapsed: 0.0006060600280761719
ell 115, elapsed: 0.0006940364837646484
ell 114, elapsed: 0.0006098747253417969
ell 113, elapsed: 0.0006940364837646484
ell 112, elapsed: 0.0006101131439208984
ell 111, elapsed: 0.0006098747253417969
ell 110, elapsed: 0.0005300045013427734
ell 109, elapsed: 0.0006830692291259766
ell 108, elapsed: 0.0006082057952880859
ell 107, elapsed: 0.0006909370422363281
ell 106, elapsed: 0.0006098747253417969
ell 105, elapsed: 0.0007190704345703125
ell 104, elapsed: 0.0006051063537597656
ell 103, elapsed: 0.0006890296936035156
ell 102, elapsed: 0.0006089210510253906
ell 101, elapsed: 0.0006887912750244141
ell 100, elapsed: 0.0004851818084716797
ell 99, elapsed: 0.0006392002105712891
ell 98, elapsed: 0.000614166259765625
ell 97, elapsed: 0.0006890296936035156
ell 96, elapsed: 0.0006060600280761719
ell 95, elapsed: 0.0006878376007080078
ell 94, elapsed: 0.0006258487701416016
ell 93, elapsed: 0.0006999969482421875
ell 92, elapsed: 0.0006098747253417969
ell 91, elapsed: 0.0007040500640869141
ell 90, elapsed: 0.0006089210510253906
ell 89, elapsed: 0.0006949901580810547
ell 88, elapsed: 0.0006339550018310547
ell 87, elapsed: 0.0006940364837646484
ell 86, elapsed: 0.0006089210510253906
ell 85, elapsed: 0.0006990432739257812
ell 84, elapsed: 0.0006120204925537109
ell 83, elapsed: 0.0007169246673583984
ell 82, elapsed: 0.0004980564117431641
ell 81, elapsed: 0.0006630420684814453
ell 80, elapsed: 0.0006160736083984375
ell 79, elapsed: 0.0007140636444091797
ell 78, elapsed: 0.0006129741668701172
ell 77, elapsed: 0.0007069110870361328
ell 76, elapsed: 0.0006330013275146484
ell 75, elapsed: 0.0007128715515136719
ell 74, elapsed: 0.0006229877471923828
ell 73, elapsed: 0.0006990432739257812
ell 72, elapsed: 0.00061798095703125
ell 71, elapsed: 0.0009000301361083984
ell 70, elapsed: 0.0006318092346191406
ell 69, elapsed: 0.0007059574127197266
ell 68, elapsed: 0.0006310939788818359
ell 67, elapsed: 0.0007021427154541016
ell 66, elapsed: 0.0007889270782470703
ell 65, elapsed: 0.0007081031799316406
ell 64, elapsed: 0.0006201267242431641
ell 63, elapsed: 0.0007112026214599609
ell 62, elapsed: 0.0006151199340820312
ell 61, elapsed: 0.0007150173187255859
ell 60, elapsed: 0.0006618499755859375
ell 59, elapsed: 0.0006539821624755859
ell 58, elapsed: 0.0006251335144042969
ell 57, elapsed: 0.0007040500640869141
ell 56, elapsed: 0.000614166259765625
ell 55, elapsed: 0.0008749961853027344
ell 54, elapsed: 0.0004918575286865234
ell 53, elapsed: 0.0006039142608642578
ell 52, elapsed: 0.0006160736083984375
ell 51, elapsed: 0.0007040500640869141
ell 50, elapsed: 0.0005300045013427734
ell 49, elapsed: 0.0008680820465087891
ell 48, elapsed: 0.0006210803985595703
ell 47, elapsed: 0.0007271766662597656
ell 46, elapsed: 0.0006239414215087891
ell 45, elapsed: 0.0007090568542480469
ell 44, elapsed: 0.0006268024444580078
ell 43, elapsed: 0.0006909370422363281
ell 42, elapsed: 0.0005819797515869141
ell 41, elapsed: 0.00072479248046875
ell 40, elapsed: 0.0006279945373535156
ell 39, elapsed: 0.000720977783203125
ell 38, elapsed: 0.0007011890411376953
ell 37, elapsed: 0.0007319450378417969
ell 36, elapsed: 0.0006330013275146484
ell 35, elapsed: 0.0007259845733642578
ell 34, elapsed: 0.0005578994750976562
ell 33, elapsed: 0.0006580352783203125
ell 32, elapsed: 0.0006968975067138672
ell 31, elapsed: 0.0007090568542480469
ell 30, elapsed: 0.0006129741668701172
ell 29, elapsed: 0.0007109642028808594
ell 28, elapsed: 0.00061798095703125
ell 27, elapsed: 0.0007810592651367188
ell 26, elapsed: 0.0006189346313476562
ell 25, elapsed: 0.0007040500640869141
ell 24, elapsed: 0.0006279945373535156
ell 23, elapsed: 0.0007200241088867188
ell 22, elapsed: 0.0006389617919921875
ell 21, elapsed: 0.0007240772247314453
ell 20, elapsed: 0.0006158351898193359
ell 19, elapsed: 0.0007119178771972656
ell 18, elapsed: 0.0006241798400878906
ell 17, elapsed: 0.0006971359252929688
ell 16, elapsed: 0.0006351470947265625
ell 15, elapsed: 0.0007090568542480469
ell 14, elapsed: 0.0006239414215087891
ell 13, elapsed: 0.0006930828094482422
ell 12, elapsed: 0.0006167888641357422
ell 11, elapsed: 0.0007069110870361328
ell 10, elapsed: 0.0006880760192871094
ell 9, elapsed: 0.000701904296875
ell 8, elapsed: 0.0006170272827148438
ell 7, elapsed: 0.0006971359252929688
ell 6, elapsed: 0.0006198883056640625
ell 5, elapsed: 0.0006940364837646484
ell 4, elapsed: 0.0006799697875976562
ell 3, elapsed: 0.0007109642028808594
ell 2, elapsed: 0.0006110668182373047
ell 1, elapsed: 0.0006949901580810547
ell 0, elapsed: 0.0006251335144042969
  0.687030 seconds (41.19 k allocations: 2.939 MiB)
elapsed: 0.0009419918060302734
step:          0.071634 sec (0 allocations: 0 byte, 0.0% gc time)
swapping:      0.000953 sec (0 allocations: 0 byte, 0.0% gc time)
calc_Mellell!: 0.011382 sec (0 allocations: 0 byte, 0.0% gc time)
  t0 :  0.002704 sec (0 allocations: 0 byte, 0.0% gc time)
  tm2 : 0.109791 sec (0 allocations: 0 byte, 0.0% gc time)
  tm2s: 0.002367 sec (0 allocations: 0 byte, 0.0% gc time)
  tm4 : 0.288001 sec (0 allocations: 0 byte, 0.0% gc time)
  tp2 : 0.0 sec (0 allocations: 0 byte, 0.0% gc time)
  tp2s: 0.0 sec (0 allocations: 0 byte, 0.0% gc time)
  tp4 : 0.0 sec (0 allocations: 0 byte, 0.0% gc time)
calc_wtdll!:   0.423706 sec (9.874 k allocations: 1.043 MB, 0.0% gc time)
calc_wljj!:    0.045348 sec (689 allocations: 10.766 KB, 0.0% gc time)
mult_prefac!:  0.0 sec (0 allocations: 0 byte, 0.0% gc time)
convert:       0.0 sec (0 allocations: 0 byte, 0.0% gc time)
write:         0.053085 sec (0 allocations: 0 byte, 0.0% gc time)
test_rand_2f1: 0.0 sec (0 allocations: 0 byte, 0.0% gc time)
Closing outfile out/Ml21-cache.bin...   0.000048 seconds
  0.000794 seconds (52 allocations: 28.297 KiB)
make_phi():   0.003027 seconds (8.33 k allocations: 250.500 KiB)
  1.364581 seconds (758.33 k allocations: 63.603 MiB, 11.71% gc time)
tskip:       0.001071 sec (0 allocations: 0 byte, 0.0% gc time)
tread:       0.051163 sec (19 allocations: 10.688 KB, 0.0% gc time)
tmultphi:    0.023311 sec (0 allocations: 0 byte, 0.0% gc time)
tbrfft:      1.134141 sec (621.228 k allocations: 60.413 MB, 14.08% gc time)
tmultprefac: 0.049182 sec (0 allocations: 0 byte, 0.0% gc time)
toutfunc:    0.103263 sec (129.905 k allocations: 2.421 MB, 0.0% gc time)
Testing R=1.0 ... passed
Calculating fmax: 
  dlrec    = 4
  dlrecRg1 = -4
  q=1.1, R=0.9:	  0.463654 seconds (116.47 k allocations: 15.614 MiB)

  0.464187 seconds (116.50 k allocations: 15.647 MiB)
ℓ = 1202
Δℓ = 4
ΔℓRg1 = -4
N = 1600
q = 1.1
kmin = 1.0e-5
kmax = 100000.00000000004
χ0 = 0.023029999999999995
RR = RR.tsv
ℓmax = ℓmax.bin
f21 = f21.bin
kmin = 1.0e-5
kmax = 100000.0
dlrec    = 4
dlrecRg1 = -4
Output size: 5741568 bytes = 0.005347251892089844 GiB
Output size: 51264 bytes = 4.774332046508789e-5 GiB
Reading 'out/F21EllCache'...   0.001075 seconds (267 allocations: 84.656 KiB)
ellmax: 1202
lmaxcache: 1202
fell[:,1,1] = Complex{Float64}[1.3482014726274674e-57 - 3.302141236118086e-73im, 1.357860004724329e-57 - 3.3257978169518355e-73im]
ell 1202, elapsed: 1.7881393432617188e-5
ell 1201, elapsed: 0.0004470348358154297
ell 1200, elapsed: 0.00039505958557128906
ell 1199, elapsed: 0.0003979206085205078
ell 1198, elapsed: 0.00041103363037109375
ell 1002, elapsed: 0.009384870529174805
ell 1001, elapsed: 0.00037980079650878906
ell 1000, elapsed: 0.0003509521484375
ell 999, elapsed: 0.00035190582275390625
ell 998, elapsed: 0.00034999847412109375
ell 902, elapsed: 0.004947185516357422
ell 901, elapsed: 0.0003681182861328125
ell 900, elapsed: 0.00035309791564941406
ell 899, elapsed: 0.00034689903259277344
ell 898, elapsed: 0.00034499168395996094
ell 802, elapsed: 0.0048618316650390625
ell 801, elapsed: 0.00037598609924316406
ell 800, elapsed: 0.0003578662872314453
ell 799, elapsed: 0.00035309791564941406
ell 798, elapsed: 0.0005269050598144531
ell 702, elapsed: 0.00495600700378418
ell 701, elapsed: 0.0003788471221923828
ell 700, elapsed: 0.0003528594970703125
ell 699, elapsed: 0.0003559589385986328
ell 698, elapsed: 0.00035119056701660156
ell 602, elapsed: 0.005320072174072266
ell 601, elapsed: 0.000370025634765625
ell 600, elapsed: 0.00034999847412109375
ell 599, elapsed: 0.0003509521484375
ell 598, elapsed: 0.0003628730773925781
ell 502, elapsed: 0.005012989044189453
ell 501, elapsed: 0.0003719329833984375
ell 500, elapsed: 0.0003581047058105469
ell 499, elapsed: 0.0004401206970214844
ell 498, elapsed: 0.0003528594970703125
ell 402, elapsed: 0.005028963088989258
ell 401, elapsed: 0.00037288665771484375
ell 400, elapsed: 0.0003509521484375
ell 399, elapsed: 0.00035691261291503906
ell 398, elapsed: 0.00035119056701660156
ell 302, elapsed: 0.004907131195068359
ell 301, elapsed: 0.0003809928894042969
ell 300, elapsed: 0.0003521442413330078
ell 299, elapsed: 0.0003859996795654297
ell 298, elapsed: 0.0005588531494140625
ell 202, elapsed: 0.004948139190673828
ell 201, elapsed: 0.0003731250762939453
ell 200, elapsed: 0.0003559589385986328
ell 199, elapsed: 0.00044417381286621094
ell 198, elapsed: 0.00035190582275390625
ell 152, elapsed: 0.002588987350463867
ell 151, elapsed: 0.0003719329833984375
ell 150, elapsed: 0.00045013427734375
ell 149, elapsed: 0.0005028247833251953
ell 148, elapsed: 0.0004429817199707031
ell 127, elapsed: 0.0016551017761230469
ell 126, elapsed: 0.0003650188446044922
ell 125, elapsed: 0.0003509521484375
ell 124, elapsed: 0.0004470348358154297
ell 123, elapsed: 0.0003540515899658203
ell 114, elapsed: 0.0008158683776855469
ell 113, elapsed: 0.0003509521484375
ell 112, elapsed: 0.0003521442413330078
ell 111, elapsed: 0.00035309791564941406
ell 110, elapsed: 0.00035309791564941406
ell 102, elapsed: 0.0008549690246582031
ell 101, elapsed: 0.00044608116149902344
ell 100, elapsed: 0.0003509521484375
ell 99, elapsed: 0.0003540515899658203
ell 98, elapsed: 0.0003509521484375
ell 97, elapsed: 0.0003991127014160156
ell 96, elapsed: 0.000476837158203125
ell 95, elapsed: 0.0004000663757324219
ell 94, elapsed: 0.0004601478576660156
ell 93, elapsed: 0.0003859996795654297
ell 92, elapsed: 0.0005509853363037109
ell 91, elapsed: 0.00039196014404296875
ell 90, elapsed: 0.0005769729614257812
ell 89, elapsed: 0.0005021095275878906
ell 88, elapsed: 0.0004589557647705078
ell 87, elapsed: 0.0003840923309326172
ell 86, elapsed: 0.00045609474182128906
ell 85, elapsed: 0.00038504600524902344
ell 84, elapsed: 0.0005340576171875
ell 83, elapsed: 0.0003921985626220703
ell 82, elapsed: 0.0004489421844482422
ell 81, elapsed: 0.00038313865661621094
ell 80, elapsed: 0.00044798851013183594
ell 79, elapsed: 0.000392913818359375
ell 78, elapsed: 0.00045800209045410156
ell 77, elapsed: 0.0003848075866699219
ell 76, elapsed: 0.00045609474182128906
ell 75, elapsed: 0.00039505958557128906
ell 74, elapsed: 0.00045418739318847656
ell 73, elapsed: 0.00039005279541015625
ell 72, elapsed: 0.0004570484161376953
ell 71, elapsed: 0.00038909912109375
ell 70, elapsed: 0.00045418739318847656
ell 69, elapsed: 0.0003910064697265625
ell 68, elapsed: 0.0004589557647705078
ell 67, elapsed: 0.0005750656127929688
ell 66, elapsed: 0.0004620552062988281
ell 65, elapsed: 0.00039005279541015625
ell 64, elapsed: 0.00045490264892578125
ell 63, elapsed: 0.0003898143768310547
ell 62, elapsed: 0.0004551410675048828
ell 61, elapsed: 0.0003910064697265625
ell 60, elapsed: 0.00045800209045410156
ell 59, elapsed: 0.00046896934509277344
ell 58, elapsed: 0.0004608631134033203
ell 57, elapsed: 0.0003879070281982422
ell 56, elapsed: 0.00045299530029296875
ell 55, elapsed: 0.00038695335388183594
ell 54, elapsed: 0.0004601478576660156
ell 53, elapsed: 0.0003879070281982422
ell 52, elapsed: 0.00045990943908691406
ell 51, elapsed: 0.0003948211669921875
ell 50, elapsed: 0.0005609989166259766
ell 49, elapsed: 0.0003921985626220703
ell 48, elapsed: 0.0004570484161376953
ell 47, elapsed: 0.0003879070281982422
ell 46, elapsed: 0.0004551410675048828
ell 45, elapsed: 0.0003859996795654297
ell 44, elapsed: 0.00045680999755859375
ell 43, elapsed: 0.0003859996795654297
ell 42, elapsed: 0.0005528926849365234
ell 41, elapsed: 0.0003981590270996094
ell 40, elapsed: 0.0004601478576660156
ell 39, elapsed: 0.00039005279541015625
ell 38, elapsed: 0.00045609474182128906
ell 37, elapsed: 0.00039005279541015625
ell 36, elapsed: 0.00045800209045410156
ell 35, elapsed: 0.0003941059112548828
ell 34, elapsed: 0.0004630088806152344
ell 33, elapsed: 0.0004868507385253906
ell 32, elapsed: 0.0004639625549316406
ell 31, elapsed: 0.0003960132598876953
ell 30, elapsed: 0.00046706199645996094
ell 29, elapsed: 0.00039696693420410156
ell 28, elapsed: 0.00045490264892578125
ell 27, elapsed: 0.0003898143768310547
ell 26, elapsed: 0.0004601478576660156
ell 25, elapsed: 0.00038814544677734375
ell 24, elapsed: 0.0004699230194091797
ell 23, elapsed: 0.00038695335388183594
ell 22, elapsed: 0.0004570484161376953
ell 21, elapsed: 0.0003859996795654297
ell 20, elapsed: 0.0004520416259765625
ell 19, elapsed: 0.0003829002380371094
ell 18, elapsed: 0.00045108795166015625
ell 17, elapsed: 0.00039005279541015625
ell 16, elapsed: 0.0004820823669433594
ell 15, elapsed: 0.0003941059112548828
ell 14, elapsed: 0.0004630088806152344
ell 13, elapsed: 0.0003979206085205078
ell 12, elapsed: 0.00046706199645996094
ell 11, elapsed: 0.00039386749267578125
ell 10, elapsed: 0.0004661083221435547
ell 9, elapsed: 0.00039315223693847656
ell 8, elapsed: 0.0004630088806152344
ell 7, elapsed: 0.0004968643188476562
ell 6, elapsed: 0.0004620552062988281
ell 5, elapsed: 0.00045609474182128906
ell 4, elapsed: 0.0006830692291259766
ell 3, elapsed: 0.0005280971527099609
ell 2, elapsed: 0.0004620552062988281
ell 1, elapsed: 0.0003921985626220703
ell 0, elapsed: 0.0004699230194091797
  0.126075 seconds (10.83 k allocations: 697.938 KiB)
elapsed: 0.0004818439483642578
step:          0.055202 sec (0 allocations: 0 byte, 0.0% gc time)
swapping:      0.000553 sec (0 allocations: 0 byte, 0.0% gc time)
calc_Mellell!: 0.001332 sec (0 allocations: 0 byte, 0.0% gc time)
  t0 :  0.0004 sec (0 allocations: 0 byte, 0.0% gc time)
  tm2 : 0.012954 sec (0 allocations: 0 byte, 0.0% gc time)
  tm2s: 0.00034 sec (0 allocations: 0 byte, 0.0% gc time)
  tm4 : 0.034219 sec (0 allocations: 0 byte, 0.0% gc time)
  tp2 : 0.0 sec (0 allocations: 0 byte, 0.0% gc time)
  tp2s: 0.0 sec (0 allocations: 0 byte, 0.0% gc time)
  tp4 : 0.0 sec (0 allocations: 0 byte, 0.0% gc time)
calc_wtdll!:   0.048508 sec (1.344 k allocations: 147.0 KB, 0.0% gc time)
calc_wljj!:    0.003567 sec (6 allocations: 96 byte, 0.0% gc time)
mult_prefac!:  0.0 sec (0 allocations: 0 byte, 0.0% gc time)
convert:       0.0 sec (0 allocations: 0 byte, 0.0% gc time)
write:         0.004678 sec (0 allocations: 0 byte, 0.0% gc time)
test_rand_2f1: 0.0 sec (0 allocations: 0 byte, 0.0% gc time)
Closing outfile out/Ml21-cache.bin...   0.000073 seconds
  0.000745 seconds (52 allocations: 28.297 KiB)
make_phi():   0.011973 seconds (8.33 k allocations: 250.531 KiB)
  0.098402 seconds (69.43 k allocations: 5.920 MiB)
tskip:       2.8e-5 sec (0 allocations: 0 byte, 0.0% gc time)
tread:       0.003177 sec (19 allocations: 2.172 KB, 0.0% gc time)
tmultphi:    0.005368 sec (0 allocations: 0 byte, 0.0% gc time)
tbrfft:      0.075322 sec (58.229 k allocations: 5.646 MB, 0.0% gc time)
tmultprefac: 0.003636 sec (0 allocations: 0 byte, 0.0% gc time)
toutfunc:    0.010789 sec (10.528 k allocations: 206.5 KB, 0.0% gc time)
Testing R=0.9 ... passed
Calculating fmax: 
  dlrec    = 4
  dlrecRg1 = -4
  q=1.1, R=0.8:	  0.371692 seconds (113.61 k allocations: 15.166 MiB)

  0.371949 seconds (113.65 k allocations: 15.200 MiB)
ℓ = 1202
Δℓ = 4
ΔℓRg1 = -4
N = 1600
q = 1.1
kmin = 1.0e-5
kmax = 100000.00000000004
χ0 = 0.023029999999999995
RR = RR.tsv
ℓmax = ℓmax.bin
f21 = f21.bin
kmin = 1.0e-5
kmax = 100000.0
dlrec    = 4
dlrecRg1 = -4
Output size: 5741568 bytes = 0.005347251892089844 GiB
Output size: 51264 bytes = 4.774332046508789e-5 GiB
Reading 'out/F21EllCache'...   0.001072 seconds (267 allocations: 84.656 KiB)
ellmax: 1202
lmaxcache: 1202
fell[:,1,1] = Complex{Float64}[7.519068145690986e-120 - 1.8416405474382574e-135im, 7.541664537386155e-120 - 1.847175067190611e-135im]
ell 1202, elapsed: 1.9073486328125e-5
ell 1201, elapsed: 0.00043892860412597656
ell 1200, elapsed: 0.00040411949157714844
ell 1199, elapsed: 0.0008230209350585938
ell 1198, elapsed: 0.0005710124969482422
ell 1002, elapsed: 0.010794878005981445
ell 1001, elapsed: 0.0005121231079101562
ell 1000, elapsed: 0.0004401206970214844
ell 999, elapsed: 0.0003528594970703125
ell 998, elapsed: 0.00035691261291503906
ell 902, elapsed: 0.005440950393676758
ell 901, elapsed: 0.00036907196044921875
ell 900, elapsed: 0.0003571510314941406
ell 899, elapsed: 0.00034499168395996094
ell 898, elapsed: 0.0003590583801269531
ell 802, elapsed: 0.005432844161987305
ell 801, elapsed: 0.00038695335388183594
ell 800, elapsed: 0.0003590583801269531
ell 799, elapsed: 0.0003578662872314453
ell 798, elapsed: 0.0004508495330810547
ell 702, elapsed: 0.005373954772949219
ell 701, elapsed: 0.00038123130798339844
ell 700, elapsed: 0.00035500526428222656
ell 699, elapsed: 0.0003528594970703125
ell 698, elapsed: 0.0003609657287597656
ell 602, elapsed: 0.005105018615722656
ell 601, elapsed: 0.0004680156707763672
ell 600, elapsed: 0.0005481243133544922
ell 599, elapsed: 0.0003647804260253906
ell 598, elapsed: 0.0003509521484375
ell 502, elapsed: 0.005115032196044922
ell 501, elapsed: 0.00037097930908203125
ell 500, elapsed: 0.0003631114959716797
ell 499, elapsed: 0.0003769397735595703
ell 498, elapsed: 0.0003571510314941406
ell 402, elapsed: 0.005546092987060547
ell 401, elapsed: 0.00038695335388183594
ell 400, elapsed: 0.0005018711090087891
ell 399, elapsed: 0.0005221366882324219
ell 398, elapsed: 0.0004889965057373047
ell 302, elapsed: 0.0055141448974609375
ell 301, elapsed: 0.0003719329833984375
ell 300, elapsed: 0.0003521442413330078
ell 299, elapsed: 0.0003669261932373047
ell 298, elapsed: 0.0006210803985595703
ell 202, elapsed: 0.005469083786010742
ell 201, elapsed: 0.0005140304565429688
ell 200, elapsed: 0.0004649162292480469
ell 199, elapsed: 0.0003662109375
ell 198, elapsed: 0.0003540515899658203
ell 152, elapsed: 0.0028200149536132812
ell 151, elapsed: 0.0003681182861328125
ell 150, elapsed: 0.00036215782165527344
ell 149, elapsed: 0.0003528594970703125
ell 148, elapsed: 0.0005490779876708984
ell 127, elapsed: 0.001650094985961914
ell 126, elapsed: 0.0003609657287597656
ell 125, elapsed: 0.0003559589385986328
ell 124, elapsed: 0.00036215782165527344
ell 123, elapsed: 0.0003521442413330078
ell 114, elapsed: 0.0009119510650634766
ell 113, elapsed: 0.0003600120544433594
ell 112, elapsed: 0.0003581047058105469
ell 111, elapsed: 0.0003819465637207031
ell 110, elapsed: 0.0003590583801269531
ell 102, elapsed: 0.0008411407470703125
ell 101, elapsed: 0.00034809112548828125
ell 100, elapsed: 0.0003600120544433594
ell 99, elapsed: 0.00045013427734375
ell 98, elapsed: 0.0003528594970703125
ell 97, elapsed: 0.000408172607421875
ell 96, elapsed: 0.00047087669372558594
ell 95, elapsed: 0.0003879070281982422
ell 94, elapsed: 0.00047898292541503906
ell 93, elapsed: 0.000537872314453125
ell 92, elapsed: 0.0005669593811035156
ell 91, elapsed: 0.0004820823669433594
ell 90, elapsed: 0.0004661083221435547
ell 89, elapsed: 0.00039005279541015625
ell 88, elapsed: 0.00045299530029296875
ell 87, elapsed: 0.00038909912109375
ell 86, elapsed: 0.00046706199645996094
ell 85, elapsed: 0.0003910064697265625
ell 84, elapsed: 0.0004611015319824219
ell 83, elapsed: 0.0004780292510986328
ell 82, elapsed: 0.0003559589385986328
ell 81, elapsed: 0.0002930164337158203
ell 80, elapsed: 0.0003361701965332031
ell 79, elapsed: 0.0002880096435546875
ell 78, elapsed: 0.00034308433532714844
ell 77, elapsed: 0.00028777122497558594
ell 76, elapsed: 0.0003371238708496094
ell 75, elapsed: 0.0002880096435546875
ell 74, elapsed: 0.0003399848937988281
ell 73, elapsed: 0.0002989768981933594
ell 72, elapsed: 0.0003800392150878906
ell 71, elapsed: 0.0002970695495605469
ell 70, elapsed: 0.0003409385681152344
ell 69, elapsed: 0.000286102294921875
ell 68, elapsed: 0.0003421306610107422
ell 67, elapsed: 0.00028705596923828125
ell 66, elapsed: 0.0003428459167480469
ell 65, elapsed: 0.00028896331787109375
ell 64, elapsed: 0.0003380775451660156
ell 63, elapsed: 0.0002930164337158203
ell 62, elapsed: 0.0003409385681152344
ell 61, elapsed: 0.00028896331787109375
ell 60, elapsed: 0.00045800209045410156
ell 59, elapsed: 0.0003840923309326172
ell 58, elapsed: 0.000614166259765625
ell 57, elapsed: 0.0004611015319824219
ell 56, elapsed: 0.00045990943908691406
ell 55, elapsed: 0.00040078163146972656
ell 54, elapsed: 0.00046896934509277344
ell 53, elapsed: 0.00039887428283691406
ell 52, elapsed: 0.0006098747253417969
ell 51, elapsed: 0.0005178451538085938
ell 50, elapsed: 0.0004649162292480469
ell 49, elapsed: 0.00039196014404296875
ell 48, elapsed: 0.0004649162292480469
ell 47, elapsed: 0.0003910064697265625
ell 46, elapsed: 0.0004601478576660156
ell 45, elapsed: 0.0004050731658935547
ell 44, elapsed: 0.0005540847778320312
ell 43, elapsed: 0.00039005279541015625
ell 42, elapsed: 0.00046896934509277344
ell 41, elapsed: 0.00038909912109375
ell 40, elapsed: 0.0006079673767089844
ell 39, elapsed: 0.0005981922149658203
ell 38, elapsed: 0.0007030963897705078
ell 37, elapsed: 0.0006051063537597656
ell 36, elapsed: 0.0004730224609375
ell 35, elapsed: 0.0005488395690917969
ell 34, elapsed: 0.0005450248718261719
ell 33, elapsed: 0.0003829002380371094
ell 32, elapsed: 0.0004589557647705078
ell 31, elapsed: 0.0005450248718261719
ell 30, elapsed: 0.0006990432739257812
ell 29, elapsed: 0.00038695335388183594
ell 28, elapsed: 0.0004589557647705078
ell 27, elapsed: 0.00038814544677734375
ell 26, elapsed: 0.0004570484161376953
ell 25, elapsed: 0.00038695335388183594
ell 24, elapsed: 0.0004620552062988281
ell 23, elapsed: 0.00038814544677734375
ell 22, elapsed: 0.0004589557647705078
ell 21, elapsed: 0.0004918575286865234
ell 20, elapsed: 0.00045800209045410156
[...]
ell 781, elapsed: 0.0007941722869873047
ell 780, elapsed: 0.0008249282836914062
ell 779, elapsed: 0.0007979869842529297
ell 778, elapsed: 0.0008091926574707031
ell 772, elapsed: 0.0015611648559570312
ell 771, elapsed: 0.0008320808410644531
ell 770, elapsed: 0.0008070468902587891
ell 769, elapsed: 0.0008101463317871094
ell 768, elapsed: 0.0008671283721923828
ell 762, elapsed: 0.001569986343383789
ell 761, elapsed: 0.0008108615875244141
ell 760, elapsed: 0.0008361339569091797
ell 759, elapsed: 0.0008251667022705078
ell 758, elapsed: 0.0008170604705810547
ell 752, elapsed: 0.0015621185302734375
ell 751, elapsed: 0.0008130073547363281
ell 750, elapsed: 0.0008111000061035156
ell 749, elapsed: 0.0008120536804199219
ell 748, elapsed: 0.0008029937744140625
ell 742, elapsed: 0.0015609264373779297
ell 741, elapsed: 0.0010979175567626953
ell 740, elapsed: 0.0008499622344970703
ell 739, elapsed: 0.0012519359588623047
ell 738, elapsed: 0.0008959770202636719
ell 732, elapsed: 0.0014319419860839844
ell 731, elapsed: 0.0007150173187255859
ell 730, elapsed: 0.0007770061492919922
ell 729, elapsed: 0.0008361339569091797
ell 728, elapsed: 0.0007910728454589844
ell 722, elapsed: 0.0014579296112060547
ell 721, elapsed: 0.0007631778717041016
ell 720, elapsed: 0.0007770061492919922
ell 719, elapsed: 0.0007569789886474609
ell 718, elapsed: 0.00080108642578125
ell 712, elapsed: 0.0015637874603271484
ell 711, elapsed: 0.0008599758148193359
ell 710, elapsed: 0.0008099079132080078
ell 709, elapsed: 0.0008230209350585938
ell 708, elapsed: 0.0008020401000976562
ell 702, elapsed: 0.0017321109771728516
ell 701, elapsed: 0.0007479190826416016
ell 700, elapsed: 0.0008020401000976562
ell 699, elapsed: 0.0008080005645751953
ell 698, elapsed: 0.0008051395416259766
ell 692, elapsed: 0.0015399456024169922
ell 691, elapsed: 0.0007979869842529297
ell 690, elapsed: 0.0007710456848144531
ell 689, elapsed: 0.000782012939453125
ell 688, elapsed: 0.0008180141448974609
ell 682, elapsed: 0.0015330314636230469
ell 681, elapsed: 0.0008289813995361328
ell 680, elapsed: 0.0008170604705810547
ell 679, elapsed: 0.0007801055908203125
ell 678, elapsed: 0.0008111000061035156
ell 672, elapsed: 0.0014688968658447266
ell 671, elapsed: 0.0008180141448974609
ell 670, elapsed: 0.0007898807525634766
ell 669, elapsed: 0.0007979869842529297
ell 668, elapsed: 0.0008060932159423828
ell 662, elapsed: 0.0015528202056884766
ell 661, elapsed: 0.000804901123046875
ell 660, elapsed: 0.0008158683776855469
ell 659, elapsed: 0.0007970333099365234
ell 658, elapsed: 0.0008051395416259766
ell 652, elapsed: 0.0015769004821777344
ell 651, elapsed: 0.0008089542388916016
ell 650, elapsed: 0.0008120536804199219
ell 649, elapsed: 0.0008571147918701172
ell 648, elapsed: 0.0007910728454589844
ell 642, elapsed: 0.0015518665313720703
ell 641, elapsed: 0.0008180141448974609
ell 640, elapsed: 0.0008141994476318359
ell 639, elapsed: 0.0008261203765869141
ell 638, elapsed: 0.0007998943328857422
ell 632, elapsed: 0.001524209976196289
ell 631, elapsed: 0.0007998943328857422
ell 630, elapsed: 0.0008111000061035156
ell 629, elapsed: 0.0008080005645751953
ell 628, elapsed: 0.0008141994476318359
ell 622, elapsed: 0.0015721321105957031
ell 621, elapsed: 0.0007879734039306641
ell 620, elapsed: 0.0008151531219482422
ell 619, elapsed: 0.0008029937744140625
ell 618, elapsed: 0.0007789134979248047
ell 612, elapsed: 0.0015900135040283203
ell 611, elapsed: 0.0008199214935302734
ell 610, elapsed: 0.0008099079132080078
ell 609, elapsed: 0.0008139610290527344
ell 608, elapsed: 0.0008330345153808594
ell 602, elapsed: 0.0015590190887451172
ell 601, elapsed: 0.00078582763671875
ell 600, elapsed: 0.0008749961853027344
ell 599, elapsed: 0.0008118152618408203
ell 598, elapsed: 0.0008089542388916016
ell 592, elapsed: 0.0015649795532226562
ell 591, elapsed: 0.0008080005645751953
ell 590, elapsed: 0.0008139610290527344
ell 589, elapsed: 0.0008208751678466797
ell 588, elapsed: 0.0008261203765869141
ell 582, elapsed: 0.0015981197357177734
ell 581, elapsed: 0.0008080005645751953
ell 580, elapsed: 0.0008091926574707031
ell 579, elapsed: 0.0008180141448974609
ell 578, elapsed: 0.0007870197296142578
ell 572, elapsed: 0.0015909671783447266
ell 571, elapsed: 0.0010831356048583984
ell 570, elapsed: 0.0011708736419677734
ell 569, elapsed: 0.0009758472442626953
ell 568, elapsed: 0.000965118408203125
ell 562, elapsed: 0.001873016357421875
ell 561, elapsed: 0.0009510517120361328
ell 560, elapsed: 0.0009720325469970703
ell 559, elapsed: 0.0009601116180419922
ell 558, elapsed: 0.0009601116180419922
ell 552, elapsed: 0.0018351078033447266
ell 551, elapsed: 0.0009779930114746094
ell 550, elapsed: 0.0009670257568359375
ell 549, elapsed: 0.0009050369262695312
ell 548, elapsed: 0.0009028911590576172
ell 542, elapsed: 0.00174713134765625
ell 541, elapsed: 0.0008690357208251953
ell 540, elapsed: 0.0008790493011474609
ell 539, elapsed: 0.0008909702301025391
ell 538, elapsed: 0.0008921623229980469
ell 532, elapsed: 0.0017139911651611328
ell 531, elapsed: 0.0009629726409912109
ell 530, elapsed: 0.0009660720825195312
ell 529, elapsed: 0.000965118408203125
ell 528, elapsed: 0.0009591579437255859
ell 522, elapsed: 0.0017521381378173828
ell 521, elapsed: 0.0008959770202636719
ell 520, elapsed: 0.0008800029754638672
ell 519, elapsed: 0.0009000301361083984
ell 518, elapsed: 0.0008890628814697266
ell 512, elapsed: 0.001722097396850586
ell 511, elapsed: 0.0008590221405029297
ell 510, elapsed: 0.0008921623229980469
ell 509, elapsed: 0.00086212158203125
ell 508, elapsed: 0.0008420944213867188
ell 502, elapsed: 0.0016279220581054688
ell 501, elapsed: 0.0008471012115478516
ell 500, elapsed: 0.0008568763732910156
ell 499, elapsed: 0.0008440017700195312
ell 498, elapsed: 0.0008161067962646484
ell 492, elapsed: 0.014216184616088867
ell 491, elapsed: 0.0009319782257080078
ell 490, elapsed: 0.0009028911590576172
ell 489, elapsed: 0.0008978843688964844
ell 488, elapsed: 0.0009160041809082031
ell 482, elapsed: 0.0017728805541992188
ell 481, elapsed: 0.0009119510650634766
ell 480, elapsed: 0.0008962154388427734
ell 479, elapsed: 0.0009360313415527344
ell 478, elapsed: 0.0008962154388427734
ell 472, elapsed: 0.0017549991607666016
ell 471, elapsed: 0.008934974670410156
ell 470, elapsed: 0.0009100437164306641
ell 469, elapsed: 0.0009009838104248047
ell 468, elapsed: 0.0008978843688964844
ell 462, elapsed: 0.0019609928131103516
ell 461, elapsed: 0.00086212158203125
ell 460, elapsed: 0.0009050369262695312
ell 459, elapsed: 0.0009140968322753906
ell 458, elapsed: 0.0009160041809082031
ell 452, elapsed: 0.001753091812133789
ell 451, elapsed: 0.0009050369262695312
ell 450, elapsed: 0.011497020721435547
ell 449, elapsed: 0.0009281635284423828
ell 448, elapsed: 0.0009150505065917969
ell 442, elapsed: 0.0017468929290771484
ell 441, elapsed: 0.0009021759033203125
ell 440, elapsed: 0.0009279251098632812
ell 439, elapsed: 0.0008928775787353516
ell 438, elapsed: 0.0009090900421142578
ell 432, elapsed: 0.001993894577026367
ell 431, elapsed: 0.0009090900421142578
ell 430, elapsed: 0.0009059906005859375
ell 429, elapsed: 0.0008990764617919922
ell 428, elapsed: 0.0061490535736083984
ell 422, elapsed: 0.0017762184143066406
ell 421, elapsed: 0.0009229183197021484
ell 420, elapsed: 0.0008962154388427734
ell 419, elapsed: 0.0008959770202636719
ell 418, elapsed: 0.0008981227874755859
ell 412, elapsed: 0.0017600059509277344
ell 411, elapsed: 0.0009000301361083984
ell 410, elapsed: 0.0008950233459472656
ell 409, elapsed: 0.0008990764617919922
ell 408, elapsed: 0.005029916763305664
ell 402, elapsed: 0.0017478466033935547
ell 401, elapsed: 0.0009059906005859375
ell 400, elapsed: 0.0009179115295410156
ell 399, elapsed: 0.0008978843688964844
ell 398, elapsed: 0.0009021759033203125
ell 392, elapsed: 0.0017349720001220703
ell 391, elapsed: 0.0009090900421142578
ell 390, elapsed: 0.0008988380432128906
ell 389, elapsed: 0.0009021759033203125
ell 388, elapsed: 0.0009150505065917969
ell 382, elapsed: 0.0018999576568603516
ell 381, elapsed: 0.0008480548858642578
ell 380, elapsed: 0.0009028911590576172
ell 379, elapsed: 0.0009160041809082031
ell 378, elapsed: 0.0009028911590576172
ell 372, elapsed: 0.0017211437225341797
ell 371, elapsed: 0.0009479522705078125
ell 370, elapsed: 0.0008990764617919922
ell 369, elapsed: 0.0009059906005859375
ell 368, elapsed: 0.0009088516235351562
ell 362, elapsed: 0.0017631053924560547
ell 361, elapsed: 0.0009028911590576172
ell 360, elapsed: 0.0009012222290039062
ell 359, elapsed: 0.0009028911590576172
ell 358, elapsed: 0.0009119510650634766
ell 352, elapsed: 0.001734018325805664
ell 351, elapsed: 0.0009031295776367188
ell 350, elapsed: 0.003910064697265625
ell 349, elapsed: 0.0009160041809082031
ell 348, elapsed: 0.0009100437164306641
ell 342, elapsed: 0.001744985580444336
ell 341, elapsed: 0.0008029937744140625
ell 340, elapsed: 0.0006852149963378906
ell 339, elapsed: 0.0006489753723144531
ell 338, elapsed: 0.0006549358367919922
ell 332, elapsed: 0.0011870861053466797
ell 331, elapsed: 0.0006480216979980469
ell 330, elapsed: 0.0006740093231201172
ell 329, elapsed: 0.0006451606750488281
ell 328, elapsed: 0.0006501674652099609
ell 322, elapsed: 0.0013349056243896484
ell 321, elapsed: 0.0006911754608154297
ell 320, elapsed: 0.0006730556488037109
ell 319, elapsed: 0.0006639957427978516
ell 318, elapsed: 0.0006809234619140625
ell 312, elapsed: 0.0011889934539794922
ell 311, elapsed: 0.0007040500640869141
ell 310, elapsed: 0.0006849765777587891
ell 309, elapsed: 0.0006628036499023438
ell 308, elapsed: 0.0006711483001708984
ell 302, elapsed: 0.0012028217315673828
ell 301, elapsed: 0.0006918907165527344
ell 300, elapsed: 0.0006678104400634766
ell 299, elapsed: 0.0006549358367919922
ell 298, elapsed: 0.0006709098815917969
ell 292, elapsed: 0.0012011528015136719
ell 291, elapsed: 0.0007090568542480469
ell 290, elapsed: 0.0006740093231201172
ell 289, elapsed: 0.0006771087646484375
ell 288, elapsed: 0.0006709098815917969
ell 282, elapsed: 0.0012040138244628906
ell 281, elapsed: 0.0007250308990478516
ell 280, elapsed: 0.0006659030914306641
ell 279, elapsed: 0.0006530284881591797
ell 278, elapsed: 0.0006518363952636719
ell 272, elapsed: 0.0011889934539794922
ell 271, elapsed: 0.0006899833679199219
ell 270, elapsed: 0.0006580352783203125
ell 269, elapsed: 0.0006470680236816406
ell 268, elapsed: 0.0006520748138427734
ell 262, elapsed: 0.0011827945709228516
ell 261, elapsed: 0.0006821155548095703
ell 260, elapsed: 0.0006611347198486328
ell 259, elapsed: 0.0006468296051025391
ell 258, elapsed: 0.0006539821624755859
ell 252, elapsed: 0.0011692047119140625
ell 251, elapsed: 0.0006740093231201172
ell 250, elapsed: 0.0006589889526367188
ell 249, elapsed: 0.0006489753723144531
ell 248, elapsed: 0.0006558895111083984
ell 242, elapsed: 0.0011801719665527344
ell 241, elapsed: 0.0006771087646484375
ell 240, elapsed: 0.0006608963012695312
ell 239, elapsed: 0.0006458759307861328
ell 238, elapsed: 0.0006539821624755859
ell 232, elapsed: 0.0011789798736572266
ell 231, elapsed: 0.0006749629974365234
ell 230, elapsed: 0.0006570816040039062
ell 229, elapsed: 0.0006577968597412109
ell 228, elapsed: 0.0006527900695800781
ell 222, elapsed: 0.0011777877807617188
ell 221, elapsed: 0.0006768703460693359
ell 220, elapsed: 0.0006611347198486328
ell 219, elapsed: 0.0006568431854248047
ell 218, elapsed: 0.0006561279296875
ell 212, elapsed: 0.0011830329895019531
ell 211, elapsed: 0.000675201416015625
ell 210, elapsed: 0.0006539821624755859
ell 209, elapsed: 0.0006649494171142578
ell 208, elapsed: 0.0006661415100097656
ell 202, elapsed: 0.0011930465698242188
ell 201, elapsed: 0.0006890296936035156
ell 200, elapsed: 0.0006580352783203125
ell 199, elapsed: 0.0006639957427978516
ell 198, elapsed: 0.0006711483001708984
ell 192, elapsed: 0.0011899471282958984
ell 191, elapsed: 0.0006821155548095703
ell 190, elapsed: 0.0006701946258544922
ell 189, elapsed: 0.0006718635559082031
ell 188, elapsed: 0.0006740093231201172
ell 182, elapsed: 0.0011920928955078125
ell 181, elapsed: 0.00067901611328125
ell 180, elapsed: 0.0006709098815917969
ell 179, elapsed: 0.0006678104400634766
ell 178, elapsed: 0.0006570816040039062
ell 172, elapsed: 0.0011820793151855469
ell 171, elapsed: 0.0006830692291259766
ell 170, elapsed: 0.0006649494171142578
ell 169, elapsed: 0.0006511211395263672
ell 168, elapsed: 0.0006721019744873047
ell 162, elapsed: 0.0012028217315673828
ell 161, elapsed: 0.0008749961853027344
ell 160, elapsed: 0.0006861686706542969
ell 159, elapsed: 0.0006680488586425781
ell 158, elapsed: 0.0006709098815917969
ell 152, elapsed: 0.00127410888671875
ell 151, elapsed: 0.0006709098815917969
ell 150, elapsed: 0.0006630420684814453
ell 149, elapsed: 0.0006608963012695312
ell 148, elapsed: 0.0006620883941650391
ell 142, elapsed: 0.0012178421020507812
ell 141, elapsed: 0.0006611347198486328
ell 140, elapsed: 0.0006630420684814453
ell 139, elapsed: 0.000659942626953125
ell 138, elapsed: 0.0006608963012695312
ell 132, elapsed: 0.0012230873107910156
ell 131, elapsed: 0.0006630420684814453
ell 130, elapsed: 0.0006601810455322266
ell 129, elapsed: 0.0006601810455322266
ell 128, elapsed: 0.0006589889526367188
ell 122, elapsed: 0.0012178421020507812
ell 121, elapsed: 0.0006699562072753906
ell 120, elapsed: 0.0006649494171142578
ell 119, elapsed: 0.0006651878356933594
ell 118, elapsed: 0.0006728172302246094
ell 112, elapsed: 0.0012218952178955078
ell 111, elapsed: 0.0006680488586425781
ell 110, elapsed: 0.0006680488586425781
ell 109, elapsed: 0.0006649494171142578
ell 108, elapsed: 0.0006709098815917969
ell 102, elapsed: 0.0012090206146240234
ell 101, elapsed: 0.00267791748046875
ell 100, elapsed: 0.002640962600708008
ell 99, elapsed: 0.0036439895629882812
ell 98, elapsed: 0.0036618709564208984
ell 92, elapsed: 0.0059740543365478516
ell 91, elapsed: 0.0030128955841064453
ell 90, elapsed: 0.0038030147552490234
ell 89, elapsed: 0.003738880157470703
ell 88, elapsed: 0.003587961196899414
ell 82, elapsed: 0.007132053375244141
ell 81, elapsed: 0.0037920475006103516
ell 80, elapsed: 0.0038149356842041016
ell 79, elapsed: 0.003734111785888672
ell 78, elapsed: 0.002583026885986328
ell 72, elapsed: 0.008333921432495117
ell 71, elapsed: 0.00710606575012207
ell 70, elapsed: 0.0038619041442871094
ell 69, elapsed: 0.003480195999145508
ell 68, elapsed: 0.003961086273193359
ell 62, elapsed: 0.0059130191802978516
ell 61, elapsed: 0.003247976303100586
ell 60, elapsed: 0.0038900375366210938
ell 59, elapsed: 0.003651142120361328
ell 58, elapsed: 0.0031180381774902344
ell 52, elapsed: 0.006536960601806641
ell 51, elapsed: 0.0034132003784179688
ell 50, elapsed: 0.003748178482055664
ell 49, elapsed: 0.004601955413818359
ell 48, elapsed: 0.003805875778198242
ell 42, elapsed: 0.00671696662902832
ell 41, elapsed: 0.0037889480590820312
ell 40, elapsed: 0.00368499755859375
ell 39, elapsed: 0.0038030147552490234
ell 38, elapsed: 0.0038199424743652344
ell 32, elapsed: 0.006868124008178711
ell 31, elapsed: 0.003774881362915039
ell 30, elapsed: 0.0038290023803710938
ell 29, elapsed: 0.0032930374145507812
ell 28, elapsed: 0.0029981136322021484
ell 22, elapsed: 0.0066950321197509766
ell 21, elapsed: 0.004041910171508789
ell 20, elapsed: 0.003901958465576172
ell 19, elapsed: 0.0038208961486816406
ell 18, elapsed: 0.0035490989685058594
ell 12, elapsed: 0.006475925445556641
ell 11, elapsed: 0.003607034683227539
ell 10, elapsed: 0.003609180450439453
ell 9, elapsed: 0.003751039505004883
ell 8, elapsed: 0.003515958786010742
  0.837220 seconds (66.75 k allocations: 12.139 MiB, 1.80% gc time)
elapsed: 0.005227088928222656
step:          0.074187 sec (0 allocations: 0 byte, 0.0% gc time)
swapping:      0.000741 sec (0 allocations: 0 byte, 0.0% gc time)
calc_Mellell!: 0.039472 sec (0 allocations: 0 byte, 0.0% gc time)
  t0 :  0.009997 sec (0 allocations: 0 byte, 0.0% gc time)
  tm2 : 0.07407 sec (0 allocations: 0 byte, 0.0% gc time)
  tm2s: 0.008709 sec (0 allocations: 0 byte, 0.0% gc time)
  tm4 : 0.184417 sec (0 allocations: 0 byte, 0.0% gc time)
  tp2 : 0.0 sec (0 allocations: 0 byte, 0.0% gc time)
  tp2s: 0.0 sec (0 allocations: 0 byte, 0.0% gc time)
  tp4 : 0.0 sec (0 allocations: 0 byte, 0.0% gc time)
calc_wtdll!:   0.590346 sec (49.2 k allocations: 11.133 MB, 2.56% gc time)
calc_wljj!:    0.037818 sec (69 allocations: 1.078 KB, 0.0% gc time)
mult_prefac!:  0.0 sec (0 allocations: 0 byte, 0.0% gc time)
convert:       0.0 sec (0 allocations: 0 byte, 0.0% gc time)
write:         0.035809 sec (0 allocations: 0 byte, 0.0% gc time)
test_rand_2f1: 0.0 sec (0 allocations: 0 byte, 0.0% gc time)
Closing outfile out/MlCache/MlCache.bin...   0.000011 seconds
xi, l=0, nu=0:   0.469288 seconds (650.41 k allocations: 31.239 MiB, 3.90% gc time)
xi, l=0, nu=-2:  0.007193 seconds (423 allocations: 177.078 KiB)
Created 'out/xi.tsv'.
  q=1.1, R=0.6:	  0.768832 seconds (291.08 k allocations: 38.895 MiB, 1.74% gc time)
  q=1.1, R=0.7:	  0.859864 seconds (304.75 k allocations: 40.996 MiB, 1.18% gc time)
  q=1.1, R=0.8:	  0.905940 seconds (299.14 k allocations: 40.132 MiB, 0.92% gc time)
  q=1.1, R=0.9:	  1.038260 seconds (293.57 k allocations: 39.286 MiB, 1.31% gc time)
  q=1.1, R=0.998:	 22.499340 seconds (10.67 M allocations: 823.460 MiB, 0.28% gc time)
  q=1.1, R=1.0:	  0.004192 seconds (10.24 k allocations: 768.375 KiB)

ℓ = 1000
Δℓ = 4
ΔℓRg1 = -4
N = 4096
q = 1.1
kmin = 1.0e-5
kmax = 1000.0
χ0 = 0.001
RR = RR.tsv
ℓmax = ℓmax.bin
f21 = f21.bin
kmin = 1.0e-5
kmax = 1000.0
dlrec    = 4
dlrecRg1 = -4
Output size: 1573632 bytes = 0.0014655590057373047 GiB
Output size: 786816 bytes = 0.0007327795028686523 GiB
Reading 'out/F21EllCache'...   0.001383 seconds (268 allocations: 533.531 KiB)
ellmax: 1002
lmaxcache: 1000
fell[:,1,1] = Complex{Float64}[1.7262928128202118e-224 - 4.2281979352226944e-240im, 1.7282693092099662e-224 - 4.233038955177176e-240im]
ell 1002, elapsed: 2.09808349609375e-5
ell 1001, elapsed: 0.004255056381225586
ell 1000, elapsed: 0.0007469654083251953
ell 999, elapsed: 0.007028818130493164
ell 998, elapsed: 0.007740020751953125
ell 44, elapsed: 0.6382238864898682
ell 43, elapsed: 0.006540060043334961
ell 42, elapsed: 0.00722503662109375
ell 41, elapsed: 0.00746607780456543
ell 40, elapsed: 0.007325172424316406
  0.695371 seconds (4.55 k allocations: 320.031 KiB, 0.41% gc time)
elapsed: 0.008502960205078125
step:          0.633437 sec (0 allocations: 0 byte, 0.0% gc time)
swapping:      0.000626 sec (0 allocations: 0 byte, 0.0% gc time)
calc_Mellell!: 0.00115 sec (0 allocations: 0 byte, 0.0% gc time)
  t0 :  0.000433 sec (0 allocations: 0 byte, 0.0% gc time)
  tm2 : 0.012766 sec (0 allocations: 0 byte, 0.0% gc time)
  tm2s: 0.000324 sec (0 allocations: 0 byte, 0.0% gc time)
  tm4 : 0.037086 sec (0 allocations: 0 byte, 0.0% gc time)
  tp2 : 0.0 sec (0 allocations: 0 byte, 0.0% gc time)
  tp2s: 0.0 sec (0 allocations: 0 byte, 0.0% gc time)
  tp4 : 0.0 sec (0 allocations: 0 byte, 0.0% gc time)
calc_wtdll!:   0.054262 sec (480 allocations: 52.5 KB, 5.22% gc time)
calc_wljj!:    0.001516 sec (1 allocations: 16 byte, 0.0% gc time)
mult_prefac!:  0.0 sec (0 allocations: 0 byte, 0.0% gc time)
convert:       0.0 sec (0 allocations: 0 byte, 0.0% gc time)
write:         0.00098 sec (0 allocations: 0 byte, 0.0% gc time)
test_rand_2f1: 0.0 sec (0 allocations: 0 byte, 0.0% gc time)
Closing outfile out/MlCache/MlCache.bin...   0.000007 seconds
  1.503104 seconds (599.57 k allocations: 57.992 MiB, 1.83% gc time)
make_phi():   0.017386 seconds (226 allocations: 290.922 KiB)
  0.006619 seconds (6.01 k allocations: 617.078 KiB)
tskip:       1.0e-6 sec (0 allocations: 0 byte, 0.0% gc time)
tread:       0.000742 sec (19 allocations: 1.312 KB, 0.0% gc time)
tmultphi:    0.000365 sec (0 allocations: 0 byte, 0.0% gc time)
tbrfft:      0.004482 sec (6.001 k allocations: 615.766 KB, 0.0% gc time)
tmultprefac: 0.000957 sec (0 allocations: 0 byte, 0.0% gc time)
toutfunc:    0.000181 sec (0 allocations: 0 byte, 0.0% gc time)
Created 'out/wl42_jj00.tsv'.
Created 'out/wl42_jj02.tsv'.
    Testing TwoFAST tests passed 
