Julia Version 1.6.0-DEV.952
Commit 4ef8313c94 (2020-09-17 11:39 UTC)
Platform Info:
  OS: Linux (x86_64-pc-linux-gnu)
  CPU: Intel(R) Xeon(R) Silver 4114 CPU @ 2.20GHz
  WORD_SIZE: 64
  LIBM: libopenlibm
  LLVM: libLLVM-9.0.1 (ORCJIT, skylake-avx512)
Environment:
  JULIA_DEPOT_PATH = ::/usr/local/share/julia
  JULIA_NUM_THREADS = 2

  Resolving package versions...
[ Info: LEGAL NOTICE: package operations send anonymous data about your system to https://pkg.julialang.org (your current package server), including the operating system and Julia versions you are using, and a random client UUID. Running `Pkg.telemetryinfo()` will show exactly what data is sent. See https://julialang.org/legal/data/ for more details about what this data is used for, how long it is retained, and how to opt out of sending it.
  Installed MKL_jll ────────────────────── v2020.2.254+0
  Installed IntelOpenMP_jll ────────────── v2018.0.3+0
  Installed Readables ──────────────────── v0.3.3
  Installed AbstractFFTs ───────────────── v0.5.0
  Installed GenericSVD ─────────────────── v0.3.0
  Installed BinaryProvider ─────────────── v0.5.10
  Installed GenericSchur ───────────────── v0.4.0
  Installed Reexport ───────────────────── v0.2.0
  Installed CompilerSupportLibraries_jll ─ v0.3.3+0
  Installed OpenSpecFun_jll ────────────── v0.5.3+3
  Installed FFTW_jll ───────────────────── v3.3.9+5
  Installed TwoFAST ────────────────────── v0.1.3
  Installed FFTW ───────────────────────── v1.2.4
  Installed SpecialFunctions ───────────── v0.10.3
  Installed ArbNumerics ────────────────── v1.2.1
Updating `~/.julia/environments/v1.6/Project.toml`
  [0dd23c3e] + TwoFAST v0.1.3
Updating `~/.julia/environments/v1.6/Manifest.toml`
  [621f4979] + AbstractFFTs v0.5.0
  [7e558dbc] + ArbNumerics v1.2.1
  [b99e7846] + BinaryProvider v0.5.10
  [e66e0078] + CompilerSupportLibraries_jll v0.3.3+0
  [7a1cc6ca] + FFTW v1.2.4
  [f5851436] + FFTW_jll v3.3.9+5
  [01680d73] + GenericSVD v0.3.0
  [c145ed77] + GenericSchur v0.4.0
  [1d5cc7b8] + IntelOpenMP_jll v2018.0.3+0
  [856f044c] + MKL_jll v2020.2.254+0
  [efe28fd5] + OpenSpecFun_jll v0.5.3+3
  [0d4725de] + Readables v0.3.3
  [189a3867] + Reexport v0.2.0
  [276daf66] + SpecialFunctions v0.10.3
  [0dd23c3e] + TwoFAST v0.1.3
  [2a0f44e3] + Base64
  [ade2ca70] + Dates
  [8bb1440f] + DelimitedFiles
  [8ba89e20] + Distributed
  [b77e0a4c] + InteractiveUtils
  [76f85450] + LibGit2
  [8f399da3] + Libdl
  [37e2e46d] + LinearAlgebra
  [56ddb016] + Logging
  [d6f4376e] + Markdown
  [a63ad114] + Mmap
  [44cfe95a] + Pkg
  [de0858da] + Printf
  [3fa0cd96] + REPL
  [9a3f8284] + Random
  [ea8e919c] + SHA
  [9e88b42a] + Serialization
  [6462fe0b] + Sockets
  [fa267f1f] + TOML
  [8dfed614] + Test
  [cf7118a7] + UUIDs
  [4ec0a83e] + Unicode
   Building FFTW ───────→ `~/.julia/packages/FFTW/DMUbN/deps/build.log`
   Building ArbNumerics → `~/.julia/packages/ArbNumerics/joGFm/deps/build.log`
    Testing TwoFAST
Status `/tmp/jl_GsfY3E/Project.toml`
  [7e558dbc] ArbNumerics v1.2.1
  [39dd38d3] Dierckx v0.5.0
  [7a1cc6ca] FFTW v1.2.4
  [276daf66] SpecialFunctions v0.10.3
  [0dd23c3e] TwoFAST v0.1.3
  [8bb1440f] DelimitedFiles
  [37e2e46d] LinearAlgebra
  [56ddb016] Logging
  [8dfed614] Test
Status `/tmp/jl_GsfY3E/Manifest.toml`
  [621f4979] AbstractFFTs v0.5.0
  [7e558dbc] ArbNumerics v1.2.1
  [b99e7846] BinaryProvider v0.5.10
  [e66e0078] CompilerSupportLibraries_jll v0.3.3+0
  [39dd38d3] Dierckx v0.5.0
  [cd4c43a9] Dierckx_jll v0.0.1+0
  [7a1cc6ca] FFTW v1.2.4
  [f5851436] FFTW_jll v3.3.9+5
  [01680d73] GenericSVD v0.3.0
  [c145ed77] GenericSchur v0.4.0
  [1d5cc7b8] IntelOpenMP_jll v2018.0.3+0
  [856f044c] MKL_jll v2020.2.254+0
  [efe28fd5] OpenSpecFun_jll v0.5.3+3
  [0d4725de] Readables v0.3.3
  [189a3867] Reexport v0.2.0
  [276daf66] SpecialFunctions v0.10.3
  [0dd23c3e] TwoFAST v0.1.3
  [2a0f44e3] Base64
  [ade2ca70] Dates
  [8bb1440f] DelimitedFiles
  [8ba89e20] Distributed
  [b77e0a4c] InteractiveUtils
  [76f85450] LibGit2
  [8f399da3] Libdl
  [37e2e46d] LinearAlgebra
  [56ddb016] Logging
  [d6f4376e] Markdown
  [a63ad114] Mmap
  [44cfe95a] Pkg
  [de0858da] Printf
  [3fa0cd96] REPL
  [9a3f8284] Random
  [ea8e919c] SHA
  [9e88b42a] Serialization
  [6462fe0b] Sockets
  [fa267f1f] TOML
  [8dfed614] Test
  [cf7118a7] UUIDs
  [4ec0a83e] Unicode
    Testing Running tests...
WARNING: could not import Printf.ini_hex into ArbNumerics
WARNING: could not import Printf.ini_HEX into ArbNumerics
t = 0.0 sec (0 allocations: 0 byte, 0.0% gc time)
typeof(t) = NamedTuple{(:value, :time, :bytes, :gctime, :gcstats), Tuple{DataType, Float64, Int64, Float64, Base.GC_Diff}}
TwoFAST.PerformanceStats.TimedType = Union{NamedTuple{(:value, :time, :bytes, :gctime, :gcstats), Tuple{T, Float64, Int64, Float64, Base.GC_Diff}}, Tuple{Any, Float64, Int64, Float64, Base.GC_Diff}} where T
t = 0.0 sec (0 allocations: 0 byte, 0.0% gc time)
t: 0.0 sec (0 allocations: 0 byte, 0.0% gc time)
Testing ξ(r), ℓ=0, ν=-1 ... passed
Testing ξ(r), ℓ=0, ν=0 ... passed
Testing ξ(r), ℓ=0, ν=1 ... passed
Testing ξ(r), ℓ=0, ν=2 ... passed
Testing ξ(r), ℓ=0, ν=3 ... passed
Testing ξ(r), ℓ=1, ν=0 ... passed
Testing ξ(r), ℓ=1, ν=1 ... passed
Testing ξ(r), ℓ=1, ν=2 ... passed
Testing ξ(r), ℓ=1, ν=3 ... passed
Testing ξ(r), ℓ=2, ν=-1 ... passed
Testing ξ(r), ℓ=2, ν=0 ... passed
Testing ξ(r), ℓ=2, ν=1 ... passed
Testing ξ(r), ℓ=2, ν=2 ... passed
Testing ξ(r), ℓ=2, ν=3 ... passed
Testing ξ(r), ℓ=3, ν=-1 ... passed
Testing ξ(r), ℓ=3, ν=0 ... passed
Testing ξ(r), ℓ=3, ν=1 ... passed
Testing ξ(r), ℓ=3, ν=2 ... passed
Testing ξ(r), ℓ=3, ν=3 ... passed
Testing ξ(r), ℓ=4, ν=-1 ... passed
Testing ξ(r), ℓ=4, ν=0 ... passed
Testing ξ(r), ℓ=4, ν=1 ... passed
Testing ξ(r), ℓ=4, ν=2 ... passed
Testing ξ(r), ℓ=4, ν=3 ... passed
Testing ξ(r) ... passed
Testing ξ′(r) ... passed
Testing ξ″(r) ... passed
Calculating fmax: 
  dlrec    = 4
  dlrecRg1 = -4
  q=1.1, R=1.1:	  3.861022 seconds (832.90 k allocations: 53.288 MiB, 0.51% gc time)

  3.875102 seconds (845.60 k allocations: 54.079 MiB, 0.51% gc time)
ℓ = 1202
Δℓ = 4
ΔℓRg1 = -4
N = 1600
q = 1.1
kmin = 1.0e-5
kmax = 100000.00000000004
χ0 = 0.023029999999999995
RR = RR.tsv
ℓmax = ℓmax.bin
f21 = f21.bin
kmin = 1.0e-5
kmax = 100000.0
dlrec    = 4
dlrecRg1 = -4
Output size: 5741568 bytes = 0.005347251892089844 GiB
Output size: 51264 bytes = 4.774332046508789e-5 GiB
Reading 'out/F21EllCache'...   0.666723 seconds (394.92 k allocations: 23.209 MiB, 3.07% gc time)
ellmax: 1202
lmaxcache: 1202
fell[:,1,1] = ComplexF64[3.9583795592771634e-52 - 9.695233714158177e-68im, 3.990121772925759e-52 - 9.772979714843386e-68im]
ell 1202, elapsed: 3.0040740966796875e-5
ell 1201, elapsed: 1.2187128067016602
ell 1200, elapsed: 0.0009140968322753906
ell 1199, elapsed: 0.0007350444793701172
ell 1198, elapsed: 0.0007441043853759766
ell 1002, elapsed: 0.012148141860961914
ell 1001, elapsed: 0.0006690025329589844
ell 1000, elapsed: 0.0006749629974365234
ell 999, elapsed: 0.0007030963897705078
ell 998, elapsed: 0.0007159709930419922
ell 902, elapsed: 0.0062520503997802734
ell 901, elapsed: 0.0006840229034423828
ell 900, elapsed: 0.0007288455963134766
ell 899, elapsed: 0.0006380081176757812
ell 898, elapsed: 0.000659942626953125
ell 802, elapsed: 0.006453990936279297
ell 801, elapsed: 0.0004870891571044922
ell 800, elapsed: 0.0004558563232421875
ell 799, elapsed: 0.0005009174346923828
ell 798, elapsed: 0.0005509853363037109
ell 702, elapsed: 0.005198955535888672
ell 701, elapsed: 0.00047206878662109375
ell 700, elapsed: 0.0004470348358154297
ell 699, elapsed: 0.0004439353942871094
ell 698, elapsed: 0.0005290508270263672
ell 602, elapsed: 0.005354166030883789
ell 601, elapsed: 0.000576019287109375
ell 600, elapsed: 0.0005290508270263672
ell 599, elapsed: 0.0005450248718261719
ell 598, elapsed: 0.0005600452423095703
ell 502, elapsed: 0.005486965179443359
ell 501, elapsed: 0.0005919933319091797
ell 500, elapsed: 0.0005481243133544922
ell 499, elapsed: 0.0005640983581542969
ell 498, elapsed: 0.0005590915679931641
ell 402, elapsed: 0.005463123321533203
ell 401, elapsed: 0.0006508827209472656
ell 400, elapsed: 0.0005769729614257812
ell 399, elapsed: 0.0005710124969482422
ell 398, elapsed: 0.0005710124969482422
ell 302, elapsed: 0.0055849552154541016
ell 301, elapsed: 0.0006010532379150391
ell 300, elapsed: 0.0005960464477539062
ell 299, elapsed: 0.0005860328674316406
ell 298, elapsed: 0.0005948543548583984
ell 202, elapsed: 0.005602121353149414
ell 201, elapsed: 0.0006430149078369141
ell 200, elapsed: 0.0006411075592041016
ell 199, elapsed: 0.0007779598236083984
ell 198, elapsed: 0.0007221698760986328
ell 152, elapsed: 0.0034530162811279297
ell 151, elapsed: 0.0006768703460693359
ell 150, elapsed: 0.0006940364837646484
ell 149, elapsed: 0.0006890296936035156
ell 148, elapsed: 0.0006830692291259766
ell 127, elapsed: 0.0018339157104492188
ell 126, elapsed: 0.000579833984375
ell 125, elapsed: 0.0005900859832763672
ell 124, elapsed: 0.0005979537963867188
ell 123, elapsed: 0.000576019287109375
ell 114, elapsed: 0.0011360645294189453
ell 113, elapsed: 0.0006139278411865234
ell 112, elapsed: 0.0006299018859863281
ell 111, elapsed: 0.0005950927734375
ell 110, elapsed: 0.000576019287109375
ell 102, elapsed: 0.0011241436004638672
ell 101, elapsed: 0.0005791187286376953
ell 100, elapsed: 0.0005650520324707031
ell 99, elapsed: 0.0005669593811035156
ell 98, elapsed: 0.0005710124969482422
ell 97, elapsed: 0.0006940364837646484
ell 96, elapsed: 0.0006709098815917969
ell 95, elapsed: 0.0006151199340820312
ell 94, elapsed: 0.0006840229034423828
ell 93, elapsed: 0.0006239414215087891
ell 92, elapsed: 0.0006580352783203125
ell 91, elapsed: 0.0006399154663085938
ell 90, elapsed: 0.00061798095703125
ell 89, elapsed: 0.0006399154663085938
ell 88, elapsed: 0.0006399154663085938
ell 87, elapsed: 0.0006721019744873047
ell 86, elapsed: 0.0006542205810546875
ell 85, elapsed: 0.0006561279296875
ell 84, elapsed: 0.0006418228149414062
ell 83, elapsed: 0.0006620883941650391
ell 82, elapsed: 0.0007250308990478516
ell 81, elapsed: 0.0006840229034423828
ell 80, elapsed: 0.000640869140625
ell 79, elapsed: 0.0006270408630371094
ell 78, elapsed: 0.000637054443359375
ell 77, elapsed: 0.000614166259765625
ell 76, elapsed: 0.0005779266357421875
ell 75, elapsed: 0.0005791187286376953
ell 74, elapsed: 0.0005788803100585938
ell 73, elapsed: 0.0005948543548583984
ell 72, elapsed: 0.0006411075592041016
ell 71, elapsed: 0.0005631446838378906
ell 70, elapsed: 0.0005519390106201172
ell 69, elapsed: 0.0005688667297363281
ell 68, elapsed: 0.0005729198455810547
ell 67, elapsed: 0.0005490779876708984
ell 66, elapsed: 0.0005521774291992188
ell 65, elapsed: 0.0005691051483154297
ell 64, elapsed: 0.0005550384521484375
ell 63, elapsed: 0.0005490779876708984
ell 62, elapsed: 0.0005528926849365234
ell 61, elapsed: 0.0005550384521484375
ell 60, elapsed: 0.0005548000335693359
ell 59, elapsed: 0.0005650520324707031
ell 58, elapsed: 0.000553131103515625
ell 57, elapsed: 0.000576019287109375
ell 56, elapsed: 0.0005540847778320312
ell 55, elapsed: 0.0005331039428710938
ell 54, elapsed: 0.0004889965057373047
ell 53, elapsed: 0.0004761219024658203
ell 52, elapsed: 0.0004761219024658203
ell 51, elapsed: 0.0004868507385253906
ell 50, elapsed: 0.00047397613525390625
ell 49, elapsed: 0.00047707557678222656
ell 48, elapsed: 0.0004730224609375
ell 47, elapsed: 0.00047588348388671875
ell 46, elapsed: 0.0004730224609375
ell 45, elapsed: 0.00048089027404785156
ell 44, elapsed: 0.0004940032958984375
ell 43, elapsed: 0.0004801750183105469
ell 42, elapsed: 0.0006480216979980469
ell 41, elapsed: 0.0008718967437744141
ell 40, elapsed: 0.0006918907165527344
ell 39, elapsed: 0.0006740093231201172
ell 38, elapsed: 0.0006849765777587891
ell 37, elapsed: 0.0007500648498535156
ell 36, elapsed: 0.0010199546813964844
ell 35, elapsed: 0.000682830810546875
ell 34, elapsed: 0.0006940364837646484
ell 33, elapsed: 0.0007691383361816406
ell 32, elapsed: 0.0007669925689697266
ell 31, elapsed: 0.0007598400115966797
ell 30, elapsed: 0.0007619857788085938
ell 29, elapsed: 0.0007801055908203125
ell 28, elapsed: 0.00102996826171875
ell 27, elapsed: 0.0007729530334472656
ell 26, elapsed: 0.0007658004760742188
ell 25, elapsed: 0.0007710456848144531
ell 24, elapsed: 0.0007779598236083984
ell 23, elapsed: 0.0010149478912353516
ell 22, elapsed: 0.0006771087646484375
ell 21, elapsed: 0.0006690025329589844
ell 20, elapsed: 0.0007610321044921875
ell 19, elapsed: 0.0009860992431640625
ell 18, elapsed: 0.0006749629974365234
ell 17, elapsed: 0.0007128715515136719
ell 16, elapsed: 0.0010249614715576172
ell 15, elapsed: 0.0007719993591308594
ell 14, elapsed: 0.0009729862213134766
ell 13, elapsed: 0.0006740093231201172
ell 12, elapsed: 0.00067901611328125
ell 11, elapsed: 0.0009338855743408203
ell 10, elapsed: 0.0010039806365966797
ell 9, elapsed: 0.0006759166717529297
ell 8, elapsed: 0.0009748935699462891
ell 7, elapsed: 0.0008738040924072266
ell 6, elapsed: 0.0009958744049072266
ell 5, elapsed: 0.0008749961853027344
ell 4, elapsed: 0.0007910728454589844
ell 3, elapsed: 0.0007691383361816406
ell 2, elapsed: 0.0007801055908203125
ell 1, elapsed: 0.0007719993591308594
ell 0, elapsed: 0.001004934310913086
  1.874696 seconds (1.26 M allocations: 69.541 MiB, 4.55% gc time)
elapsed: 0.0009429454803466797
step:          0.404783 sec (303.431 k allocations: 16.47 MB, 13.93% gc time)
swapping:      0.000543 sec (0 allocations: 0 byte, 0.0% gc time)
calc_Mellell!: 0.118312 sec (131.069 k allocations: 7.131 MB, 0.0% gc time)
  t0 :  0.0 sec (0 allocations: 0 byte, 0.0% gc time)
  tm2 : 0.0 sec (0 allocations: 0 byte, 0.0% gc time)
  tm2s: 0.0 sec (0 allocations: 0 byte, 0.0% gc time)
  tm4 : 0.0 sec (0 allocations: 0 byte, 0.0% gc time)
  tp2 : 0.0 sec (0 allocations: 0 byte, 0.0% gc time)
  tp2s: 0.0 sec (0 allocations: 0 byte, 0.0% gc time)
  tp4 : 0.0 sec (0 allocations: 0 byte, 0.0% gc time)
calc_wtdll!:   0.841982 sec (510.927 k allocations: 28.259 MB, 0.0% gc time)
calc_wljj!:    0.003565 sec (6 allocations: 96 byte, 0.0% gc time)
mult_prefac!:  0.0 sec (0 allocations: 0 byte, 0.0% gc time)
convert:       0.0 sec (0 allocations: 0 byte, 0.0% gc time)
write:         0.004504 sec (0 allocations: 0 byte, 0.0% gc time)
test_rand_2f1: 0.0 sec (0 allocations: 0 byte, 0.0% gc time)
Closing outfile out/Ml21-cache.bin...   0.000014 seconds
  1.210278 seconds (347.78 k allocations: 21.158 MiB)
make_phi():   0.013630 seconds (9.47 k allocations: 257.875 KiB)
  0.232975 seconds (87.73 k allocations: 4.754 MiB)
tskip:       3.3e-5 sec (0 allocations: 0 byte, 0.0% gc time)
tread:       0.003509 sec (17 allocations: 2.125 KB, 0.0% gc time)
tmultphi:    0.041971 sec (21.546 k allocations: 1.294 MB, 0.0% gc time)
tbrfft:      0.006731 sec (0 allocations: 0 byte, 0.0% gc time)
tmultprefac: 0.00653 sec (0 allocations: 0 byte, 0.0% gc time)
toutfunc:    0.136299 sec (64.521 k allocations: 3.329 MB, 0.0% gc time)
Testing R=1.1 ... passed
Calculating fmax: 
  dlrec    = 4
  dlrecRg1 = -4
  q=1.1, R=1.0:	  0.001743 seconds (3.20 k allocations: 275.344 KiB)

  0.001959 seconds (3.35 k allocations: 311.750 KiB)
ℓ = 1202
Δℓ = 4
ΔℓRg1 = -4
N = 1600
q = 1.1
kmin = 1.0e-5
kmax = 100000.00000000004
χ0 = 0.023029999999999995
RR = RR.tsv
ℓmax = ℓmax.bin
f21 = f21.bin
kmin = 1.0e-5
kmax = 100000.0
dlrec    = 4
dlrecRg1 = -4
Output size: 61465536 bytes = 0.05724424123764038 GiB
Output size: 51264 bytes = 4.774332046508789e-5 GiB
Reading 'out/F21EllCache'...   0.001138 seconds (197 allocations: 84.203 KiB)
ellmax: 1202
lmaxcache: 1202
fell[:,1,1] = ComplexF64[809.6031528389767 - 1.9829558194077161e-13im, 0.0 + 0.0im]
ell 1202, elapsed: 3.0994415283203125e-5
ell 1201, elapsed: 0.01450800895690918
ell 1200, elapsed: 0.015991926193237305
ell 1199, elapsed: 0.0004329681396484375
ell 1198, elapsed: 0.00036907196044921875
ell 1197, elapsed: 0.0004591941833496094
ell 1196, elapsed: 0.00045013427734375
ell 1195, elapsed: 0.00043892860412597656
ell 1194, elapsed: 0.00043320655822753906
ell 1193, elapsed: 0.0006961822509765625
ell 1192, elapsed: 0.0006880760192871094
ell 1191, elapsed: 0.000514984130859375
ell 1190, elapsed: 0.0005731582641601562
ell 1189, elapsed: 0.0005362033843994141
ell 1188, elapsed: 0.00043892860412597656
ell 1187, elapsed: 0.0004489421844482422
ell 1186, elapsed: 0.0004391670227050781
ell 1185, elapsed: 0.00043201446533203125
ell 1184, elapsed: 0.00043082237243652344
ell 1183, elapsed: 0.0004410743713378906
ell 1182, elapsed: 0.00043892860412597656
ell 1181, elapsed: 0.0004439353942871094
ell 1180, elapsed: 0.0004420280456542969
ell 1179, elapsed: 0.0005838871002197266
ell 1178, elapsed: 0.0004420280456542969
ell 1177, elapsed: 0.0004439353942871094
ell 1176, elapsed: 0.00045013427734375
ell 1175, elapsed: 0.0004420280456542969
ell 1174, elapsed: 0.0004458427429199219
ell 1173, elapsed: 0.0004410743713378906
ell 1172, elapsed: 0.00043702125549316406
ell 1171, elapsed: 0.0004601478576660156
ell 1170, elapsed: 0.0006229877471923828
ell 1169, elapsed: 0.0004830360412597656
ell 1168, elapsed: 0.0004258155822753906
ell 1167, elapsed: 0.00042510032653808594
ell 1166, elapsed: 0.0004279613494873047
ell 1165, elapsed: 0.0004260540008544922
ell 1164, elapsed: 0.00042700767517089844
ell 1163, elapsed: 0.0004508495330810547
ell 1162, elapsed: 0.0005481243133544922
ell 1161, elapsed: 0.0005469322204589844
ell 1160, elapsed: 0.0006048679351806641
ell 1159, elapsed: 0.0006110668182373047
ell 1158, elapsed: 0.0005490779876708984
ell 1157, elapsed: 0.00044798851013183594
ell 1156, elapsed: 0.0004448890686035156
ell 1155, elapsed: 0.000431060791015625
ell 1154, elapsed: 0.00043892860412597656
ell 1153, elapsed: 0.00043082237243652344
ell 1152, elapsed: 0.0004429817199707031
ell 1151, elapsed: 0.0004341602325439453
ell 1150, elapsed: 0.00043201446533203125
ell 1149, elapsed: 0.0004391670227050781
ell 1148, elapsed: 0.0004429817199707031
ell 1147, elapsed: 0.0004429817199707031
ell 1146, elapsed: 0.0004398822784423828
ell 1145, elapsed: 0.00041413307189941406
ell 1144, elapsed: 0.0005939006805419922
ell 1143, elapsed: 0.0005068778991699219
ell 1142, elapsed: 0.000514984130859375
ell 1141, elapsed: 0.0006849765777587891
ell 1140, elapsed: 0.0006740093231201172
ell 1139, elapsed: 0.0006868839263916016
ell 1138, elapsed: 0.0006749629974365234
ell 1137, elapsed: 0.0005359649658203125
ell 1136, elapsed: 0.0004470348358154297
ell 1135, elapsed: 0.00044989585876464844
ell 1134, elapsed: 0.0004489421844482422
ell 1133, elapsed: 0.0004329681396484375
ell 1132, elapsed: 0.0004410743713378906
ell 1131, elapsed: 0.00043392181396484375
ell 1130, elapsed: 0.00043582916259765625
ell 1129, elapsed: 0.00044798851013183594
ell 1128, elapsed: 0.0004329681396484375
ell 1127, elapsed: 0.0004677772521972656
ell 1126, elapsed: 0.00044608116149902344
ell 1125, elapsed: 0.0004401206970214844
ell 1124, elapsed: 0.00045800209045410156
ell 1123, elapsed: 0.0004417896270751953
ell 1122, elapsed: 0.0004439353942871094
ell 1121, elapsed: 0.0004451274871826172
ell 1120, elapsed: 0.0004448890686035156
ell 1119, elapsed: 0.0004620552062988281
ell 1118, elapsed: 0.000640869140625
ell 1117, elapsed: 0.0006158351898193359
ell 1116, elapsed: 0.0005629062652587891
ell 1115, elapsed: 0.0005660057067871094
ell 1114, elapsed: 0.00045299530029296875
ell 1113, elapsed: 0.00046181678771972656
ell 1112, elapsed: 0.0005650520324707031
ell 1111, elapsed: 0.0005640983581542969
ell 1110, elapsed: 0.0005428791046142578
ell 1109, elapsed: 0.0005900859832763672
ell 1108, elapsed: 0.0004451274871826172
ell 1107, elapsed: 0.000453948974609375
ell 1106, elapsed: 0.0004639625549316406
ell 1105, elapsed: 0.0004570484161376953
ell 1104, elapsed: 0.0004591941833496094
ell 1103, elapsed: 0.00044989585876464844
ell 1102, elapsed: 0.00045418739318847656
ell 1101, elapsed: 0.0004608631134033203
ell 1100, elapsed: 0.00045108795166015625
ell 1099, elapsed: 0.0004639625549316406
ell 1098, elapsed: 0.0004780292510986328
ell 1097, elapsed: 0.0004630088806152344
ell 1096, elapsed: 0.0004489421844482422
ell 1095, elapsed: 0.00045800209045410156
ell 1094, elapsed: 0.00045490264892578125
ell 1093, elapsed: 0.00045418739318847656
ell 1092, elapsed: 0.00045299530029296875
ell 1091, elapsed: 0.0004482269287109375
ell 1090, elapsed: 0.00048089027404785156
ell 1089, elapsed: 0.00045013427734375
ell 1088, elapsed: 0.0004439353942871094
ell 1087, elapsed: 0.00044798851013183594
ell 1086, elapsed: 0.0004439353942871094
ell 1085, elapsed: 0.0004551410675048828
ell 1084, elapsed: 0.0004429817199707031
ell 1083, elapsed: 0.00044083595275878906
ell 1082, elapsed: 0.0005118846893310547
ell 1081, elapsed: 0.0006008148193359375
ell 1080, elapsed: 0.0004439353942871094
ell 1079, elapsed: 0.0004379749298095703
ell 1078, elapsed: 0.0004329681396484375
ell 1077, elapsed: 0.000598907470703125
ell 1076, elapsed: 0.0004899501800537109
ell 1075, elapsed: 0.0004649162292480469
ell 1074, elapsed: 0.00045299530029296875
ell 1073, elapsed: 0.0006060600280761719
ell 1072, elapsed: 0.0005648136138916016
ell 1071, elapsed: 0.0006070137023925781
ell 1070, elapsed: 0.0005140304565429688
ell 1069, elapsed: 0.0005738735198974609
ell 1068, elapsed: 0.0005340576171875
ell 1067, elapsed: 0.0004451274871826172
ell 1066, elapsed: 0.0004401206970214844
ell 1065, elapsed: 0.0004439353942871094
ell 1064, elapsed: 0.0004410743713378906
ell 1063, elapsed: 0.0004401206970214844
ell 1062, elapsed: 0.0004470348358154297
ell 1061, elapsed: 0.0006508827209472656
ell 1060, elapsed: 0.0005040168762207031
ell 1059, elapsed: 0.0005528926849365234
ell 1058, elapsed: 0.0006811618804931641
ell 1057, elapsed: 0.0005769729614257812
ell 1056, elapsed: 0.0005970001220703125
ell 1055, elapsed: 0.0006690025329589844
ell 1054, elapsed: 0.0005171298980712891
ell 1053, elapsed: 0.0004429817199707031
ell 1052, elapsed: 0.00043702125549316406
ell 1051, elapsed: 0.0005958080291748047
ell 1050, elapsed: 0.0005090236663818359
ell 1049, elapsed: 0.00044608116149902344
ell 1048, elapsed: 0.0004940032958984375
ell 1047, elapsed: 0.00045299530029296875
ell 1046, elapsed: 0.0004448890686035156
ell 1045, elapsed: 0.000576019287109375
ell 1044, elapsed: 0.0005319118499755859
ell 1043, elapsed: 0.0005750656127929688
ell 1042, elapsed: 0.0005328655242919922
ell 1041, elapsed: 0.00044989585876464844
ell 1040, elapsed: 0.0004489421844482422
ell 1039, elapsed: 0.0004420280456542969
ell 1038, elapsed: 0.000453948974609375
ell 1037, elapsed: 0.0004520416259765625
ell 1036, elapsed: 0.00045108795166015625
ell 1035, elapsed: 0.00045299530029296875
ell 1034, elapsed: 0.0004601478576660156
ell 1033, elapsed: 0.00045490264892578125
ell 1032, elapsed: 0.0004398822784423828
ell 1031, elapsed: 0.0004398822784423828
ell 1030, elapsed: 0.0004520416259765625
ell 1029, elapsed: 0.0004489421844482422
ell 1028, elapsed: 0.00045609474182128906
ell 1027, elapsed: 0.00044417381286621094
ell 1026, elapsed: 0.0004642009735107422
ell 1025, elapsed: 0.0006561279296875
ell 1024, elapsed: 0.00045490264892578125
ell 1023, elapsed: 0.0004470348358154297
ell 1022, elapsed: 0.00044798851013183594
ell 1021, elapsed: 0.0004410743713378906
ell 1020, elapsed: 0.0004429817199707031
ell 1019, elapsed: 0.0004401206970214844
ell 1018, elapsed: 0.0004630088806152344
ell 1017, elapsed: 0.00042700767517089844
ell 1016, elapsed: 0.0004439353942871094
ell 1015, elapsed: 0.00043702125549316406
ell 1014, elapsed: 0.0004379749298095703
ell 1013, elapsed: 0.00043392181396484375
ell 1012, elapsed: 0.00043320655822753906
ell 1011, elapsed: 0.0004391670227050781
ell 1010, elapsed: 0.0004630088806152344
ell 1009, elapsed: 0.00043201446533203125
ell 1008, elapsed: 0.00045299530029296875
ell 1007, elapsed: 0.00042891502380371094
ell 1006, elapsed: 0.00043892860412597656
ell 1005, elapsed: 0.00044083595275878906
ell 1004, elapsed: 0.00043702125549316406
ell 1003, elapsed: 0.0004429817199707031
ell 1002, elapsed: 0.00045299530029296875
ell 1001, elapsed: 0.00043892860412597656
ell 1000, elapsed: 0.0004420280456542969
ell 999, elapsed: 0.0004341602325439453
ell 998, elapsed: 0.0004191398620605469
ell 997, elapsed: 0.0005371570587158203
ell 996, elapsed: 0.0005838871002197266
ell 995, elapsed: 0.0006170272827148438
ell 994, elapsed: 0.0005238056182861328
ell 993, elapsed: 0.00044083595275878906
ell 992, elapsed: 0.0005860328674316406
ell 991, elapsed: 0.0005161762237548828
ell 990, elapsed: 0.0004360675811767578
ell 989, elapsed: 0.00043582916259765625
ell 988, elapsed: 0.00043392181396484375
ell 987, elapsed: 0.00045299530029296875
ell 986, elapsed: 0.00045299530029296875
ell 985, elapsed: 0.00044608116149902344
ell 984, elapsed: 0.0004420280456542969
ell 983, elapsed: 0.00044608116149902344
ell 982, elapsed: 0.0004382133483886719
ell 981, elapsed: 0.0004420280456542969
ell 980, elapsed: 0.0004439353942871094
ell 979, elapsed: 0.0004420280456542969
ell 978, elapsed: 0.00044989585876464844
ell 977, elapsed: 0.00044798851013183594
ell 976, elapsed: 0.0004448890686035156
ell 975, elapsed: 0.0004470348358154297
ell 974, elapsed: 0.0004420280456542969
ell 973, elapsed: 0.0004429817199707031
ell 972, elapsed: 0.0004429817199707031
ell 971, elapsed: 0.0004551410675048828
ell 970, elapsed: 0.0004439353942871094
ell 969, elapsed: 0.0004508495330810547
ell 968, elapsed: 0.0004551410675048828
ell 967, elapsed: 0.00045490264892578125
ell 966, elapsed: 0.00044989585876464844
ell 965, elapsed: 0.0004470348358154297
ell 964, elapsed: 0.0004630088806152344
ell 963, elapsed: 0.00043702125549316406
ell 962, elapsed: 0.00043702125549316406
ell 961, elapsed: 0.0004379749298095703
ell 960, elapsed: 0.0004420280456542969
ell 959, elapsed: 0.00044989585876464844
ell 958, elapsed: 0.00045013427734375
ell 957, elapsed: 0.0004520416259765625
ell 956, elapsed: 0.0004630088806152344
ell 955, elapsed: 0.0004451274871826172
ell 954, elapsed: 0.0004470348358154297
ell 953, elapsed: 0.0006341934204101562
ell 952, elapsed: 0.0005750656127929688
ell 951, elapsed: 0.0005681514739990234
ell 950, elapsed: 0.0005979537963867188
ell 949, elapsed: 0.0005400180816650391
ell 948, elapsed: 0.00044608116149902344
ell 947, elapsed: 0.0004410743713378906
ell 946, elapsed: 0.00045108795166015625
ell 945, elapsed: 0.0004432201385498047
ell 944, elapsed: 0.0004410743713378906
ell 943, elapsed: 0.0004417896270751953
ell 942, elapsed: 0.0004420280456542969
ell 941, elapsed: 0.00045108795166015625
ell 940, elapsed: 0.00043201446533203125
ell 939, elapsed: 0.0005130767822265625
ell 938, elapsed: 0.0006849765777587891
ell 937, elapsed: 0.0006110668182373047
ell 936, elapsed: 0.0004448890686035156
ell 935, elapsed: 0.00043892860412597656
ell 934, elapsed: 0.0004730224609375
ell 933, elapsed: 0.00044608116149902344
ell 932, elapsed: 0.00044798851013183594
ell 931, elapsed: 0.00045800209045410156
ell 930, elapsed: 0.0005950927734375
ell 929, elapsed: 0.0006139278411865234
ell 928, elapsed: 0.0006091594696044922
ell 927, elapsed: 0.0006439685821533203
ell 926, elapsed: 0.00047397613525390625
ell 925, elapsed: 0.0004329681396484375
ell 924, elapsed: 0.0005440711975097656
ell 923, elapsed: 0.0005540847778320312
ell 922, elapsed: 0.0004317760467529297
ell 921, elapsed: 0.0004410743713378906
ell 920, elapsed: 0.0006020069122314453
ell 919, elapsed: 0.0004949569702148438
ell 918, elapsed: 0.00043511390686035156
ell 917, elapsed: 0.000431060791015625
ell 916, elapsed: 0.0004379749298095703
ell 915, elapsed: 0.00042891502380371094
ell 914, elapsed: 0.00044608116149902344
ell 913, elapsed: 0.00046706199645996094
ell 912, elapsed: 0.00044608116149902344
ell 911, elapsed: 0.0004520416259765625
ell 910, elapsed: 0.0004458427429199219
ell 909, elapsed: 0.00045108795166015625
ell 908, elapsed: 0.00043892860412597656
ell 907, elapsed: 0.0004420280456542969
ell 906, elapsed: 0.0004470348358154297
ell 905, elapsed: 0.0004601478576660156
ell 904, elapsed: 0.0004570484161376953
ell 903, elapsed: 0.0004489421844482422
ell 902, elapsed: 0.00044798851013183594
ell 901, elapsed: 0.00045490264892578125
ell 900, elapsed: 0.0006208419799804688
ell 899, elapsed: 0.0005021095275878906
ell 898, elapsed: 0.0004639625549316406
ell 897, elapsed: 0.000453948974609375
ell 896, elapsed: 0.00045013427734375
ell 895, elapsed: 0.0004100799560546875
ell 894, elapsed: 0.0004038810729980469
ell 893, elapsed: 0.0004019737243652344
ell 892, elapsed: 0.00039696693420410156
ell 891, elapsed: 0.0004029273986816406
ell 890, elapsed: 0.00039505958557128906
ell 889, elapsed: 0.0004150867462158203
ell 888, elapsed: 0.0003941059112548828
ell 887, elapsed: 0.00039505958557128906
ell 886, elapsed: 0.0004010200500488281
ell 885, elapsed: 0.0003948211669921875
ell 884, elapsed: 0.0004019737243652344
ell 883, elapsed: 0.0003910064697265625
ell 882, elapsed: 0.0004038810729980469
ell 881, elapsed: 0.00039505958557128906
ell 880, elapsed: 0.0004451274871826172
ell 879, elapsed: 0.00045299530029296875
ell 878, elapsed: 0.00043892860412597656
ell 877, elapsed: 0.0004360675811767578
ell 876, elapsed: 0.00043201446533203125
ell 875, elapsed: 0.00043010711669921875
ell 874, elapsed: 0.0004391670227050781
ell 873, elapsed: 0.00042700767517089844
ell 872, elapsed: 0.0005271434783935547
ell 871, elapsed: 0.00042891502380371094
ell 870, elapsed: 0.00044798851013183594
ell 869, elapsed: 0.0005719661712646484
ell 868, elapsed: 0.0005509853363037109
ell 867, elapsed: 0.00044608116149902344
ell 866, elapsed: 0.00043892860412597656
ell 865, elapsed: 0.0004451274871826172
ell 864, elapsed: 0.0004470348358154297
ell 863, elapsed: 0.0004367828369140625
ell 862, elapsed: 0.0005729198455810547
ell 861, elapsed: 0.0005331039428710938
ell 860, elapsed: 0.0006270408630371094
ell 859, elapsed: 0.0004780292510986328
ell 858, elapsed: 0.0005040168762207031
ell 857, elapsed: 0.0004489421844482422
ell 856, elapsed: 0.0004439353942871094
ell 855, elapsed: 0.00045609474182128906
ell 854, elapsed: 0.0004429817199707031
ell 853, elapsed: 0.00043201446533203125
ell 852, elapsed: 0.0004489421844482422
ell 851, elapsed: 0.00044918060302734375
ell 850, elapsed: 0.0005409717559814453
ell 849, elapsed: 0.0004532337188720703
ell 848, elapsed: 0.0004420280456542969
ell 847, elapsed: 0.0005369186401367188
ell 846, elapsed: 0.0005979537963867188
ell 845, elapsed: 0.0004458427429199219
ell 844, elapsed: 0.00045108795166015625
ell 843, elapsed: 0.0005180835723876953
ell 842, elapsed: 0.0005660057067871094
ell 841, elapsed: 0.0005600452423095703
ell 840, elapsed: 0.0004448890686035156
ell 839, elapsed: 0.00045108795166015625
ell 838, elapsed: 0.0004410743713378906
ell 837, elapsed: 0.00044798851013183594
ell 836, elapsed: 0.0004379749298095703
ell 835, elapsed: 0.0005340576171875
ell 834, elapsed: 0.0004520416259765625
ell 833, elapsed: 0.0004489421844482422
ell 832, elapsed: 0.000453948974609375
ell 831, elapsed: 0.00044608116149902344
ell 830, elapsed: 0.0004489421844482422
ell 829, elapsed: 0.00044083595275878906
ell 828, elapsed: 0.0005190372467041016
ell 827, elapsed: 0.0004458427429199219
ell 826, elapsed: 0.0006070137023925781
ell 825, elapsed: 0.0005419254302978516
ell 824, elapsed: 0.0004489421844482422
ell 823, elapsed: 0.0004410743713378906
ell 822, elapsed: 0.0004482269287109375
ell 821, elapsed: 0.0004439353942871094
ell 820, elapsed: 0.0005321502685546875
ell 819, elapsed: 0.00044608116149902344
ell 818, elapsed: 0.000637054443359375
ell 817, elapsed: 0.0004658699035644531
ell 816, elapsed: 0.0004398822784423828
ell 815, elapsed: 0.0005979537963867188
ell 814, elapsed: 0.0004940032958984375
ell 813, elapsed: 0.0004050731658935547
ell 812, elapsed: 0.0004010200500488281
ell 811, elapsed: 0.000392913818359375
ell 810, elapsed: 0.0003948211669921875
ell 809, elapsed: 0.0003941059112548828
ell 808, elapsed: 0.0003941059112548828
ell 807, elapsed: 0.0003960132598876953
ell 806, elapsed: 0.00039696693420410156
ell 805, elapsed: 0.00047087669372558594
ell 804, elapsed: 0.00043702125549316406
ell 803, elapsed: 0.0004439353942871094
ell 802, elapsed: 0.0004429817199707031
ell 801, elapsed: 0.0004429817199707031
ell 800, elapsed: 0.0004439353942871094
ell 799, elapsed: 0.0004398822784423828
ell 798, elapsed: 0.0005319118499755859
ell 797, elapsed: 0.0006630420684814453
ell 796, elapsed: 0.0004439353942871094
ell 795, elapsed: 0.00045990943908691406
ell 794, elapsed: 0.0004420280456542969
ell 793, elapsed: 0.0004398822784423828
ell 792, elapsed: 0.0004558563232421875
ell 791, elapsed: 0.0004429817199707031
ell 790, elapsed: 0.0004429817199707031
ell 789, elapsed: 0.00045299530029296875
ell 788, elapsed: 0.0004439353942871094
ell 787, elapsed: 0.00044083595275878906
ell 786, elapsed: 0.00043702125549316406
ell 785, elapsed: 0.00044798851013183594
ell 784, elapsed: 0.00061798095703125
ell 783, elapsed: 0.0004968643188476562
ell 782, elapsed: 0.0006358623504638672
ell 781, elapsed: 0.0006871223449707031
ell 780, elapsed: 0.00055694580078125
ell 779, elapsed: 0.0006239414215087891
ell 778, elapsed: 0.00051116943359375
ell 777, elapsed: 0.0005490779876708984
ell 776, elapsed: 0.0006489753723144531
ell 775, elapsed: 0.00043702125549316406
ell 774, elapsed: 0.0005469322204589844
ell 773, elapsed: 0.0006961822509765625
ell 772, elapsed: 0.0005979537963867188
ell 771, elapsed: 0.0005857944488525391
ell 770, elapsed: 0.0006310939788818359
ell 769, elapsed: 0.0006909370422363281
ell 768, elapsed: 0.0005848407745361328
ell 767, elapsed: 0.0005998611450195312
ell 766, elapsed: 0.0006220340728759766
ell 765, elapsed: 0.0005729198455810547
ell 764, elapsed: 0.000431060791015625
ell 763, elapsed: 0.0004069805145263672
ell 762, elapsed: 0.0004010200500488281
ell 761, elapsed: 0.0003991127014160156
ell 760, elapsed: 0.00039696693420410156
ell 759, elapsed: 0.00039386749267578125
ell 758, elapsed: 0.0003998279571533203
ell 757, elapsed: 0.000392913818359375
ell 756, elapsed: 0.0003991127014160156
ell 755, elapsed: 0.0006549358367919922
ell 754, elapsed: 0.0006651878356933594
ell 753, elapsed: 0.0006928443908691406
ell 752, elapsed: 0.0005030632019042969
ell 751, elapsed: 0.00044798851013183594
ell 750, elapsed: 0.0005729198455810547
ell 749, elapsed: 0.0005121231079101562
ell 748, elapsed: 0.0005059242248535156
ell 747, elapsed: 0.0006079673767089844
ell 746, elapsed: 0.00044989585876464844
ell 745, elapsed: 0.0005061626434326172
ell 744, elapsed: 0.0006170272827148438
ell 743, elapsed: 0.000759124755859375
ell 742, elapsed: 0.0006761550903320312
ell 741, elapsed: 0.0006198883056640625
ell 740, elapsed: 0.0005488395690917969
ell 739, elapsed: 0.0005679130554199219
ell 738, elapsed: 0.0005431175231933594
ell 737, elapsed: 0.000598907470703125
ell 736, elapsed: 0.0006110668182373047
ell 735, elapsed: 0.0005970001220703125
ell 734, elapsed: 0.0005240440368652344
ell 733, elapsed: 0.00045108795166015625
ell 732, elapsed: 0.00046515464782714844
ell 731, elapsed: 0.0006330013275146484
ell 730, elapsed: 0.0006680488586425781
ell 729, elapsed: 0.0005209445953369141
ell 728, elapsed: 0.0006299018859863281
ell 727, elapsed: 0.0006120204925537109
ell 726, elapsed: 0.0005400180816650391
ell 725, elapsed: 0.00046181678771972656
ell 724, elapsed: 0.0005409717559814453
ell 723, elapsed: 0.0006101131439208984
ell 722, elapsed: 0.0005540847778320312
ell 721, elapsed: 0.0006680488586425781
ell 720, elapsed: 0.0006000995635986328
ell 719, elapsed: 0.0005381107330322266
ell 718, elapsed: 0.0005578994750976562
ell 717, elapsed: 0.0003979206085205078
ell 716, elapsed: 0.00039577484130859375
ell 715, elapsed: 0.000392913818359375
ell 714, elapsed: 0.0003960132598876953
ell 713, elapsed: 0.000392913818359375
ell 712, elapsed: 0.00039196014404296875
ell 711, elapsed: 0.0003979206085205078
ell 710, elapsed: 0.0004360675811767578
ell 709, elapsed: 0.00045299530029296875
ell 708, elapsed: 0.00044798851013183594
ell 707, elapsed: 0.0004470348358154297
ell 706, elapsed: 0.000453948974609375
ell 705, elapsed: 0.0004448890686035156
ell 704, elapsed: 0.0005459785461425781
ell 703, elapsed: 0.0006289482116699219
ell 702, elapsed: 0.0004508495330810547
ell 701, elapsed: 0.0006420612335205078
ell 700, elapsed: 0.0006761550903320312
ell 699, elapsed: 0.0005140304565429688
ell 698, elapsed: 0.00043892860412597656
ell 697, elapsed: 0.0005748271942138672
ell 696, elapsed: 0.0007219314575195312
ell 695, elapsed: 0.0005390644073486328
ell 694, elapsed: 0.0006139278411865234
ell 693, elapsed: 0.00043082237243652344
ell 692, elapsed: 0.0004467964172363281
ell 691, elapsed: 0.0005939006805419922
ell 690, elapsed: 0.0005970001220703125
ell 689, elapsed: 0.0004360675811767578
ell 688, elapsed: 0.0004398822784423828
ell 687, elapsed: 0.0005159378051757812
ell 686, elapsed: 0.0006160736083984375
ell 685, elapsed: 0.0005679130554199219
ell 684, elapsed: 0.0005350112915039062
ell 683, elapsed: 0.0007581710815429688
ell 682, elapsed: 0.0006978511810302734
ell 681, elapsed: 0.0005669593811035156
ell 680, elapsed: 0.00044417381286621094
ell 679, elapsed: 0.0004439353942871094
ell 678, elapsed: 0.0005030632019042969
ell 677, elapsed: 0.0006968975067138672
ell 676, elapsed: 0.0005910396575927734
ell 675, elapsed: 0.0006890296936035156
ell 674, elapsed: 0.0005540847778320312
ell 673, elapsed: 0.0004410743713378906
ell 672, elapsed: 0.00043702125549316406
ell 671, elapsed: 0.00043010711669921875
ell 670, elapsed: 0.0005300045013427734
ell 669, elapsed: 0.0006260871887207031
ell 668, elapsed: 0.0006809234619140625
ell 667, elapsed: 0.0005869865417480469
ell 666, elapsed: 0.000579833984375
ell 665, elapsed: 0.000537872314453125
ell 664, elapsed: 0.0005049705505371094
ell 663, elapsed: 0.0003981590270996094
ell 662, elapsed: 0.00039887428283691406
ell 661, elapsed: 0.0003991127014160156
ell 660, elapsed: 0.0003960132598876953
ell 659, elapsed: 0.0003960132598876953
ell 658, elapsed: 0.000392913818359375
ell 657, elapsed: 0.0003991127014160156
ell 656, elapsed: 0.0003941059112548828
ell 655, elapsed: 0.0005130767822265625
ell 654, elapsed: 0.0004382133483886719
ell 653, elapsed: 0.0004401206970214844
ell 652, elapsed: 0.00044608116149902344
ell 651, elapsed: 0.0005881786346435547
ell 650, elapsed: 0.0005209445953369141
ell 649, elapsed: 0.00044798851013183594
ell 648, elapsed: 0.0004940032958984375
ell 647, elapsed: 0.00039887428283691406
ell 646, elapsed: 0.0004000663757324219
ell 645, elapsed: 0.00039505958557128906
ell 644, elapsed: 0.0003979206085205078
ell 643, elapsed: 0.00038886070251464844
ell 642, elapsed: 0.00039196014404296875
ell 641, elapsed: 0.0003991127014160156
ell 640, elapsed: 0.0003921985626220703
ell 639, elapsed: 0.0004379749298095703
ell 638, elapsed: 0.00043511390686035156
ell 637, elapsed: 0.00035691261291503906
ell 636, elapsed: 0.0004191398620605469
ell 635, elapsed: 0.0004100799560546875
ell 634, elapsed: 0.00034499168395996094
ell 633, elapsed: 0.00033092498779296875
ell 632, elapsed: 0.0005209445953369141
ell 631, elapsed: 0.0005309581756591797
ell 630, elapsed: 0.00043201446533203125
ell 629, elapsed: 0.00055694580078125
ell 628, elapsed: 0.0004260540008544922
ell 627, elapsed: 0.00040793418884277344
ell 626, elapsed: 0.00043392181396484375
ell 625, elapsed: 0.00051116943359375
ell 624, elapsed: 0.00047206878662109375
ell 623, elapsed: 0.00033402442932128906
ell 622, elapsed: 0.0003609657287597656
ell 621, elapsed: 0.0003638267517089844
ell 620, elapsed: 0.0003478527069091797
ell 619, elapsed: 0.0003380775451660156
ell 618, elapsed: 0.0003349781036376953
ell 617, elapsed: 0.0003390312194824219
ell 616, elapsed: 0.0003409385681152344
ell 615, elapsed: 0.0003330707550048828
ell 614, elapsed: 0.0003459453582763672
ell 613, elapsed: 0.00043010711669921875
ell 612, elapsed: 0.0004088878631591797
ell 611, elapsed: 0.0003769397735595703
ell 610, elapsed: 0.00034809112548828125
ell 609, elapsed: 0.0003769397735595703
ell 608, elapsed: 0.0003719329833984375
ell 607, elapsed: 0.0003669261932373047
ell 606, elapsed: 0.0003581047058105469
ell 605, elapsed: 0.00037407875061035156
ell 604, elapsed: 0.00037097930908203125
ell 603, elapsed: 0.0003819465637207031
ell 602, elapsed: 0.0003600120544433594
ell 601, elapsed: 0.00035881996154785156
ell 600, elapsed: 0.0003619194030761719
ell 599, elapsed: 0.00037479400634765625
ell 598, elapsed: 0.00037479400634765625
ell 597, elapsed: 0.0003600120544433594
ell 596, elapsed: 0.00032520294189453125
ell 595, elapsed: 0.0003287792205810547
ell 594, elapsed: 0.0003409385681152344
ell 593, elapsed: 0.00044798851013183594
ell 592, elapsed: 0.00033283233642578125
ell 591, elapsed: 0.0003228187561035156
ell 590, elapsed: 0.00032401084899902344
ell 589, elapsed: 0.0003330707550048828
ell 588, elapsed: 0.0003228187561035156
ell 587, elapsed: 0.00032901763916015625
ell 586, elapsed: 0.0003209114074707031
ell 585, elapsed: 0.0003228187561035156
ell 584, elapsed: 0.00033283233642578125
ell 583, elapsed: 0.0003230571746826172
ell 582, elapsed: 0.0006129741668701172
ell 581, elapsed: 0.0003421306610107422
ell 580, elapsed: 0.0005900859832763672
ell 579, elapsed: 0.0007147789001464844
ell 578, elapsed: 0.0005600452423095703
ell 577, elapsed: 0.0007150173187255859
ell 576, elapsed: 0.0006289482116699219
ell 575, elapsed: 0.0004589557647705078
ell 574, elapsed: 0.0005548000335693359
ell 573, elapsed: 0.0006680488586425781
ell 572, elapsed: 0.0005099773406982422
ell 571, elapsed: 0.0006411075592041016
ell 570, elapsed: 0.0006041526794433594
ell 569, elapsed: 0.0004909038543701172
ell 568, elapsed: 0.0006499290466308594
ell 567, elapsed: 0.0004990100860595703
ell 566, elapsed: 0.0006449222564697266
ell 565, elapsed: 0.000682830810546875
ell 564, elapsed: 0.0008068084716796875
ell 563, elapsed: 0.0006861686706542969
ell 562, elapsed: 0.0006718635559082031
ell 561, elapsed: 0.0005230903625488281
ell 560, elapsed: 0.0006270408630371094
ell 559, elapsed: 0.0005009174346923828
ell 558, elapsed: 0.0005540847778320312
ell 557, elapsed: 0.001461029052734375
ell 556, elapsed: 0.0007100105285644531
ell 555, elapsed: 0.0003600120544433594
ell 554, elapsed: 0.00034499168395996094
ell 553, elapsed: 0.00040602684020996094
ell 552, elapsed: 0.0003440380096435547
ell 551, elapsed: 0.0003409385681152344
ell 550, elapsed: 0.0003387928009033203
ell 549, elapsed: 0.0003368854522705078
ell 548, elapsed: 0.000347137451171875
ell 547, elapsed: 0.0003428459167480469
ell 546, elapsed: 0.0003440380096435547
ell 545, elapsed: 0.0003399848937988281
ell 544, elapsed: 0.0003418922424316406
ell 543, elapsed: 0.0004038810729980469
ell 542, elapsed: 0.00040721893310546875
ell 541, elapsed: 0.00039696693420410156
ell 540, elapsed: 0.0003991127014160156
ell 539, elapsed: 0.0003960132598876953
ell 538, elapsed: 0.000392913818359375
ell 537, elapsed: 0.0003979206085205078
ell 536, elapsed: 0.00039386749267578125
ell 535, elapsed: 0.0004000663757324219
ell 534, elapsed: 0.000492095947265625
ell 533, elapsed: 0.0003991127014160156
ell 532, elapsed: 0.0004057884216308594
ell 531, elapsed: 0.00039696693420410156
ell 530, elapsed: 0.0004019737243652344
ell 529, elapsed: 0.00039696693420410156
ell 528, elapsed: 0.00039315223693847656
ell 527, elapsed: 0.0004000663757324219
ell 526, elapsed: 0.00039696693420410156
ell 525, elapsed: 0.0005590915679931641
ell 524, elapsed: 0.00040411949157714844
ell 523, elapsed: 0.0003948211669921875
ell 522, elapsed: 0.00039505958557128906
ell 521, elapsed: 0.00039386749267578125
ell 520, elapsed: 0.0003941059112548828
ell 519, elapsed: 0.00039196014404296875
ell 518, elapsed: 0.00039005279541015625
ell 517, elapsed: 0.00039887428283691406
ell 516, elapsed: 0.0005271434783935547
ell 515, elapsed: 0.0003981590270996094
ell 514, elapsed: 0.0003941059112548828
ell 513, elapsed: 0.00044417381286621094
ell 512, elapsed: 0.0004279613494873047
ell 511, elapsed: 0.0005011558532714844
ell 510, elapsed: 0.0005688667297363281
ell 509, elapsed: 0.00039196014404296875
ell 508, elapsed: 0.0004589557647705078
ell 507, elapsed: 0.0003941059112548828
ell 506, elapsed: 0.00039696693420410156
ell 505, elapsed: 0.0003960132598876953
ell 504, elapsed: 0.00039505958557128906
ell 503, elapsed: 0.00039196014404296875
ell 502, elapsed: 0.000392913818359375
ell 501, elapsed: 0.00039196014404296875
ell 500, elapsed: 0.0003991127014160156
ell 499, elapsed: 0.0004410743713378906
ell 498, elapsed: 0.0005419254302978516
ell 497, elapsed: 0.00041413307189941406
ell 496, elapsed: 0.00039887428283691406
ell 495, elapsed: 0.00039696693420410156
ell 494, elapsed: 0.0003941059112548828
ell 493, elapsed: 0.0003960132598876953
ell 492, elapsed: 0.00039005279541015625
ell 491, elapsed: 0.00039005279541015625
ell 490, elapsed: 0.0005190372467041016
ell 489, elapsed: 0.0005280971527099609
ell 488, elapsed: 0.0005998611450195312
ell 487, elapsed: 0.0007228851318359375
ell 486, elapsed: 0.0006029605865478516
ell 485, elapsed: 0.0005280971527099609
ell 484, elapsed: 0.0005609989166259766
ell 483, elapsed: 0.0004839897155761719
ell 482, elapsed: 0.00039196014404296875
ell 481, elapsed: 0.0003960132598876953
ell 480, elapsed: 0.00038886070251464844
ell 479, elapsed: 0.0003910064697265625
ell 478, elapsed: 0.00039076805114746094
ell 477, elapsed: 0.0003960132598876953
ell 476, elapsed: 0.0003960132598876953
ell 475, elapsed: 0.0005619525909423828
ell 474, elapsed: 0.0005180835723876953
ell 473, elapsed: 0.0005290508270263672
ell 472, elapsed: 0.0005290508270263672
ell 471, elapsed: 0.0006189346313476562
ell 470, elapsed: 0.0005300045013427734
ell 469, elapsed: 0.0004639625549316406
ell 468, elapsed: 0.0005080699920654297
ell 467, elapsed: 0.0004611015319824219
ell 466, elapsed: 0.00039887428283691406
ell 465, elapsed: 0.0003941059112548828
ell 464, elapsed: 0.0003921985626220703
ell 463, elapsed: 0.00039696693420410156
ell 462, elapsed: 0.0003979206085205078
ell 461, elapsed: 0.0005800724029541016
ell 460, elapsed: 0.0006070137023925781
ell 459, elapsed: 0.0007829666137695312
ell 458, elapsed: 0.0007340908050537109
ell 457, elapsed: 0.0006399154663085938
ell 456, elapsed: 0.00045299530029296875
ell 455, elapsed: 0.000514984130859375
ell 454, elapsed: 0.0004329681396484375
ell 453, elapsed: 0.00043320655822753906
ell 452, elapsed: 0.0006351470947265625
ell 451, elapsed: 0.0004968643188476562
ell 450, elapsed: 0.0006320476531982422
ell 449, elapsed: 0.0007460117340087891
ell 448, elapsed: 0.0004119873046875
ell 447, elapsed: 0.0003979206085205078
ell 446, elapsed: 0.0004000663757324219
ell 445, elapsed: 0.00039005279541015625
ell 444, elapsed: 0.0004010200500488281
ell 443, elapsed: 0.000392913818359375
ell 442, elapsed: 0.00039386749267578125
ell 441, elapsed: 0.0003991127014160156
ell 440, elapsed: 0.0004639625549316406
ell 439, elapsed: 0.00046515464782714844
ell 438, elapsed: 0.0006299018859863281
ell 437, elapsed: 0.0006740093231201172
ell 436, elapsed: 0.0005190372467041016
ell 435, elapsed: 0.0004448890686035156
ell 434, elapsed: 0.0006461143493652344
ell 433, elapsed: 0.0004870891571044922
ell 432, elapsed: 0.00039505958557128906
ell 431, elapsed: 0.0004029273986816406
ell 430, elapsed: 0.000392913818359375
ell 429, elapsed: 0.00039577484130859375
ell 428, elapsed: 0.00039887428283691406
ell 427, elapsed: 0.000392913818359375
ell 426, elapsed: 0.0004019737243652344
ell 425, elapsed: 0.0003941059112548828
ell 424, elapsed: 0.0006959438323974609
ell 423, elapsed: 0.0004589557647705078
ell 422, elapsed: 0.0004360675811767578
ell 421, elapsed: 0.00045680999755859375
ell 420, elapsed: 0.000637054443359375
ell 419, elapsed: 0.0005190372467041016
ell 418, elapsed: 0.0007028579711914062
ell 417, elapsed: 0.0004241466522216797
ell 416, elapsed: 0.00039315223693847656
ell 415, elapsed: 0.0003910064697265625
ell 414, elapsed: 0.000392913818359375
ell 413, elapsed: 0.0003910064697265625
ell 412, elapsed: 0.000392913818359375
ell 411, elapsed: 0.0003960132598876953
ell 410, elapsed: 0.00039196014404296875
ell 409, elapsed: 0.0004858970642089844
ell 408, elapsed: 0.0003979206085205078
ell 407, elapsed: 0.0003981590270996094
ell 406, elapsed: 0.00039315223693847656
ell 405, elapsed: 0.000392913818359375
ell 404, elapsed: 0.00039887428283691406
ell 403, elapsed: 0.00039196014404296875
ell 402, elapsed: 0.00039696693420410156
ell 401, elapsed: 0.00039577484130859375
ell 400, elapsed: 0.00047707557678222656
ell 399, elapsed: 0.0004029273986816406
ell 398, elapsed: 0.0003979206085205078
ell 397, elapsed: 0.0003998279571533203
ell 396, elapsed: 0.0003960132598876953
ell 395, elapsed: 0.00039696693420410156
ell 394, elapsed: 0.00039386749267578125
ell 393, elapsed: 0.00039505958557128906
ell 392, elapsed: 0.0003981590270996094
ell 391, elapsed: 0.000537872314453125
ell 390, elapsed: 0.0005471706390380859
ell 389, elapsed: 0.0004019737243652344
ell 388, elapsed: 0.0003979206085205078
ell 387, elapsed: 0.0004000663757324219
ell 386, elapsed: 0.00039696693420410156
ell 385, elapsed: 0.0003960132598876953
ell 384, elapsed: 0.0003979206085205078
ell 383, elapsed: 0.0004000663757324219
ell 382, elapsed: 0.0004229545593261719
ell 381, elapsed: 0.0003960132598876953
ell 380, elapsed: 0.000408172607421875
ell 379, elapsed: 0.00039696693420410156
ell 378, elapsed: 0.0003960132598876953
ell 377, elapsed: 0.0003991127014160156
ell 376, elapsed: 0.0003991127014160156
ell 375, elapsed: 0.0003960132598876953
ell 374, elapsed: 0.0003972053527832031
ell 373, elapsed: 0.00044608116149902344
ell 372, elapsed: 0.00039887428283691406
ell 371, elapsed: 0.0003910064697265625
ell 370, elapsed: 0.0003960132598876953
ell 369, elapsed: 0.00039196014404296875
ell 368, elapsed: 0.0003960132598876953
ell 367, elapsed: 0.0003991127014160156
ell 366, elapsed: 0.0003972053527832031
ell 365, elapsed: 0.00039887428283691406
ell 364, elapsed: 0.00045108795166015625
ell 363, elapsed: 0.000392913818359375
ell 362, elapsed: 0.0004019737243652344
ell 361, elapsed: 0.00039196014404296875
ell 360, elapsed: 0.0004010200500488281
ell 359, elapsed: 0.000392913818359375
ell 358, elapsed: 0.00039887428283691406
ell 357, elapsed: 0.00039005279541015625
ell 356, elapsed: 0.0003981590270996094
ell 355, elapsed: 0.0004971027374267578
ell 354, elapsed: 0.0005168914794921875
ell 353, elapsed: 0.00038814544677734375
ell 352, elapsed: 0.0003628730773925781
ell 351, elapsed: 0.00036597251892089844
ell 350, elapsed: 0.0003771781921386719
ell 349, elapsed: 0.0003731250762939453
ell 348, elapsed: 0.0003731250762939453
ell 347, elapsed: 0.0005559921264648438
ell 346, elapsed: 0.0005359649658203125
ell 345, elapsed: 0.0003838539123535156
ell 344, elapsed: 0.0003731250762939453
ell 343, elapsed: 0.0003769397735595703
ell 342, elapsed: 0.00044417381286621094
ell 341, elapsed: 0.0004398822784423828
ell 340, elapsed: 0.00043487548828125
ell 339, elapsed: 0.000453948974609375
ell 338, elapsed: 0.0005059242248535156
ell 337, elapsed: 0.0005910396575927734
ell 336, elapsed: 0.00041103363037109375
ell 335, elapsed: 0.00039887428283691406
ell 334, elapsed: 0.00041794776916503906
ell 333, elapsed: 0.0004010200500488281
ell 332, elapsed: 0.00039196014404296875
ell 331, elapsed: 0.00039696693420410156
ell 330, elapsed: 0.0005428791046142578
ell 329, elapsed: 0.0005931854248046875
ell 328, elapsed: 0.0004379749298095703
ell 327, elapsed: 0.0004391670227050781
ell 326, elapsed: 0.0003991127014160156
ell 325, elapsed: 0.00039196014404296875
ell 324, elapsed: 0.00039505958557128906
ell 323, elapsed: 0.00039887428283691406
ell 322, elapsed: 0.0005509853363037109
ell 321, elapsed: 0.0005879402160644531
ell 320, elapsed: 0.0004379749298095703
ell 319, elapsed: 0.0004429817199707031
ell 318, elapsed: 0.0004138946533203125
ell 317, elapsed: 0.000392913818359375
ell 316, elapsed: 0.00040411949157714844
ell 315, elapsed: 0.00039386749267578125
ell 314, elapsed: 0.00045800209045410156
ell 313, elapsed: 0.00043702125549316406
ell 312, elapsed: 0.0003979206085205078
ell 311, elapsed: 0.00039887428283691406
ell 310, elapsed: 0.0003960132598876953
ell 309, elapsed: 0.00039196014404296875
ell 308, elapsed: 0.0004019737243652344
ell 307, elapsed: 0.0003910064697265625
ell 306, elapsed: 0.0004050731658935547
ell 305, elapsed: 0.0006070137023925781
ell 304, elapsed: 0.0005960464477539062
ell 303, elapsed: 0.0006799697875976562
ell 302, elapsed: 0.0004799365997314453
ell 301, elapsed: 0.00039505958557128906
ell 300, elapsed: 0.0003910064697265625
ell 299, elapsed: 0.0005028247833251953
ell 298, elapsed: 0.00039887428283691406
ell 297, elapsed: 0.0003910064697265625
ell 296, elapsed: 0.0003991127014160156
ell 295, elapsed: 0.00039005279541015625
ell 294, elapsed: 0.00039696693420410156
ell 293, elapsed: 0.0003910064697265625
ell 292, elapsed: 0.00039005279541015625
ell 291, elapsed: 0.0004000663757324219
ell 290, elapsed: 0.0004889965057373047
ell 289, elapsed: 0.000492095947265625
ell 288, elapsed: 0.0005049705505371094
ell 287, elapsed: 0.0005249977111816406
ell 286, elapsed: 0.000514984130859375
ell 285, elapsed: 0.0005068778991699219
ell 284, elapsed: 0.0005099773406982422
ell 283, elapsed: 0.0006291866302490234
ell 282, elapsed: 0.0004999637603759766
ell 281, elapsed: 0.0005052089691162109
ell 280, elapsed: 0.0005080699920654297
ell 279, elapsed: 0.0005018711090087891
ell 278, elapsed: 0.0003910064697265625
ell 277, elapsed: 0.0003910064697265625
ell 276, elapsed: 0.00039315223693847656
ell 275, elapsed: 0.000537872314453125
ell 274, elapsed: 0.000514984130859375
ell 273, elapsed: 0.0005059242248535156
ell 272, elapsed: 0.0005061626434326172
ell 271, elapsed: 0.0004048347473144531
ell 270, elapsed: 0.00039005279541015625
ell 269, elapsed: 0.0003960132598876953
ell 268, elapsed: 0.00038886070251464844
ell 267, elapsed: 0.0005071163177490234
ell 266, elapsed: 0.00039005279541015625
ell 265, elapsed: 0.0003910064697265625
ell 264, elapsed: 0.0003998279571533203
ell 263, elapsed: 0.0004611015319824219
ell 262, elapsed: 0.000514984130859375
ell 261, elapsed: 0.0005071163177490234
ell 260, elapsed: 0.0005059242248535156
ell 259, elapsed: 0.0006089210510253906
ell 258, elapsed: 0.0005118846893310547
ell 257, elapsed: 0.0004451274871826172
ell 256, elapsed: 0.0003910064697265625
ell 255, elapsed: 0.0003879070281982422
ell 254, elapsed: 0.00039696693420410156
ell 253, elapsed: 0.0003879070281982422
ell 252, elapsed: 0.00039505958557128906
ell 251, elapsed: 0.0005450248718261719
ell 250, elapsed: 0.0005190372467041016
ell 249, elapsed: 0.0005481243133544922
ell 248, elapsed: 0.0007290840148925781
ell 247, elapsed: 0.0007140636444091797
ell 246, elapsed: 0.0005838871002197266
ell 245, elapsed: 0.0005419254302978516
ell 244, elapsed: 0.0004508495330810547
ell 243, elapsed: 0.0006170272827148438
ell 242, elapsed: 0.00047397613525390625
ell 241, elapsed: 0.0006029605865478516
ell 240, elapsed: 0.0005331039428710938
ell 239, elapsed: 0.0006330013275146484
ell 238, elapsed: 0.0006551742553710938
ell 237, elapsed: 0.0006730556488037109
ell 236, elapsed: 0.0006799697875976562
ell 235, elapsed: 0.0005018711090087891
ell 234, elapsed: 0.0006310939788818359
ell 233, elapsed: 0.0006160736083984375
ell 232, elapsed: 0.00044608116149902344
ell 231, elapsed: 0.00039386749267578125
ell 230, elapsed: 0.00039196014404296875
ell 229, elapsed: 0.0003879070281982422
ell 228, elapsed: 0.00039005279541015625
ell 227, elapsed: 0.0003960132598876953
ell 226, elapsed: 0.00038909912109375
ell 225, elapsed: 0.00039196014404296875
ell 224, elapsed: 0.0005350112915039062
ell 223, elapsed: 0.0004298686981201172
ell 222, elapsed: 0.00039696693420410156
ell 221, elapsed: 0.00039196014404296875
ell 220, elapsed: 0.00039315223693847656
ell 219, elapsed: 0.00038886070251464844
ell 218, elapsed: 0.00038909912109375
ell 217, elapsed: 0.000392913818359375
ell 216, elapsed: 0.00039005279541015625
ell 215, elapsed: 0.0006039142608642578
ell 214, elapsed: 0.00045299530029296875
ell 213, elapsed: 0.0004642009735107422
ell 212, elapsed: 0.0006389617919921875
ell 211, elapsed: 0.0005779266357421875
ell 210, elapsed: 0.0005860328674316406
ell 209, elapsed: 0.0005648136138916016
ell 208, elapsed: 0.0004029273986816406
ell 207, elapsed: 0.00038814544677734375
ell 206, elapsed: 0.00039005279541015625
ell 205, elapsed: 0.0003941059112548828
ell 204, elapsed: 0.00038909912109375
ell 203, elapsed: 0.00039386749267578125
ell 202, elapsed: 0.00038695335388183594
ell 201, elapsed: 0.00039005279541015625
ell 200, elapsed: 0.0005080699920654297
ell 199, elapsed: 0.00045299530029296875
ell 198, elapsed: 0.0004439353942871094
ell 197, elapsed: 0.00044417381286621094
ell 196, elapsed: 0.00043702125549316406
ell 195, elapsed: 0.00043392181396484375
ell 194, elapsed: 0.0004649162292480469
ell 193, elapsed: 0.0005090236663818359
ell 192, elapsed: 0.0005519390106201172
ell 191, elapsed: 0.0004379749298095703
ell 190, elapsed: 0.0004451274871826172
ell 189, elapsed: 0.0004360675811767578
ell 188, elapsed: 0.0004639625549316406
ell 187, elapsed: 0.0004489421844482422
ell 186, elapsed: 0.00045013427734375
ell 185, elapsed: 0.0008158683776855469
ell 184, elapsed: 0.00036907196044921875
ell 183, elapsed: 0.0003268718719482422
ell 182, elapsed: 0.0003230571746826172
ell 181, elapsed: 0.0003249645233154297
ell 180, elapsed: 0.000331878662109375
ell 179, elapsed: 0.000431060791015625
ell 178, elapsed: 0.00043702125549316406
ell 177, elapsed: 0.0004470348358154297
ell 176, elapsed: 0.0005397796630859375
ell 175, elapsed: 0.0004329681396484375
ell 174, elapsed: 0.0006129741668701172
ell 173, elapsed: 0.0006120204925537109
ell 172, elapsed: 0.0006430149078369141
ell 171, elapsed: 0.0006458759307861328
ell 170, elapsed: 0.0006999969482421875
ell 169, elapsed: 0.0004258155822753906
ell 168, elapsed: 0.0004329681396484375
ell 167, elapsed: 0.0004189014434814453
ell 166, elapsed: 0.00042510032653808594
ell 165, elapsed: 0.0004208087921142578
ell 164, elapsed: 0.0004229545593261719
ell 163, elapsed: 0.00043320655822753906
ell 162, elapsed: 0.0004239082336425781
ell 161, elapsed: 0.0004489421844482422
ell 160, elapsed: 0.0004279613494873047
ell 159, elapsed: 0.000431060791015625
ell 158, elapsed: 0.00043392181396484375
ell 157, elapsed: 0.0004258155822753906
ell 156, elapsed: 0.0004260540008544922
ell 155, elapsed: 0.000431060791015625
ell 154, elapsed: 0.00042510032653808594
ell 153, elapsed: 0.000453948974609375
ell 152, elapsed: 0.0004248619079589844
ell 151, elapsed: 0.00043392181396484375
ell 150, elapsed: 0.0004220008850097656
ell 149, elapsed: 0.00042700767517089844
ell 148, elapsed: 0.00041794776916503906
ell 147, elapsed: 0.0004119873046875
ell 146, elapsed: 0.0004100799560546875
ell 145, elapsed: 0.0004360675811767578
ell 144, elapsed: 0.0004150867462158203
ell 143, elapsed: 0.00040602684020996094
ell 142, elapsed: 0.00041604042053222656
ell 141, elapsed: 0.0004169940948486328
ell 140, elapsed: 0.000408172607421875
ell 139, elapsed: 0.0004220008850097656
ell 138, elapsed: 0.00041484832763671875
ell 137, elapsed: 0.0004279613494873047
ell 136, elapsed: 0.000453948974609375
ell 135, elapsed: 0.00041294097900390625
ell 134, elapsed: 0.0004220008850097656
ell 133, elapsed: 0.0005838871002197266
ell 132, elapsed: 0.0004780292510986328
ell 131, elapsed: 0.00043892860412597656
ell 130, elapsed: 0.0004439353942871094
ell 129, elapsed: 0.0004420280456542969
ell 128, elapsed: 0.0004570484161376953
ell 127, elapsed: 0.00043487548828125
ell 126, elapsed: 0.0003819465637207031
ell 125, elapsed: 0.0003337860107421875
ell 124, elapsed: 0.0003380775451660156
ell 123, elapsed: 0.00032901763916015625
ell 122, elapsed: 0.0003399848937988281
ell 121, elapsed: 0.0003268718719482422
ell 120, elapsed: 0.00033211708068847656
ell 119, elapsed: 0.0003409385681152344
ell 118, elapsed: 0.0003509521484375
ell 117, elapsed: 0.0003609657287597656
ell 116, elapsed: 0.0005028247833251953
ell 115, elapsed: 0.000431060791015625
ell 114, elapsed: 0.0003540515899658203
ell 113, elapsed: 0.0004298686981201172
ell 112, elapsed: 0.00042700767517089844
ell 111, elapsed: 0.0004210472106933594
ell 110, elapsed: 0.00043702125549316406
ell 109, elapsed: 0.0004260540008544922
ell 108, elapsed: 0.0004210472106933594
ell 107, elapsed: 0.0004241466522216797
ell 106, elapsed: 0.0004229545593261719
ell 105, elapsed: 0.0004210472106933594
ell 104, elapsed: 0.0004470348358154297
ell 103, elapsed: 0.0004208087921142578
ell 102, elapsed: 0.0004229545593261719
ell 101, elapsed: 0.0004398822784423828
ell 100, elapsed: 0.0003600120544433594
ell 99, elapsed: 0.00034809112548828125
ell 98, elapsed: 0.0003540515899658203
ell 97, elapsed: 0.0003609657287597656
ell 96, elapsed: 0.00035309791564941406
ell 95, elapsed: 0.0003590583801269531
ell 94, elapsed: 0.0003528594970703125
ell 93, elapsed: 0.0003540515899658203
ell 92, elapsed: 0.0003590583801269531
ell 91, elapsed: 0.0003600120544433594
ell 90, elapsed: 0.0003571510314941406
ell 89, elapsed: 0.0003609657287597656
ell 88, elapsed: 0.0003581047058105469
ell 87, elapsed: 0.0003619194030761719
ell 86, elapsed: 0.0003559589385986328
ell 85, elapsed: 0.0003609657287597656
ell 84, elapsed: 0.0003662109375
ell 83, elapsed: 0.0003609657287597656
ell 82, elapsed: 0.0003731250762939453
ell 81, elapsed: 0.0004050731658935547
ell 80, elapsed: 0.0003960132598876953
ell 79, elapsed: 0.00039577484130859375
ell 78, elapsed: 0.000392913818359375
ell 77, elapsed: 0.00039696693420410156
ell 76, elapsed: 0.00039505958557128906
ell 75, elapsed: 0.00039505958557128906
ell 74, elapsed: 0.00038886070251464844
ell 73, elapsed: 0.00039196014404296875
ell 72, elapsed: 0.0005428791046142578
ell 71, elapsed: 0.0005209445953369141
ell 70, elapsed: 0.00045800209045410156
ell 69, elapsed: 0.0004220008850097656
ell 68, elapsed: 0.0003948211669921875
ell 67, elapsed: 0.0003941059112548828
ell 66, elapsed: 0.00039196014404296875
ell 65, elapsed: 0.0003981590270996094
ell 64, elapsed: 0.0004830360412597656
ell 63, elapsed: 0.00039696693420410156
ell 62, elapsed: 0.000392913818359375
ell 61, elapsed: 0.0003910064697265625
ell 60, elapsed: 0.000392913818359375
ell 59, elapsed: 0.0003910064697265625
ell 58, elapsed: 0.0003960132598876953
ell 57, elapsed: 0.00039005279541015625
ell 56, elapsed: 0.00039386749267578125
ell 55, elapsed: 0.0005049705505371094
ell 54, elapsed: 0.0004119873046875
ell 53, elapsed: 0.00039386749267578125
ell 52, elapsed: 0.000392913818359375
ell 51, elapsed: 0.00039005279541015625
ell 50, elapsed: 0.0003948211669921875
ell 49, elapsed: 0.00039196014404296875
ell 48, elapsed: 0.0003948211669921875
ell 47, elapsed: 0.00039005279541015625
ell 46, elapsed: 0.00047397613525390625
ell 45, elapsed: 0.00039887428283691406
ell 44, elapsed: 0.00039505958557128906
ell 43, elapsed: 0.0003948211669921875
ell 42, elapsed: 0.0003921985626220703
ell 41, elapsed: 0.000392913818359375
ell 40, elapsed: 0.0003981590270996094
ell 39, elapsed: 0.000392913818359375
ell 38, elapsed: 0.00040411949157714844
ell 37, elapsed: 0.0005750656127929688
ell 36, elapsed: 0.0005700588226318359
ell 35, elapsed: 0.00039887428283691406
ell 34, elapsed: 0.0003960132598876953
ell 33, elapsed: 0.0003972053527832031
ell 32, elapsed: 0.00039505958557128906
ell 31, elapsed: 0.0003981590270996094
ell 30, elapsed: 0.00039005279541015625
ell 29, elapsed: 0.0004889965057373047
ell 28, elapsed: 0.0004000663757324219
ell 27, elapsed: 0.00039505958557128906
ell 26, elapsed: 0.0004010200500488281
ell 25, elapsed: 0.0003960132598876953
ell 24, elapsed: 0.000392913818359375
ell 23, elapsed: 0.0004010200500488281
ell 22, elapsed: 0.000392913818359375
ell 21, elapsed: 0.0003979206085205078
ell 20, elapsed: 0.00047779083251953125
ell 19, elapsed: 0.00042510032653808594
ell 18, elapsed: 0.0004031658172607422
ell 17, elapsed: 0.00039386749267578125
ell 16, elapsed: 0.00039696693420410156
ell 15, elapsed: 0.00039505958557128906
ell 14, elapsed: 0.00039505958557128906
ell 13, elapsed: 0.0004000663757324219
ell 12, elapsed: 0.0003941059112548828
ell 11, elapsed: 0.0004801750183105469
ell 10, elapsed: 0.00039196014404296875
ell 9, elapsed: 0.00039505958557128906
ell 8, elapsed: 0.0003998279571533203
ell 7, elapsed: 0.0003948211669921875
ell 6, elapsed: 0.0003979206085205078
ell 5, elapsed: 0.00039505958557128906
ell 4, elapsed: 0.0003998279571533203
ell 3, elapsed: 0.00039505958557128906
ell 2, elapsed: 0.0004749298095703125
ell 1, elapsed: 0.0005528926849365234
ell 0, elapsed: 0.00042891502380371094
  0.651706 seconds (103.92 k allocations: 3.975 MiB)
elapsed: 0.0004019737243652344
step:          0.070248 sec (0 allocations: 0 byte, 0.0% gc time)
swapping:      0.000689 sec (0 allocations: 0 byte, 0.0% gc time)
calc_Mellell!: 0.009174 sec (0 allocations: 0 byte, 0.0% gc time)
  t0 :  0.002156 sec (0 allocations: 0 byte, 0.0% gc time)
  tm2 : 0.099391 sec (0 allocations: 0 byte, 0.0% gc time)
  tm2s: 0.001868 sec (0 allocations: 0 byte, 0.0% gc time)
  tm4 : 0.261559 sec (0 allocations: 0 byte, 0.0% gc time)
  tp2 : 0.0 sec (0 allocations: 0 byte, 0.0% gc time)
  tp2s: 0.0 sec (0 allocations: 0 byte, 0.0% gc time)
  tp4 : 0.0 sec (0 allocations: 0 byte, 0.0% gc time)
calc_wtdll!:   0.398362 sec (9.9 k allocations: 1.047 MB, 0.0% gc time)
calc_wljj!:    0.03597 sec (689 allocations: 10.766 KB, 0.0% gc time)
mult_prefac!:  0.0 sec (0 allocations: 0 byte, 0.0% gc time)
convert:       0.0 sec (0 allocations: 0 byte, 0.0% gc time)
write:         0.043535 sec (0 allocations: 0 byte, 0.0% gc time)
test_rand_2f1: 0.0 sec (0 allocations: 0 byte, 0.0% gc time)
Closing outfile out/Ml21-cache.bin...   0.000005 seconds
  0.000623 seconds (36 allocations: 27.953 KiB)
make_phi():   0.002695 seconds (9.47 k allocations: 257.875 KiB)
  0.222457 seconds (141.90 k allocations: 3.483 MiB)
tskip:       0.001126 sec (0 allocations: 0 byte, 0.0% gc time)
tread:       0.028621 sec (17 allocations: 10.641 KB, 0.0% gc time)
tmultphi:    0.016172 sec (0 allocations: 0 byte, 0.0% gc time)
tbrfft:      0.054196 sec (0 allocations: 0 byte, 0.0% gc time)
tmultprefac: 0.048868 sec (0 allocations: 0 byte, 0.0% gc time)
toutfunc:    0.069341 sec (127.507 k allocations: 2.312 MB, 0.0% gc time)
Testing R=1.0 ... passed
Calculating fmax: 
  dlrec    = 4
  dlrecRg1 = -4
  q=1.1, R=0.9:	  0.478903 seconds (105.76 k allocations: 15.287 MiB)

  0.479253 seconds (105.99 k allocations: 15.324 MiB)
ℓ = 1202
Δℓ = 4
ΔℓRg1 = -4
N = 1600
q = 1.1
kmin = 1.0e-5
kmax = 100000.00000000004
χ0 = 0.023029999999999995
RR = RR.tsv
ℓmax = ℓmax.bin
f21 = f21.bin
kmin = 1.0e-5
kmax = 100000.0
dlrec    = 4
dlrecRg1 = -4
Output size: 5741568 bytes = 0.005347251892089844 GiB
Output size: 51264 bytes = 4.774332046508789e-5 GiB
Reading 'out/F21EllCache'...   0.001346 seconds (197 allocations: 84.203 KiB)
ellmax: 1202
lmaxcache: 1202
fell[:,1,1] = ComplexF64[1.3482014726274674e-57 - 3.302141236118086e-73im, 1.357860004724329e-57 - 3.3257978169518355e-73im]
ell 1202, elapsed: 3.1948089599609375e-5
ell 1201, elapsed: 0.0005970001220703125
ell 1200, elapsed: 0.0004401206970214844
ell 1199, elapsed: 0.00040221214294433594
ell 1198, elapsed: 0.00048613548278808594
ell 1002, elapsed: 0.010509014129638672
ell 1001, elapsed: 0.0003859996795654297
ell 1000, elapsed: 0.00034689903259277344
ell 999, elapsed: 0.00034618377685546875
ell 998, elapsed: 0.000347137451171875
ell 902, elapsed: 0.004970073699951172
ell 901, elapsed: 0.00035190582275390625
ell 900, elapsed: 0.00040984153747558594
ell 899, elapsed: 0.0002949237823486328
ell 898, elapsed: 0.0002841949462890625
ell 802, elapsed: 0.004733085632324219
ell 801, elapsed: 0.00035691261291503906
ell 800, elapsed: 0.00034499168395996094
ell 799, elapsed: 0.00034499168395996094
ell 798, elapsed: 0.0003459453582763672
ell 702, elapsed: 0.005097866058349609
ell 701, elapsed: 0.0003578662872314453
ell 700, elapsed: 0.00034499168395996094
ell 699, elapsed: 0.00034499168395996094
ell 698, elapsed: 0.0003440380096435547
ell 602, elapsed: 0.0050029754638671875
ell 601, elapsed: 0.00034880638122558594
ell 600, elapsed: 0.00034618377685546875
ell 599, elapsed: 0.0003681182861328125
ell 598, elapsed: 0.00037407875061035156
ell 502, elapsed: 0.0049130916595458984
ell 501, elapsed: 0.0003521442413330078
ell 500, elapsed: 0.00034308433532714844
ell 499, elapsed: 0.00034308433532714844
ell 498, elapsed: 0.00034308433532714844
ell 402, elapsed: 0.005089998245239258
ell 401, elapsed: 0.00035691261291503906
ell 400, elapsed: 0.0003440380096435547
ell 399, elapsed: 0.00034618377685546875
ell 398, elapsed: 0.0003440380096435547
ell 302, elapsed: 0.005280971527099609
ell 301, elapsed: 0.0004208087921142578
ell 300, elapsed: 0.000415802001953125
ell 299, elapsed: 0.00041985511779785156
ell 298, elapsed: 0.00040912628173828125
ell 202, elapsed: 0.006329059600830078
ell 201, elapsed: 0.0004031658172607422
ell 200, elapsed: 0.00045299530029296875
ell 199, elapsed: 0.0004029273986816406
ell 198, elapsed: 0.0003991127014160156
ell 152, elapsed: 0.002627134323120117
ell 151, elapsed: 0.0004258155822753906
ell 150, elapsed: 0.0003459453582763672
ell 149, elapsed: 0.0003428459167480469
ell 148, elapsed: 0.0003459453582763672
ell 127, elapsed: 0.0014078617095947266
ell 126, elapsed: 0.00034999847412109375
ell 125, elapsed: 0.00034308433532714844
ell 124, elapsed: 0.00039076805114746094
ell 123, elapsed: 0.0004029273986816406
ell 114, elapsed: 0.0009751319885253906
ell 113, elapsed: 0.00040078163146972656
ell 112, elapsed: 0.00039887428283691406
ell 111, elapsed: 0.00039887428283691406
ell 110, elapsed: 0.0004019737243652344
ell 102, elapsed: 0.0009570121765136719
ell 101, elapsed: 0.00040221214294433594
ell 100, elapsed: 0.0004019737243652344
ell 99, elapsed: 0.0004010200500488281
ell 98, elapsed: 0.0004019737243652344
ell 97, elapsed: 0.0004818439483642578
ell 96, elapsed: 0.0004699230194091797
ell 95, elapsed: 0.0004718303680419922
ell 94, elapsed: 0.0005347728729248047
ell 93, elapsed: 0.0004718303680419922
ell 92, elapsed: 0.0004749298095703125
ell 91, elapsed: 0.0004680156707763672
ell 90, elapsed: 0.00047016143798828125
ell 89, elapsed: 0.00047516822814941406
ell 88, elapsed: 0.00046706199645996094
ell 87, elapsed: 0.0004730224609375
ell 86, elapsed: 0.0005519390106201172
ell 85, elapsed: 0.00046896934509277344
ell 84, elapsed: 0.0004761219024658203
ell 83, elapsed: 0.0004661083221435547
ell 82, elapsed: 0.0004749298095703125
ell 81, elapsed: 0.0004680156707763672
ell 80, elapsed: 0.0004699230194091797
ell 79, elapsed: 0.0005459785461425781
ell 78, elapsed: 0.00047397613525390625
ell 77, elapsed: 0.0004699230194091797
ell 76, elapsed: 0.0004668235778808594
ell 75, elapsed: 0.00046706199645996094
ell 74, elapsed: 0.0004742145538330078
ell 73, elapsed: 0.0004630088806152344
ell 72, elapsed: 0.00047707557678222656
ell 71, elapsed: 0.0004830360412597656
ell 70, elapsed: 0.0004038810729980469
ell 69, elapsed: 0.00039005279541015625
ell 68, elapsed: 0.00039315223693847656
ell 67, elapsed: 0.0003981590270996094
ell 66, elapsed: 0.00042700767517089844
ell 65, elapsed: 0.0004680156707763672
ell 64, elapsed: 0.0004658699035644531
ell 63, elapsed: 0.0005209445953369141
ell 62, elapsed: 0.0004761219024658203
ell 61, elapsed: 0.0004661083221435547
ell 60, elapsed: 0.00047087669372558594
ell 59, elapsed: 0.0004639625549316406
ell 58, elapsed: 0.0004668235778808594
ell 57, elapsed: 0.00047397613525390625
ell 56, elapsed: 0.0004680156707763672
ell 55, elapsed: 0.0005030632019042969
ell 54, elapsed: 0.00039386749267578125
ell 53, elapsed: 0.00039315223693847656
ell 52, elapsed: 0.0003948211669921875
ell 51, elapsed: 0.0003941059112548828
ell 50, elapsed: 0.0004010200500488281
ell 49, elapsed: 0.0004229545593261719
ell 48, elapsed: 0.0003979206085205078
ell 47, elapsed: 0.0004010200500488281
ell 46, elapsed: 0.0004241466522216797
ell 45, elapsed: 0.0004000663757324219
ell 44, elapsed: 0.00039005279541015625
ell 43, elapsed: 0.0003941059112548828
ell 42, elapsed: 0.0004000663757324219
ell 41, elapsed: 0.0003941059112548828
ell 40, elapsed: 0.0004000663757324219
ell 39, elapsed: 0.0003941059112548828
ell 38, elapsed: 0.0003960132598876953
ell 37, elapsed: 0.00047206878662109375
ell 36, elapsed: 0.0005249977111816406
ell 35, elapsed: 0.0005390644073486328
ell 34, elapsed: 0.0005309581756591797
ell 33, elapsed: 0.0005311965942382812
ell 32, elapsed: 0.0005409717559814453
ell 31, elapsed: 0.0005249977111816406
ell 30, elapsed: 0.0005500316619873047
ell 29, elapsed: 0.0005249977111816406
ell 28, elapsed: 0.0005280971527099609
ell 27, elapsed: 0.0005359649658203125
ell 26, elapsed: 0.0005259513854980469
ell 25, elapsed: 0.0005280971527099609
ell 24, elapsed: 0.0005409717559814453
ell 23, elapsed: 0.0006759166717529297
ell 22, elapsed: 0.0005309581756591797
ell 21, elapsed: 0.0005321502685546875
ell 20, elapsed: 0.0005397796630859375
ell 19, elapsed: 0.0005331039428710938
ell 18, elapsed: 0.0005469322204589844
ell 17, elapsed: 0.0004930496215820312
ell 16, elapsed: 0.0003960132598876953
ell 15, elapsed: 0.0003979206085205078
ell 14, elapsed: 0.00040984153747558594
ell 13, elapsed: 0.0003998279571533203
ell 12, elapsed: 0.00039505958557128906
ell 11, elapsed: 0.0004100799560546875
ell 10, elapsed: 0.0004038810729980469
ell 9, elapsed: 0.0005080699920654297
ell 8, elapsed: 0.0005509853363037109
ell 7, elapsed: 0.0005311965942382812
ell 6, elapsed: 0.0005321502685546875
ell 5, elapsed: 0.0005371570587158203
ell 4, elapsed: 0.0005340576171875
ell 3, elapsed: 0.000537872314453125
ell 2, elapsed: 0.0005469322204589844
ell 1, elapsed: 0.0005218982696533203
ell 0, elapsed: 0.0005400180816650391
  0.134043 seconds (19.34 k allocations: 842.047 KiB)
elapsed: 0.00067901611328125
step:          0.06009 sec (0 allocations: 0 byte, 0.0% gc time)
swapping:      0.000396 sec (0 allocations: 0 byte, 0.0% gc time)
calc_Mellell!: 0.00123 sec (0 allocations: 0 byte, 0.0% gc time)
  t0 :  0.000349 sec (0 allocations: 0 byte, 0.0% gc time)
  tm2 : 0.013986 sec (0 allocations: 0 byte, 0.0% gc time)
  tm2s: 0.000321 sec (0 allocations: 0 byte, 0.0% gc time)
  tm4 : 0.037311 sec (0 allocations: 0 byte, 0.0% gc time)
  tp2 : 0.0 sec (0 allocations: 0 byte, 0.0% gc time)
  tp2s: 0.0 sec (0 allocations: 0 byte, 0.0% gc time)
  tp4 : 0.0 sec (0 allocations: 0 byte, 0.0% gc time)
calc_wtdll!:   0.052434 sec (1.344 k allocations: 147.0 KB, 0.0% gc time)
calc_wljj!:    0.003314 sec (6 allocations: 96 byte, 0.0% gc time)
mult_prefac!:  0.0 sec (0 allocations: 0 byte, 0.0% gc time)
convert:       0.0 sec (0 allocations: 0 byte, 0.0% gc time)
write:         0.00411 sec (0 allocations: 0 byte, 0.0% gc time)
test_rand_2f1: 0.0 sec (0 allocations: 0 byte, 0.0% gc time)
Closing outfile out/Ml21-cache.bin...   0.000008 seconds
  0.000355 seconds (36 allocations: 27.953 KiB)
make_phi():   0.003141 seconds (9.47 k allocations: 257.875 KiB)
  0.017788 seconds (11.65 k allocations: 308.688 KiB)
tskip:       1.9e-5 sec (0 allocations: 0 byte, 0.0% gc time)
tread:       0.002818 sec (17 allocations: 2.125 KB, 0.0% gc time)
tmultphi:    0.00128 sec (0 allocations: 0 byte, 0.0% gc time)
tbrfft:      0.004707 sec (0 allocations: 0 byte, 0.0% gc time)
tmultprefac: 0.003235 sec (0 allocations: 0 byte, 0.0% gc time)
toutfunc:    0.005445 sec (10.304 k allocations: 196.0 KB, 0.0% gc time)
Testing R=0.9 ... passed
Calculating fmax: 
  dlrec    = 4
  dlrecRg1 = -4
  q=1.1, R=0.8:	  0.458582 seconds (103.25 k allocations: 14.856 MiB)

  0.458920 seconds (103.48 k allocations: 14.893 MiB)
ℓ = 1202
Δℓ = 4
ΔℓRg1 = -4
N = 1600
q = 1.1
kmin = 1.0e-5
kmax = 100000.00000000004
χ0 = 0.023029999999999995
RR = RR.tsv
ℓmax = ℓmax.bin
f21 = f21.bin
kmin = 1.0e-5
kmax = 100000.0
dlrec    = 4
dlrecRg1 = -4
Output size: 5741568 bytes = 0.005347251892089844 GiB
Output size: 51264 bytes = 4.774332046508789e-5 GiB
Reading 'out/F21EllCache'...   0.001221 seconds (197 allocations: 84.203 KiB)
ellmax: 1202
lmaxcache: 1202
fell[:,1,1] = ComplexF64[7.519068145690986e-120 - 1.8416405474382574e-135im, 7.541664537386155e-120 - 1.847175067190611e-135im]
ell 1202, elapsed: 2.6941299438476562e-5
ell 1201, elapsed: 0.0004811286926269531
ell 1200, elapsed: 0.00038886070251464844
ell 1199, elapsed: 0.00048089027404785156
ell 1198, elapsed: 0.00043201446533203125
ell 1002, elapsed: 0.01157689094543457
ell 1001, elapsed: 0.0004239082336425781
ell 1000, elapsed: 0.0003848075866699219
ell 999, elapsed: 0.00038504600524902344
ell 998, elapsed: 0.0003829002380371094
ell 902, elapsed: 0.005923032760620117
ell 901, elapsed: 0.0004220008850097656
ell 900, elapsed: 0.0003960132598876953
ell 899, elapsed: 0.0003859996795654297
ell 898, elapsed: 0.0003859996795654297
ell 802, elapsed: 0.005978107452392578
ell 801, elapsed: 0.0004241466522216797
ell 800, elapsed: 0.0003910064697265625
ell 799, elapsed: 0.00038909912109375
ell 798, elapsed: 0.00038504600524902344
ell 702, elapsed: 0.006147146224975586
ell 701, elapsed: 0.0005388259887695312
ell 700, elapsed: 0.00048804283142089844
ell 699, elapsed: 0.0004711151123046875
ell 698, elapsed: 0.0005679130554199219
ell 602, elapsed: 0.00613093376159668
ell 601, elapsed: 0.00041294097900390625
ell 600, elapsed: 0.00039315223693847656
ell 599, elapsed: 0.00038814544677734375
ell 598, elapsed: 0.00038695335388183594
ell 502, elapsed: 0.005928993225097656
ell 501, elapsed: 0.0004057884216308594
ell 500, elapsed: 0.0003898143768310547
ell 499, elapsed: 0.00038695335388183594
ell 498, elapsed: 0.0003840923309326172
ell 402, elapsed: 0.005889892578125
ell 401, elapsed: 0.00041294097900390625
ell 400, elapsed: 0.00038814544677734375
ell 399, elapsed: 0.0003859996795654297
ell 398, elapsed: 0.0003838539123535156
ell 302, elapsed: 0.005975961685180664
ell 301, elapsed: 0.0005929470062255859
ell 300, elapsed: 0.00039696693420410156
ell 299, elapsed: 0.0003838539123535156
ell 298, elapsed: 0.00038313865661621094
ell 202, elapsed: 0.006206989288330078
ell 201, elapsed: 0.00041985511779785156
ell 200, elapsed: 0.0003898143768310547
ell 199, elapsed: 0.0003840923309326172
ell 198, elapsed: 0.0003819465637207031
ell 152, elapsed: 0.003101825714111328
ell 151, elapsed: 0.0003981590270996094
ell 150, elapsed: 0.00038695335388183594
ell 149, elapsed: 0.0003829002380371094
ell 148, elapsed: 0.0003838539123535156
ell 127, elapsed: 0.0017151832580566406
ell 126, elapsed: 0.00039005279541015625
ell 125, elapsed: 0.0003838539123535156
ell 124, elapsed: 0.0003838539123535156
ell 123, elapsed: 0.0003819465637207031
ell 114, elapsed: 0.0011851787567138672
ell 113, elapsed: 0.0003859996795654297
ell 112, elapsed: 0.0003859996795654297
ell 111, elapsed: 0.0003829002380371094
ell 110, elapsed: 0.00038313865661621094
ell 102, elapsed: 0.0008549690246582031
ell 101, elapsed: 0.0003838539123535156
ell 100, elapsed: 0.00038504600524902344
ell 99, elapsed: 0.000514984130859375
ell 98, elapsed: 0.00038504600524902344
ell 97, elapsed: 0.0004611015319824219
ell 96, elapsed: 0.00045299530029296875
ell 95, elapsed: 0.0004620552062988281
ell 94, elapsed: 0.0004489421844482422
ell 93, elapsed: 0.0004589557647705078
ell 92, elapsed: 0.00044989585876464844
ell 91, elapsed: 0.0005860328674316406
ell 90, elapsed: 0.0004570484161376953
ell 89, elapsed: 0.00044798851013183594
ell 88, elapsed: 0.00045108795166015625
ell 87, elapsed: 0.0004470348358154297
ell 86, elapsed: 0.0004439353942871094
ell 85, elapsed: 0.00045108795166015625
ell 84, elapsed: 0.0005738735198974609
ell 83, elapsed: 0.0004570484161376953
ell 82, elapsed: 0.00044798851013183594
ell 81, elapsed: 0.00044608116149902344
ell 80, elapsed: 0.00045299530029296875
ell 79, elapsed: 0.00045490264892578125
ell 78, elapsed: 0.00045299530029296875
ell 77, elapsed: 0.0004470348358154297
ell 76, elapsed: 0.0005800724029541016
ell 75, elapsed: 0.00044798851013183594
ell 74, elapsed: 0.00045013427734375
ell 73, elapsed: 0.0004508495330810547
ell 72, elapsed: 0.0004520416259765625
ell 71, elapsed: 0.0004508495330810547
ell 70, elapsed: 0.00044989585876464844
ell 69, elapsed: 0.0004448890686035156
ell 68, elapsed: 0.0005898475646972656
ell 67, elapsed: 0.00044989585876464844
ell 66, elapsed: 0.00045609474182128906
ell 65, elapsed: 0.0004429817199707031
ell 64, elapsed: 0.0004508495330810547
ell 63, elapsed: 0.0004520416259765625
ell 62, elapsed: 0.0004489421844482422
ell 61, elapsed: 0.0005731582641601562
ell 60, elapsed: 0.00045490264892578125
ell 59, elapsed: 0.00045299530029296875
ell 58, elapsed: 0.00045180320739746094
ell 57, elapsed: 0.0004489421844482422
ell 56, elapsed: 0.00044798851013183594
[...]
ell 791, elapsed: 0.001107931137084961
ell 790, elapsed: 0.0008378028869628906
ell 789, elapsed: 0.0008330345153808594
ell 788, elapsed: 0.0008320808410644531
ell 782, elapsed: 0.001837015151977539
ell 781, elapsed: 0.0010960102081298828
ell 780, elapsed: 0.0008327960968017578
ell 779, elapsed: 0.0008449554443359375
ell 778, elapsed: 0.0010800361633300781
ell 772, elapsed: 0.0021028518676757812
ell 771, elapsed: 0.0008509159088134766
ell 770, elapsed: 0.0008261203765869141
ell 769, elapsed: 0.0008289813995361328
ell 768, elapsed: 0.0008289813995361328
ell 762, elapsed: 0.0014200210571289062
ell 761, elapsed: 0.0010230541229248047
ell 760, elapsed: 0.0009548664093017578
ell 759, elapsed: 0.00080108642578125
ell 758, elapsed: 0.0008308887481689453
ell 752, elapsed: 0.0014879703521728516
ell 751, elapsed: 0.0007920265197753906
ell 750, elapsed: 0.0008189678192138672
ell 749, elapsed: 0.0008039474487304688
ell 748, elapsed: 0.0008029937744140625
ell 742, elapsed: 0.0014870166778564453
ell 741, elapsed: 0.00080108642578125
ell 740, elapsed: 0.0007939338684082031
ell 739, elapsed: 0.0007829666137695312
ell 738, elapsed: 0.000782012939453125
ell 732, elapsed: 0.0014400482177734375
ell 731, elapsed: 0.000820159912109375
ell 730, elapsed: 0.0008039474487304688
ell 729, elapsed: 0.0008029937744140625
ell 728, elapsed: 0.000823974609375
ell 722, elapsed: 0.0014889240264892578
ell 721, elapsed: 0.0008208751678466797
ell 720, elapsed: 0.0010159015655517578
ell 719, elapsed: 0.0011382102966308594
ell 718, elapsed: 0.0011050701141357422
ell 712, elapsed: 0.0020389556884765625
ell 711, elapsed: 0.001110076904296875
ell 710, elapsed: 0.0011057853698730469
ell 709, elapsed: 0.000820159912109375
ell 708, elapsed: 0.000823974609375
ell 702, elapsed: 0.0017409324645996094
ell 701, elapsed: 0.0008170604705810547
ell 700, elapsed: 0.0008249282836914062
ell 699, elapsed: 0.0008330345153808594
ell 698, elapsed: 0.0008230209350585938
ell 692, elapsed: 0.0017168521881103516
ell 691, elapsed: 0.0010459423065185547
ell 690, elapsed: 0.0010678768157958984
ell 689, elapsed: 0.0008499622344970703
ell 688, elapsed: 0.0008261203765869141
ell 682, elapsed: 0.002068042755126953
ell 681, elapsed: 0.0008361339569091797
ell 680, elapsed: 0.0010800361633300781
ell 679, elapsed: 0.0010330677032470703
ell 678, elapsed: 0.0011868476867675781
ell 672, elapsed: 0.0017619132995605469
ell 671, elapsed: 0.0008280277252197266
ell 670, elapsed: 0.0008270740509033203
ell 669, elapsed: 0.0008261203765869141
ell 668, elapsed: 0.000823974609375
ell 662, elapsed: 0.0017261505126953125
ell 661, elapsed: 0.000823974609375
ell 660, elapsed: 0.0008289813995361328
ell 659, elapsed: 0.0008270740509033203
ell 658, elapsed: 0.0008389949798583984
ell 652, elapsed: 0.0019850730895996094
ell 651, elapsed: 0.0008301734924316406
ell 650, elapsed: 0.0008299350738525391
ell 649, elapsed: 0.0011050701141357422
ell 648, elapsed: 0.0008270740509033203
ell 642, elapsed: 0.0014820098876953125
ell 641, elapsed: 0.0008499622344970703
ell 640, elapsed: 0.0008280277252197266
ell 639, elapsed: 0.0008230209350585938
ell 638, elapsed: 0.0008308887481689453
ell 632, elapsed: 0.0017361640930175781
ell 631, elapsed: 0.000823974609375
ell 630, elapsed: 0.0010209083557128906
ell 629, elapsed: 0.001107931137084961
ell 628, elapsed: 0.0008358955383300781
ell 622, elapsed: 0.001750946044921875
ell 621, elapsed: 0.0008270740509033203
ell 620, elapsed: 0.0008449554443359375
ell 619, elapsed: 0.0008189678192138672
ell 618, elapsed: 0.0008299350738525391
ell 612, elapsed: 0.0017380714416503906
ell 611, elapsed: 0.0008351802825927734
ell 610, elapsed: 0.0008270740509033203
ell 609, elapsed: 0.0010828971862792969
ell 608, elapsed: 0.0008339881896972656
ell 602, elapsed: 0.0016989707946777344
ell 601, elapsed: 0.0008289813995361328
ell 600, elapsed: 0.0011761188507080078
ell 599, elapsed: 0.0008440017700195312
ell 598, elapsed: 0.0008249282836914062
ell 592, elapsed: 0.0017321109771728516
ell 591, elapsed: 0.0010678768157958984
ell 590, elapsed: 0.0011038780212402344
ell 589, elapsed: 0.000823974609375
ell 588, elapsed: 0.0008270740509033203
ell 582, elapsed: 0.0018930435180664062
ell 581, elapsed: 0.0010690689086914062
ell 580, elapsed: 0.0010471343994140625
ell 579, elapsed: 0.0009150505065917969
ell 578, elapsed: 0.0008361339569091797
ell 572, elapsed: 0.0019729137420654297
ell 571, elapsed: 0.0022721290588378906
ell 570, elapsed: 0.0011129379272460938
ell 569, elapsed: 0.0015881061553955078
ell 568, elapsed: 0.0008389949798583984
ell 562, elapsed: 0.0017299652099609375
ell 561, elapsed: 0.0017437934875488281
ell 560, elapsed: 0.0008270740509033203
ell 559, elapsed: 0.0008180141448974609
ell 558, elapsed: 0.0019190311431884766
ell 552, elapsed: 0.0017879009246826172
ell 551, elapsed: 0.000823974609375
ell 550, elapsed: 0.0016911029815673828
ell 549, elapsed: 0.0008258819580078125
ell 548, elapsed: 0.0008361339569091797
ell 542, elapsed: 0.0023050308227539062
ell 541, elapsed: 0.0010371208190917969
ell 540, elapsed: 0.0008618831634521484
ell 539, elapsed: 0.0016510486602783203
ell 538, elapsed: 0.0008230209350585938
ell 532, elapsed: 0.0025458335876464844
ell 531, elapsed: 0.0010921955108642578
ell 530, elapsed: 0.0008258819580078125
ell 529, elapsed: 0.0008280277252197266
ell 528, elapsed: 0.0016570091247558594
ell 522, elapsed: 0.0017879009246826172
ell 521, elapsed: 0.0016989707946777344
ell 520, elapsed: 0.0008361339569091797
ell 519, elapsed: 0.0008301734924316406
ell 518, elapsed: 0.0008349418640136719
ell 512, elapsed: 0.002593994140625
ell 511, elapsed: 0.0008299350738525391
ell 510, elapsed: 0.0016529560089111328
ell 509, elapsed: 0.000823974609375
ell 508, elapsed: 0.0008361339569091797
ell 502, elapsed: 0.0023810863494873047
ell 501, elapsed: 0.0008261203765869141
ell 500, elapsed: 0.0008280277252197266
ell 499, elapsed: 0.000823974609375
ell 498, elapsed: 0.0008368492126464844
ell 492, elapsed: 0.0014071464538574219
ell 491, elapsed: 0.0018620491027832031
ell 490, elapsed: 0.0008111000061035156
ell 489, elapsed: 0.0007979869842529297
ell 488, elapsed: 0.0008089542388916016
ell 482, elapsed: 0.002321004867553711
ell 481, elapsed: 0.0007929801940917969
ell 480, elapsed: 0.0008020401000976562
ell 479, elapsed: 0.00090789794921875
ell 478, elapsed: 0.0008080005645751953
ell 472, elapsed: 0.0014891624450683594
ell 471, elapsed: 0.0008261203765869141
ell 470, elapsed: 0.0008709430694580078
ell 469, elapsed: 0.0007879734039306641
ell 468, elapsed: 0.0007870197296142578
ell 462, elapsed: 0.001522064208984375
ell 461, elapsed: 0.0008480548858642578
ell 460, elapsed: 0.0008168220520019531
ell 459, elapsed: 0.0007998943328857422
ell 458, elapsed: 0.0008039474487304688
ell 452, elapsed: 0.0016739368438720703
ell 451, elapsed: 0.0007901191711425781
ell 450, elapsed: 0.0010499954223632812
ell 449, elapsed: 0.000949859619140625
ell 448, elapsed: 0.0008301734924316406
ell 442, elapsed: 0.001725912094116211
ell 441, elapsed: 0.0009198188781738281
ell 440, elapsed: 0.0008769035339355469
ell 439, elapsed: 0.0010809898376464844
ell 438, elapsed: 0.0010418891906738281
ell 432, elapsed: 0.001600027084350586
ell 431, elapsed: 0.0010869503021240234
ell 430, elapsed: 0.0008609294891357422
ell 429, elapsed: 0.0008189678192138672
ell 428, elapsed: 0.001116037368774414
ell 422, elapsed: 0.0017361640930175781
ell 421, elapsed: 0.0008230209350585938
ell 420, elapsed: 0.000904083251953125
ell 419, elapsed: 0.0010809898376464844
ell 418, elapsed: 0.0010559558868408203
ell 412, elapsed: 0.0018429756164550781
ell 411, elapsed: 0.0008249282836914062
ell 410, elapsed: 0.000823974609375
ell 409, elapsed: 0.0008158683776855469
ell 408, elapsed: 0.000965118408203125
ell 402, elapsed: 0.0017979145050048828
ell 401, elapsed: 0.0008640289306640625
ell 400, elapsed: 0.0008327960968017578
ell 399, elapsed: 0.001043081283569336
ell 398, elapsed: 0.0008299350738525391
ell 392, elapsed: 0.0018191337585449219
ell 391, elapsed: 0.0008261203765869141
ell 390, elapsed: 0.0008280277252197266
ell 389, elapsed: 0.000823974609375
ell 388, elapsed: 0.0008981227874755859
ell 382, elapsed: 0.0018038749694824219
ell 381, elapsed: 0.0008170604705810547
ell 380, elapsed: 0.0008161067962646484
ell 379, elapsed: 0.0009419918060302734
ell 378, elapsed: 0.000885009765625
ell 372, elapsed: 0.002115964889526367
ell 371, elapsed: 0.0008311271667480469
ell 370, elapsed: 0.0010569095611572266
ell 369, elapsed: 0.0010759830474853516
ell 368, elapsed: 0.0008618831634521484
ell 362, elapsed: 0.0020771026611328125
ell 361, elapsed: 0.001087188720703125
ell 360, elapsed: 0.0008280277252197266
ell 359, elapsed: 0.0008151531219482422
ell 358, elapsed: 0.0008289813995361328
ell 352, elapsed: 0.0017151832580566406
ell 351, elapsed: 0.0008280277252197266
ell 350, elapsed: 0.0008268356323242188
ell 349, elapsed: 0.0008099079132080078
ell 348, elapsed: 0.0008280277252197266
ell 342, elapsed: 0.001500844955444336
ell 341, elapsed: 0.0008189678192138672
ell 340, elapsed: 0.0008189678192138672
ell 339, elapsed: 0.0008230209350585938
ell 338, elapsed: 0.0011169910430908203
ell 332, elapsed: 0.002071857452392578
ell 331, elapsed: 0.0008339881896972656
ell 330, elapsed: 0.0008378028869628906
ell 329, elapsed: 0.0008251667022705078
ell 328, elapsed: 0.0008270740509033203
ell 322, elapsed: 0.002076864242553711
ell 321, elapsed: 0.0008170604705810547
ell 320, elapsed: 0.0008280277252197266
ell 319, elapsed: 0.001135110855102539
ell 318, elapsed: 0.0009260177612304688
ell 312, elapsed: 0.0015180110931396484
ell 311, elapsed: 0.0008211135864257812
ell 310, elapsed: 0.0008230209350585938
ell 309, elapsed: 0.0009179115295410156
ell 308, elapsed: 0.0008270740509033203
ell 302, elapsed: 0.0017189979553222656
ell 301, elapsed: 0.0008461475372314453
ell 300, elapsed: 0.0008320808410644531
ell 299, elapsed: 0.0008270740509033203
ell 298, elapsed: 0.0008289813995361328
ell 292, elapsed: 0.0017859935760498047
ell 291, elapsed: 0.0010528564453125
ell 290, elapsed: 0.0008251667022705078
ell 289, elapsed: 0.0008220672607421875
ell 288, elapsed: 0.0008449554443359375
ell 282, elapsed: 0.0017390251159667969
ell 281, elapsed: 0.0008339881896972656
ell 280, elapsed: 0.0008339881896972656
ell 279, elapsed: 0.0008189678192138672
ell 278, elapsed: 0.0008289813995361328
ell 272, elapsed: 0.0014979839324951172
ell 271, elapsed: 0.001096963882446289
ell 270, elapsed: 0.0008318424224853516
ell 269, elapsed: 0.0012001991271972656
ell 268, elapsed: 0.000823974609375
ell 262, elapsed: 0.0017480850219726562
ell 261, elapsed: 0.0008339881896972656
ell 260, elapsed: 0.0008330345153808594
ell 259, elapsed: 0.0008499622344970703
ell 258, elapsed: 0.0008299350738525391
ell 252, elapsed: 0.0017960071563720703
ell 251, elapsed: 0.0008289813995361328
ell 250, elapsed: 0.0008420944213867188
ell 249, elapsed: 0.0010900497436523438
ell 248, elapsed: 0.0008320808410644531
ell 242, elapsed: 0.0015399456024169922
ell 241, elapsed: 0.0011410713195800781
ell 240, elapsed: 0.0008080005645751953
ell 239, elapsed: 0.000823974609375
ell 238, elapsed: 0.0011229515075683594
ell 232, elapsed: 0.0019969940185546875
ell 231, elapsed: 0.0010249614715576172
ell 230, elapsed: 0.0011289119720458984
ell 229, elapsed: 0.0011200904846191406
ell 228, elapsed: 0.0008161067962646484
ell 222, elapsed: 0.001775979995727539
ell 221, elapsed: 0.0011479854583740234
ell 220, elapsed: 0.000823974609375
ell 219, elapsed: 0.0010938644409179688
ell 218, elapsed: 0.0008189678192138672
ell 212, elapsed: 0.0014460086822509766
ell 211, elapsed: 0.001007080078125
ell 210, elapsed: 0.0008311271667480469
ell 209, elapsed: 0.0007989406585693359
ell 208, elapsed: 0.0008080005645751953
ell 202, elapsed: 0.0015170574188232422
ell 201, elapsed: 0.000820159912109375
ell 200, elapsed: 0.0007991790771484375
ell 199, elapsed: 0.0007870197296142578
ell 198, elapsed: 0.00080108642578125
ell 192, elapsed: 0.0013480186462402344
ell 191, elapsed: 0.0006918907165527344
ell 190, elapsed: 0.0006968975067138672
ell 189, elapsed: 0.0006880760192871094
ell 188, elapsed: 0.0006961822509765625
ell 182, elapsed: 0.0014910697937011719
ell 181, elapsed: 0.00078582763671875
ell 180, elapsed: 0.0007970333099365234
ell 179, elapsed: 0.0007739067077636719
ell 178, elapsed: 0.0007970333099365234
ell 172, elapsed: 0.0015120506286621094
ell 171, elapsed: 0.0008058547973632812
ell 170, elapsed: 0.0008151531219482422
ell 169, elapsed: 0.0008339881896972656
ell 168, elapsed: 0.0008029937744140625
ell 162, elapsed: 0.001497030258178711
ell 161, elapsed: 0.0011019706726074219
ell 160, elapsed: 0.0008249282836914062
ell 159, elapsed: 0.000823974609375
ell 158, elapsed: 0.0008270740509033203
ell 152, elapsed: 0.00185394287109375
ell 151, elapsed: 0.0008227825164794922
ell 150, elapsed: 0.0008070468902587891
ell 149, elapsed: 0.0008189678192138672
ell 148, elapsed: 0.0008509159088134766
ell 142, elapsed: 0.0019428730010986328
ell 141, elapsed: 0.0008261203765869141
ell 140, elapsed: 0.0011138916015625
ell 139, elapsed: 0.0011670589447021484
ell 138, elapsed: 0.0010840892791748047
ell 132, elapsed: 0.0018310546875
ell 131, elapsed: 0.0008318424224853516
ell 130, elapsed: 0.0008330345153808594
ell 129, elapsed: 0.0008270740509033203
ell 128, elapsed: 0.0008490085601806641
ell 122, elapsed: 0.0015311241149902344
ell 121, elapsed: 0.0008320808410644531
ell 120, elapsed: 0.0008349418640136719
ell 119, elapsed: 0.0008440017700195312
ell 118, elapsed: 0.0008218288421630859
ell 112, elapsed: 0.0017380714416503906
ell 111, elapsed: 0.0010941028594970703
ell 110, elapsed: 0.0008249282836914062
ell 109, elapsed: 0.00109100341796875
ell 108, elapsed: 0.0010950565338134766
ell 102, elapsed: 0.001870870590209961
ell 101, elapsed: 0.005048990249633789
ell 100, elapsed: 0.005084991455078125
ell 99, elapsed: 0.0033118724822998047
ell 98, elapsed: 0.004672050476074219
ell 92, elapsed: 0.007686138153076172
ell 91, elapsed: 0.004879951477050781
ell 90, elapsed: 0.004752159118652344
ell 89, elapsed: 0.004806995391845703
ell 88, elapsed: 0.004759073257446289
ell 82, elapsed: 0.007721900939941406
ell 81, elapsed: 0.004770994186401367
ell 80, elapsed: 0.004797935485839844
ell 79, elapsed: 0.005072116851806641
ell 78, elapsed: 0.004868984222412109
ell 72, elapsed: 0.00801992416381836
ell 71, elapsed: 0.005060911178588867
ell 70, elapsed: 0.005136966705322266
ell 69, elapsed: 0.0050699710845947266
ell 68, elapsed: 0.0050678253173828125
ell 62, elapsed: 0.007910966873168945
ell 61, elapsed: 0.004892110824584961
ell 60, elapsed: 0.0038001537322998047
ell 59, elapsed: 0.00333404541015625
ell 58, elapsed: 0.0034360885620117188
ell 52, elapsed: 0.006133079528808594
ell 51, elapsed: 0.003289937973022461
ell 50, elapsed: 0.004662036895751953
ell 49, elapsed: 0.004812002182006836
ell 48, elapsed: 0.004792928695678711
ell 42, elapsed: 0.007837057113647461
ell 41, elapsed: 0.0048367977142333984
ell 40, elapsed: 0.0049571990966796875
ell 39, elapsed: 0.0047838687896728516
ell 38, elapsed: 0.00477290153503418
ell 32, elapsed: 0.007658958435058594
ell 31, elapsed: 0.004820108413696289
ell 30, elapsed: 0.004787921905517578
ell 29, elapsed: 0.0048220157623291016
ell 28, elapsed: 0.005024909973144531
ell 22, elapsed: 0.0077250003814697266
ell 21, elapsed: 0.004804134368896484
ell 20, elapsed: 0.0048139095306396484
ell 19, elapsed: 0.0048410892486572266
ell 18, elapsed: 0.005012035369873047
ell 12, elapsed: 0.007897138595581055
ell 11, elapsed: 0.004890918731689453
ell 10, elapsed: 0.004979848861694336
ell 9, elapsed: 0.004953145980834961
ell 8, elapsed: 0.004839181900024414
  0.911286 seconds (98.27 k allocations: 12.629 MiB)
elapsed: 0.0055501461029052734
step:          0.078587 sec (0 allocations: 0 byte, 0.0% gc time)
swapping:      0.000706 sec (0 allocations: 0 byte, 0.0% gc time)
calc_Mellell!: 0.033118 sec (0 allocations: 0 byte, 0.0% gc time)
  t0 :  0.011032 sec (0 allocations: 0 byte, 0.0% gc time)
  tm2 : 0.09701 sec (0 allocations: 0 byte, 0.0% gc time)
  tm2s: 0.00932 sec (0 allocations: 0 byte, 0.0% gc time)
  tm4 : 0.23725 sec (0 allocations: 0 byte, 0.0% gc time)
  tp2 : 0.0 sec (0 allocations: 0 byte, 0.0% gc time)
  tp2s: 0.0 sec (0 allocations: 0 byte, 0.0% gc time)
  tp4 : 0.0 sec (0 allocations: 0 byte, 0.0% gc time)
calc_wtdll!:   0.64085 sec (48.6 k allocations: 11.096 MB, 0.0% gc time)
calc_wljj!:    0.04628 sec (69 allocations: 1.078 KB, 0.0% gc time)
mult_prefac!:  0.0 sec (0 allocations: 0 byte, 0.0% gc time)
convert:       0.0 sec (0 allocations: 0 byte, 0.0% gc time)
write:         0.040041 sec (0 allocations: 0 byte, 0.0% gc time)
test_rand_2f1: 0.0 sec (0 allocations: 0 byte, 0.0% gc time)
Closing outfile out/MlCache/MlCache.bin...   0.000007 seconds
xi, l=0, nu=0:   0.367243 seconds (598.85 k allocations: 32.680 MiB)
xi, l=0, nu=-2:  0.002545 seconds (1.14 k allocations: 164.984 KiB)
Created 'out/xi.tsv'.
  q=1.1, R=0.6:	  0.680286 seconds (264.52 k allocations: 38.099 MiB)
  q=1.1, R=0.7:	  0.797164 seconds (276.46 k allocations: 40.114 MiB, 1.34% gc time)
  q=1.1, R=0.8:	  0.811785 seconds (271.68 k allocations: 39.302 MiB, 1.20% gc time)
  q=1.1, R=0.9:	  0.979141 seconds (266.62 k allocations: 38.459 MiB, 0.73% gc time)
  q=1.1, R=0.998:	 20.464276 seconds (114.96 k allocations: 7.588 MiB)
  q=1.1, R=1.0:	  0.004631 seconds (8.20 k allocations: 704.344 KiB)

ℓ = 1000
Δℓ = 4
ΔℓRg1 = -4
N = 4096
q = 1.1
kmin = 1.0e-5
kmax = 1000.0
χ0 = 0.001
RR = RR.tsv
ℓmax = ℓmax.bin
f21 = f21.bin
kmin = 1.0e-5
kmax = 1000.0
dlrec    = 4
dlrecRg1 = -4
Output size: 1573632 bytes = 0.0014655590057373047 GiB
Output size: 786816 bytes = 0.0007327795028686523 GiB
Reading 'out/F21EllCache'...   0.001638 seconds (198 allocations: 533.078 KiB)
ellmax: 1002
lmaxcache: 1000
fell[:,1,1] = ComplexF64[1.7262928128202118e-224 - 4.2281979352226944e-240im, 1.7282693092099662e-224 - 4.233038955177176e-240im]
ell 1002, elapsed: 3.0994415283203125e-5
ell 1001, elapsed: 0.0012869834899902344
ell 1000, elapsed: 0.0011909008026123047
ell 999, elapsed: 0.005895853042602539
ell 998, elapsed: 0.005896091461181641
ell 44, elapsed: 0.6960310935974121
ell 43, elapsed: 0.005571842193603516
ell 42, elapsed: 0.005955934524536133
ell 41, elapsed: 0.005825996398925781
ell 40, elapsed: 0.005872964859008789
  0.741639 seconds (5.04 k allocations: 329.188 KiB)
elapsed: 0.00693202018737793
step:          0.691728 sec (0 allocations: 0 byte, 0.0% gc time)
swapping:      0.000632 sec (0 allocations: 0 byte, 0.0% gc time)
calc_Mellell!: 0.001407 sec (0 allocations: 0 byte, 0.0% gc time)
  t0 :  0.000792 sec (0 allocations: 0 byte, 0.0% gc time)
  tm2 : 0.010072 sec (0 allocations: 0 byte, 0.0% gc time)
  tm2s: 0.00069 sec (0 allocations: 0 byte, 0.0% gc time)
  tm4 : 0.028028 sec (0 allocations: 0 byte, 0.0% gc time)
  tp2 : 0.0 sec (0 allocations: 0 byte, 0.0% gc time)
  tp2s: 0.0 sec (0 allocations: 0 byte, 0.0% gc time)
  tp4 : 0.0 sec (0 allocations: 0 byte, 0.0% gc time)
calc_wtdll!:   0.039866 sec (480 allocations: 52.5 KB, 0.0% gc time)
calc_wljj!:    0.001569 sec (1 allocations: 16 byte, 0.0% gc time)
mult_prefac!:  0.0 sec (0 allocations: 0 byte, 0.0% gc time)
convert:       0.0 sec (0 allocations: 0 byte, 0.0% gc time)
write:         0.000945 sec (0 allocations: 0 byte, 0.0% gc time)
test_rand_2f1: 0.0 sec (0 allocations: 0 byte, 0.0% gc time)
Closing outfile out/MlCache/MlCache.bin...   0.000009 seconds
  0.495132 seconds (38 allocations: 66.859 KiB)
make_phi():   0.009833 seconds (4.16 k allocations: 339.984 KiB)
  0.045025 seconds (11.47 k allocations: 714.788 KiB)
tskip:       1.0e-6 sec (0 allocations: 0 byte, 0.0% gc time)
tread:       0.000856 sec (17 allocations: 1.266 KB, 0.0% gc time)
tmultphi:    0.00032 sec (0 allocations: 0 byte, 0.0% gc time)
tbrfft:      0.001572 sec (0 allocations: 0 byte, 0.0% gc time)
tmultprefac: 0.001098 sec (0 allocations: 0 byte, 0.0% gc time)
toutfunc:    0.00022 sec (0 allocations: 0 byte, 0.0% gc time)
Created 'out/wl42_jj00.tsv'.
Created 'out/wl42_jj02.tsv'.
    Testing TwoFAST tests passed 
