Julia Version 1.3.2-pre.0
Commit 2e6715c045 (2019-12-31 00:49 UTC)
Platform Info:
  OS: Linux (x86_64-linux-gnu)
  CPU: Intel(R) Xeon(R) Silver 4114 CPU @ 2.20GHz
  WORD_SIZE: 64
  LIBM: libopenlibm
  LLVM: libLLVM-6.0.1 (ORCJIT, skylake)
Environment:
  JULIA_DEPOT_PATH = ::/usr/local/share/julia
  JULIA_NUM_THREADS = 2

 Resolving package versions...
 Installed Reexport ───────── v0.2.0
 Installed URIParser ──────── v0.4.0
 Installed IntelOpenMP_jll ── v2018.0.3+0
 Installed BinDeps ────────── v1.0.0
 Installed FFTW ───────────── v1.2.0
 Installed BinaryProvider ─── v0.5.8
 Installed AbstractAlgebra ── v0.7.1
 Installed AbstractFFTs ───── v0.5.0
 Installed MKL_jll ────────── v2019.0.117+2
 Installed FFTW_jll ───────── v3.3.9+3
 Installed IncGammaBeta ───── v0.1.0
 Installed Nemo ───────────── v0.15.1
 Installed TwoFAST ────────── v0.1.0
 Installed SpecialFunctions ─ v0.8.0
  Updating `~/.julia/environments/v1.3/Project.toml`
  [0dd23c3e] + TwoFAST v0.1.0
  Updating `~/.julia/environments/v1.3/Manifest.toml`
  [c3fe647b] + AbstractAlgebra v0.7.1
  [621f4979] + AbstractFFTs v0.5.0
  [9e28174c] + BinDeps v1.0.0
  [b99e7846] + BinaryProvider v0.5.8
  [7a1cc6ca] + FFTW v1.2.0
  [f5851436] + FFTW_jll v3.3.9+3
  [5087d2c0] + IncGammaBeta v0.1.0
  [1d5cc7b8] + IntelOpenMP_jll v2018.0.3+0
  [856f044c] + MKL_jll v2019.0.117+2
  [2edaba10] + Nemo v0.15.1
  [189a3867] + Reexport v0.2.0
  [276daf66] + SpecialFunctions v0.8.0
  [0dd23c3e] + TwoFAST v0.1.0
  [30578b45] + URIParser v0.4.0
  [2a0f44e3] + Base64 
  [ade2ca70] + Dates 
  [8bb1440f] + DelimitedFiles 
  [8ba89e20] + Distributed 
  [b77e0a4c] + InteractiveUtils 
  [76f85450] + LibGit2 
  [8f399da3] + Libdl 
  [37e2e46d] + LinearAlgebra 
  [56ddb016] + Logging 
  [d6f4376e] + Markdown 
  [a63ad114] + Mmap 
  [44cfe95a] + Pkg 
  [de0858da] + Printf 
  [3fa0cd96] + REPL 
  [9a3f8284] + Random 
  [ea8e919c] + SHA 
  [9e88b42a] + Serialization 
  [6462fe0b] + Sockets 
  [2f01184e] + SparseArrays 
  [8dfed614] + Test 
  [cf7118a7] + UUIDs 
  [4ec0a83e] + Unicode 
  Building FFTW ────────────→ `~/.julia/packages/FFTW/qqcBj/deps/build.log`
  Building Nemo ────────────→ `~/.julia/packages/Nemo/qzx0m/deps/build.log`
  Building SpecialFunctions → `~/.julia/packages/SpecialFunctions/ne2iw/deps/build.log`
   Testing TwoFAST
 Resolving package versions...
 Installed Dierckx ─ v0.4.1
  Building Dierckx → `~/.julia/packages/Dierckx/9SY4A/deps/build.log`
    Status `/tmp/jl_BVGaaC/Manifest.toml`
  [c3fe647b] AbstractAlgebra v0.7.1
  [621f4979] AbstractFFTs v0.5.0
  [9e28174c] BinDeps v1.0.0
  [b99e7846] BinaryProvider v0.5.8
  [39dd38d3] Dierckx v0.4.1
  [7a1cc6ca] FFTW v1.2.0
  [f5851436] FFTW_jll v3.3.9+3
  [5087d2c0] IncGammaBeta v0.1.0
  [1d5cc7b8] IntelOpenMP_jll v2018.0.3+0
  [856f044c] MKL_jll v2019.0.117+2
  [2edaba10] Nemo v0.15.1
  [189a3867] Reexport v0.2.0
  [276daf66] SpecialFunctions v0.8.0
  [0dd23c3e] TwoFAST v0.1.0
  [30578b45] URIParser v0.4.0
  [2a0f44e3] Base64  [`@stdlib/Base64`]
  [ade2ca70] Dates  [`@stdlib/Dates`]
  [8bb1440f] DelimitedFiles  [`@stdlib/DelimitedFiles`]
  [8ba89e20] Distributed  [`@stdlib/Distributed`]
  [b77e0a4c] InteractiveUtils  [`@stdlib/InteractiveUtils`]
  [76f85450] LibGit2  [`@stdlib/LibGit2`]
  [8f399da3] Libdl  [`@stdlib/Libdl`]
  [37e2e46d] LinearAlgebra  [`@stdlib/LinearAlgebra`]
  [56ddb016] Logging  [`@stdlib/Logging`]
  [d6f4376e] Markdown  [`@stdlib/Markdown`]
  [a63ad114] Mmap  [`@stdlib/Mmap`]
  [44cfe95a] Pkg  [`@stdlib/Pkg`]
  [de0858da] Printf  [`@stdlib/Printf`]
  [3fa0cd96] REPL  [`@stdlib/REPL`]
  [9a3f8284] Random  [`@stdlib/Random`]
  [ea8e919c] SHA  [`@stdlib/SHA`]
  [9e88b42a] Serialization  [`@stdlib/Serialization`]
  [6462fe0b] Sockets  [`@stdlib/Sockets`]
  [2f01184e] SparseArrays  [`@stdlib/SparseArrays`]
  [8dfed614] Test  [`@stdlib/Test`]
  [cf7118a7] UUIDs  [`@stdlib/UUIDs`]
  [4ec0a83e] Unicode  [`@stdlib/Unicode`]

Welcome to Nemo version 0.15.1

Nemo comes with absolutely no warranty whatsoever


Welcome to Nemo version 0.15.1

Nemo comes with absolutely no warranty whatsoever

Testing ξ(r), ℓ=0, ν=-1 ... passed
Testing ξ(r), ℓ=0, ν=0 ... passed
Testing ξ(r), ℓ=0, ν=1 ... passed
Testing ξ(r), ℓ=0, ν=2 ... passed
Testing ξ(r), ℓ=0, ν=3 ... passed
Testing ξ(r), ℓ=1, ν=0 ... passed
Testing ξ(r), ℓ=1, ν=1 ... passed
Testing ξ(r), ℓ=1, ν=2 ... passed
Testing ξ(r), ℓ=1, ν=3 ... passed
Testing ξ(r), ℓ=2, ν=-1 ... passed
Testing ξ(r), ℓ=2, ν=0 ... passed
Testing ξ(r), ℓ=2, ν=1 ... passed
Testing ξ(r), ℓ=2, ν=2 ... passed
Testing ξ(r), ℓ=2, ν=3 ... passed
Testing ξ(r), ℓ=3, ν=-1 ... passed
Testing ξ(r), ℓ=3, ν=0 ... passed
Testing ξ(r), ℓ=3, ν=1 ... passed
Testing ξ(r), ℓ=3, ν=2 ... passed
Testing ξ(r), ℓ=3, ν=3 ... passed
Testing ξ(r), ℓ=4, ν=-1 ... passed
Testing ξ(r), ℓ=4, ν=0 ... passed
Testing ξ(r), ℓ=4, ν=1 ... passed
Testing ξ(r), ℓ=4, ν=2 ... passed
Testing ξ(r), ℓ=4, ν=3 ... passed
Testing ξ(r) ... passed
Testing ξ′(r) ... passed
Testing ξ″(r) ... passed
Calculating fmax: 
  dlrec    = 4
  dlrecRg1 = -4
  q=1.1, R=1.1:	  3.448159 seconds (1.11 M allocations: 119.130 MiB, 2.11% gc time)

  3.478006 seconds (1.11 M allocations: 119.487 MiB, 2.09% gc time)
ℓ = 1202
Δℓ = 4
ΔℓRg1 = -4
N = 1600
q = 1.1
kmin = 1.0e-5
kmax = 100000.00000000004
χ0 = 0.023029999999999995
RR = RR.tsv
ℓmax = ℓmax.bin
f21 = f21.bin
kmin = 1.0e-5
kmax = 100000.0
dlrec    = 4
dlrecRg1 = -4
Output size: 5741568 bytes = 0.005347251892089844 GiB
Output size: 51264 bytes = 4.774332046508789e-5 GiB
Reading 'out/F21EllCache'...   0.622335 seconds (348.11 k allocations: 17.862 MiB)
ellmax: 1202
lmaxcache: 1202
fell[:,1,1] = Complex{Float64}[3.9583795592771634e-52 - 9.695233714158177e-68im, 3.990121772925759e-52 - 9.772979714843386e-68im]
ell 1202, elapsed: 0.0036721229553222656
ell 1201, elapsed: 2.1435060501098633
ell 1200, elapsed: 0.0004909038543701172
ell 1199, elapsed: 0.0004799365997314453
ell 1198, elapsed: 0.0005431175231933594
ell 1002, elapsed: 0.010309934616088867
ell 1001, elapsed: 0.0007281303405761719
ell 1000, elapsed: 0.0005741119384765625
ell 999, elapsed: 0.0006170272827148438
ell 998, elapsed: 0.000640869140625
ell 902, elapsed: 0.005012035369873047
ell 901, elapsed: 0.0008099079132080078
ell 900, elapsed: 0.0004191398620605469
ell 899, elapsed: 0.0004138946533203125
ell 898, elapsed: 0.0004849433898925781
ell 802, elapsed: 0.0050699710845947266
ell 801, elapsed: 0.0004417896270751953
ell 800, elapsed: 0.0004248619079589844
ell 799, elapsed: 0.000431060791015625
ell 798, elapsed: 0.0004239082336425781
ell 702, elapsed: 0.005254030227661133
ell 701, elapsed: 0.0004248619079589844
ell 700, elapsed: 0.00041413307189941406
ell 699, elapsed: 0.00047278404235839844
ell 698, elapsed: 0.0005347728729248047
ell 602, elapsed: 0.005594968795776367
ell 601, elapsed: 0.0005509853363037109
ell 600, elapsed: 0.0005350112915039062
ell 599, elapsed: 0.0005338191986083984
ell 598, elapsed: 0.0005340576171875
ell 502, elapsed: 0.006543159484863281
ell 501, elapsed: 0.0004901885986328125
ell 500, elapsed: 0.0004470348358154297
ell 499, elapsed: 0.00041103363037109375
ell 498, elapsed: 0.0005741119384765625
ell 402, elapsed: 0.005411863327026367
ell 401, elapsed: 0.0004317760467529297
ell 400, elapsed: 0.0004200935363769531
ell 399, elapsed: 0.00041484832763671875
ell 398, elapsed: 0.0004150867462158203
ell 302, elapsed: 0.005319833755493164
ell 301, elapsed: 0.0004448890686035156
ell 300, elapsed: 0.0004241466522216797
ell 299, elapsed: 0.00042700767517089844
ell 298, elapsed: 0.0004329681396484375
ell 202, elapsed: 0.005109071731567383
ell 201, elapsed: 0.0004589557647705078
ell 200, elapsed: 0.0005850791931152344
ell 199, elapsed: 0.0004379749298095703
ell 198, elapsed: 0.0005328655242919922
ell 152, elapsed: 0.0025429725646972656
ell 151, elapsed: 0.000431060791015625
ell 150, elapsed: 0.0004229545593261719
ell 149, elapsed: 0.0004239082336425781
ell 148, elapsed: 0.0004279613494873047
ell 127, elapsed: 0.0014641284942626953
ell 126, elapsed: 0.0006039142608642578
ell 125, elapsed: 0.0004360675811767578
ell 124, elapsed: 0.0004291534423828125
ell 123, elapsed: 0.00042819976806640625
ell 114, elapsed: 0.0008370876312255859
ell 113, elapsed: 0.00042510032653808594
ell 112, elapsed: 0.0004260540008544922
ell 111, elapsed: 0.0005729198455810547
ell 110, elapsed: 0.00043702125549316406
ell 102, elapsed: 0.0008709430694580078
ell 101, elapsed: 0.00042510032653808594
ell 100, elapsed: 0.0004260540008544922
ell 99, elapsed: 0.0004241466522216797
ell 98, elapsed: 0.00042819976806640625
ell 97, elapsed: 0.0006310939788818359
ell 96, elapsed: 0.0005459785461425781
ell 95, elapsed: 0.00046181678771972656
ell 94, elapsed: 0.0005180835723876953
ell 93, elapsed: 0.00046181678771972656
ell 92, elapsed: 0.000514984130859375
ell 91, elapsed: 0.0004649162292480469
ell 90, elapsed: 0.0006740093231201172
ell 89, elapsed: 0.0004830360412597656
ell 88, elapsed: 0.0006229877471923828
ell 87, elapsed: 0.0004279613494873047
ell 86, elapsed: 0.0004730224609375
ell 85, elapsed: 0.0004520416259765625
ell 84, elapsed: 0.0005218982696533203
ell 83, elapsed: 0.00047898292541503906
ell 82, elapsed: 0.0005109310150146484
ell 81, elapsed: 0.00046181678771972656
ell 80, elapsed: 0.000514984130859375
ell 79, elapsed: 0.0004589557647705078
ell 78, elapsed: 0.0005209445953369141
ell 77, elapsed: 0.0004591941833496094
ell 76, elapsed: 0.000614166259765625
ell 75, elapsed: 0.00046706199645996094
ell 74, elapsed: 0.0005409717559814453
ell 73, elapsed: 0.0004820823669433594
ell 72, elapsed: 0.0005428791046142578
ell 71, elapsed: 0.0004639625549316406
ell 70, elapsed: 0.0005209445953369141
ell 69, elapsed: 0.0005450248718261719
ell 68, elapsed: 0.0005350112915039062
ell 67, elapsed: 0.0004680156707763672
ell 66, elapsed: 0.0005509853363037109
ell 65, elapsed: 0.0004940032958984375
ell 64, elapsed: 0.0005497932434082031
ell 63, elapsed: 0.0004940032958984375
ell 62, elapsed: 0.0005609989166259766
ell 61, elapsed: 0.0004649162292480469
ell 60, elapsed: 0.0005190372467041016
ell 59, elapsed: 0.0004620552062988281
ell 58, elapsed: 0.0005190372467041016
ell 57, elapsed: 0.0004608631134033203
ell 56, elapsed: 0.0005171298980712891
ell 55, elapsed: 0.00046181678771972656
ell 54, elapsed: 0.0005521774291992188
ell 53, elapsed: 0.0004889965057373047
ell 52, elapsed: 0.0005528926849365234
ell 51, elapsed: 0.0004851818084716797
ell 50, elapsed: 0.0005421638488769531
ell 49, elapsed: 0.0004889965057373047
ell 48, elapsed: 0.0005490779876708984
ell 47, elapsed: 0.0004868507385253906
ell 46, elapsed: 0.0005500316619873047
ell 45, elapsed: 0.00049591064453125
ell 44, elapsed: 0.0005509853363037109
ell 43, elapsed: 0.000492095947265625
ell 42, elapsed: 0.0005588531494140625
ell 41, elapsed: 0.0005011558532714844
ell 40, elapsed: 0.0005362033843994141
ell 39, elapsed: 0.0004799365997314453
ell 38, elapsed: 0.0005688667297363281
ell 37, elapsed: 0.0005011558532714844
ell 36, elapsed: 0.0005609989166259766
ell 35, elapsed: 0.0005068778991699219
ell 34, elapsed: 0.0005750656127929688
ell 33, elapsed: 0.0004658699035644531
ell 32, elapsed: 0.0005400180816650391
ell 31, elapsed: 0.0004911422729492188
ell 30, elapsed: 0.0005350112915039062
ell 29, elapsed: 0.0004680156707763672
ell 28, elapsed: 0.0005400180816650391
ell 27, elapsed: 0.0004830360412597656
ell 26, elapsed: 0.0005290508270263672
ell 25, elapsed: 0.0004620552062988281
ell 24, elapsed: 0.0005228519439697266
ell 23, elapsed: 0.0004630088806152344
ell 22, elapsed: 0.0005249977111816406
ell 21, elapsed: 0.0004630088806152344
ell 20, elapsed: 0.0005190372467041016
ell 19, elapsed: 0.0005691051483154297
ell 18, elapsed: 0.0005359649658203125
ell 17, elapsed: 0.0004870891571044922
ell 16, elapsed: 0.0005102157592773438
ell 15, elapsed: 0.00045013427734375
ell 14, elapsed: 0.0005009174346923828
ell 13, elapsed: 0.00045108795166015625
ell 12, elapsed: 0.0005311965942382812
ell 11, elapsed: 0.0004520416259765625
ell 10, elapsed: 0.0005021095275878906
ell 9, elapsed: 0.00045108795166015625
ell 8, elapsed: 0.0005080699920654297
ell 7, elapsed: 0.00045299530029296875
ell 6, elapsed: 0.0005030632019042969
ell 5, elapsed: 0.0004749298095703125
ell 4, elapsed: 0.0005440711975097656
ell 3, elapsed: 0.0004668235778808594
ell 2, elapsed: 0.0005249977111816406
ell 1, elapsed: 0.0004649162292480469
ell 0, elapsed: 0.0005199909210205078
  2.397168 seconds (1.51 M allocations: 74.524 MiB, 0.90% gc time)
elapsed: 0.0006251335144042969
step:          0.714392 sec (478.142 k allocations: 23.743 MB, 0.0% gc time)
swapping:      0.000546 sec (0 allocations: 0 byte, 0.0% gc time)
calc_Mellell!: 0.490729 sec (371.692 k allocations: 18.415 MB, 0.0% gc time)
  t0 :  0.0 sec (0 allocations: 0 byte, 0.0% gc time)
  tm2 : 0.0 sec (0 allocations: 0 byte, 0.0% gc time)
  tm2s: 0.0 sec (0 allocations: 0 byte, 0.0% gc time)
  tm4 : 0.0 sec (0 allocations: 0 byte, 0.0% gc time)
  tp2 : 0.0 sec (0 allocations: 0 byte, 0.0% gc time)
  tp2s: 0.0 sec (0 allocations: 0 byte, 0.0% gc time)
  tp4 : 0.0 sec (0 allocations: 0 byte, 0.0% gc time)
calc_wtdll!:   1.060331 sec (571.77 k allocations: 28.059 MB, 2.04% gc time)
calc_wljj!:    0.003512 sec (6 allocations: 96 byte, 0.0% gc time)
mult_prefac!:  0.0 sec (0 allocations: 0 byte, 0.0% gc time)
convert:       0.0 sec (0 allocations: 0 byte, 0.0% gc time)
write:         0.003931 sec (0 allocations: 0 byte, 0.0% gc time)
test_rand_2f1: 0.0 sec (0 allocations: 0 byte, 0.0% gc time)
Closing outfile out/Ml21-cache.bin...   0.000074 seconds
  3.370637 seconds (1.08 M allocations: 85.558 MiB, 1.34% gc time)
make_phi():   0.033964 seconds (8.36 k allocations: 250.953 KiB)
  0.237562 seconds (225.60 k allocations: 14.596 MiB)
tskip:       2.8e-5 sec (0 allocations: 0 byte, 0.0% gc time)
tread:       0.002793 sec (20 allocations: 2.188 KB, 0.0% gc time)
tmultphi:    0.043321 sec (26.146 k allocations: 1.344 MB, 0.0% gc time)
tbrfft:      0.039226 sec (104.56 k allocations: 8.719 MB, 0.0% gc time)
tmultprefac: 0.004479 sec (0 allocations: 0 byte, 0.0% gc time)
toutfunc:    0.147544 sec (94.224 k allocations: 4.462 MB, 0.0% gc time)
Testing R=1.1 ... passed
Calculating fmax: 
  dlrec    = 4
  dlrecRg1 = -4
  q=1.1, R=1.0:	  0.014917 seconds (4.81 k allocations: 3.569 MiB)

  0.015168 seconds (4.87 k allocations: 3.601 MiB)
ℓ = 1202
Δℓ = 4
ΔℓRg1 = -4
N = 1600
q = 1.1
kmin = 1.0e-5
kmax = 100000.00000000004
χ0 = 0.023029999999999995
RR = RR.tsv
ℓmax = ℓmax.bin
f21 = f21.bin
kmin = 1.0e-5
kmax = 100000.0
dlrec    = 4
dlrecRg1 = -4
Output size: 61465536 bytes = 0.05724424123764038 GiB
Output size: 51264 bytes = 4.774332046508789e-5 GiB
Reading 'out/F21EllCache'...   0.001065 seconds (271 allocations: 84.719 KiB)
ellmax: 1202
lmaxcache: 1202
fell[:,1,1] = Complex{Float64}[809.6031528389767 - 1.9829558194077161e-13im, 0.0 + 0.0im]
ell 1202, elapsed: 2.288818359375e-5
ell 1201, elapsed: 0.016260862350463867
ell 1200, elapsed: 0.0003619194030761719
ell 1199, elapsed: 0.00035691261291503906
ell 1198, elapsed: 0.0003590583801269531
ell 1197, elapsed: 0.0004119873046875
ell 1196, elapsed: 0.0004000663757324219
ell 1195, elapsed: 0.00048613548278808594
ell 1194, elapsed: 0.0004589557647705078
ell 1193, elapsed: 0.0004680156707763672
ell 1192, elapsed: 0.0004031658172607422
ell 1191, elapsed: 0.00045609474182128906
ell 1190, elapsed: 0.00039696693420410156
ell 1189, elapsed: 0.00045299530029296875
ell 1188, elapsed: 0.0003941059112548828
ell 1187, elapsed: 0.0004558563232421875
ell 1186, elapsed: 0.0004031658172607422
ell 1185, elapsed: 0.00045680999755859375
ell 1184, elapsed: 0.00039196014404296875
ell 1183, elapsed: 0.0004551410675048828
ell 1182, elapsed: 0.000392913818359375
ell 1181, elapsed: 0.0004570484161376953
ell 1180, elapsed: 0.0003979206085205078
ell 1179, elapsed: 0.0004620552062988281
ell 1178, elapsed: 0.0004038810729980469
ell 1177, elapsed: 0.00045180320739746094
ell 1176, elapsed: 0.000392913818359375
ell 1175, elapsed: 0.0004520416259765625
ell 1174, elapsed: 0.0003979206085205078
ell 1173, elapsed: 0.0004508495330810547
ell 1172, elapsed: 0.00039386749267578125
ell 1171, elapsed: 0.0004680156707763672
ell 1170, elapsed: 0.00039887428283691406
ell 1169, elapsed: 0.0004680156707763672
ell 1168, elapsed: 0.0003879070281982422
ell 1167, elapsed: 0.0004420280456542969
ell 1166, elapsed: 0.00039887428283691406
ell 1165, elapsed: 0.0004551410675048828
ell 1164, elapsed: 0.0003960132598876953
ell 1163, elapsed: 0.0047130584716796875
ell 1162, elapsed: 0.0006651878356933594
ell 1161, elapsed: 0.0008149147033691406
ell 1160, elapsed: 0.0007269382476806641
ell 1159, elapsed: 0.0007040500640869141
ell 1158, elapsed: 0.0007078647613525391
ell 1157, elapsed: 0.0004341602325439453
ell 1156, elapsed: 0.0006079673767089844
ell 1155, elapsed: 0.00044989585876464844
ell 1154, elapsed: 0.0006449222564697266
ell 1153, elapsed: 0.0006630420684814453
ell 1152, elapsed: 0.0005970001220703125
ell 1151, elapsed: 0.0006899833679199219
ell 1150, elapsed: 0.0006041526794433594
ell 1149, elapsed: 0.0006837844848632812
ell 1148, elapsed: 0.00055694580078125
ell 1147, elapsed: 0.0004000663757324219
ell 1146, elapsed: 0.0003368854522705078
ell 1145, elapsed: 0.0003848075866699219
ell 1144, elapsed: 0.00033783912658691406
ell 1143, elapsed: 0.0004131793975830078
ell 1142, elapsed: 0.0003581047058105469
ell 1141, elapsed: 0.0004069805145263672
ell 1140, elapsed: 0.00035500526428222656
ell 1139, elapsed: 0.0004189014434814453
ell 1138, elapsed: 0.00035691261291503906
ell 1137, elapsed: 0.00040912628173828125
ell 1136, elapsed: 0.0003590583801269531
ell 1135, elapsed: 0.00041484832763671875
ell 1134, elapsed: 0.0003581047058105469
ell 1133, elapsed: 0.0004668235778808594
ell 1132, elapsed: 0.00040411949157714844
ell 1131, elapsed: 0.0004761219024658203
ell 1130, elapsed: 0.0004057884216308594
ell 1129, elapsed: 0.0004630088806152344
ell 1128, elapsed: 0.0004019737243652344
ell 1127, elapsed: 0.0004661083221435547
ell 1126, elapsed: 0.0004010200500488281
ell 1125, elapsed: 0.0004661083221435547
ell 1124, elapsed: 0.00040221214294433594
ell 1123, elapsed: 0.0004620552062988281
ell 1122, elapsed: 0.0004031658172607422
ell 1121, elapsed: 0.00046896934509277344
ell 1120, elapsed: 0.0004050731658935547
ell 1119, elapsed: 0.0004649162292480469
ell 1118, elapsed: 0.00040411949157714844
ell 1117, elapsed: 0.0004639625549316406
ell 1116, elapsed: 0.00040411949157714844
ell 1115, elapsed: 0.00046515464782714844
ell 1114, elapsed: 0.00040221214294433594
ell 1113, elapsed: 0.0004639625549316406
ell 1112, elapsed: 0.0004010200500488281
ell 1111, elapsed: 0.0004642009735107422
ell 1110, elapsed: 0.00040221214294433594
ell 1109, elapsed: 0.0004589557647705078
ell 1108, elapsed: 0.00039887428283691406
ell 1107, elapsed: 0.0004589557647705078
ell 1106, elapsed: 0.00047206878662109375
ell 1105, elapsed: 0.0004642009735107422
ell 1104, elapsed: 0.0003991127014160156
ell 1103, elapsed: 0.0004611015319824219
ell 1102, elapsed: 0.0004000663757324219
ell 1101, elapsed: 0.0004601478576660156
ell 1100, elapsed: 0.0003998279571533203
ell 1099, elapsed: 0.0004639625549316406
ell 1098, elapsed: 0.0004839897155761719
ell 1097, elapsed: 0.0004661083221435547
ell 1096, elapsed: 0.0003981590270996094
ell 1095, elapsed: 0.0004570484161376953
ell 1094, elapsed: 0.0003979206085205078
ell 1093, elapsed: 0.0004627704620361328
ell 1092, elapsed: 0.0003960132598876953
ell 1091, elapsed: 0.00045990943908691406
ell 1090, elapsed: 0.00048279762268066406
ell 1089, elapsed: 0.00038695335388183594
ell 1088, elapsed: 0.0003311634063720703
ell 1087, elapsed: 0.00037598609924316406
ell 1086, elapsed: 0.0003330707550048828
ell 1085, elapsed: 0.0003781318664550781
ell 1084, elapsed: 0.000331878662109375
ell 1083, elapsed: 0.0003821849822998047
ell 1082, elapsed: 0.0003330707550048828
ell 1081, elapsed: 0.0005462169647216797
ell 1080, elapsed: 0.0004420280456542969
ell 1079, elapsed: 0.0005118846893310547
ell 1078, elapsed: 0.0004451274871826172
ell 1077, elapsed: 0.0005199909210205078
ell 1076, elapsed: 0.00045490264892578125
ell 1075, elapsed: 0.0005109310150146484
ell 1074, elapsed: 0.0004432201385498047
ell 1073, elapsed: 0.0005230903625488281
ell 1072, elapsed: 0.0004570484161376953
ell 1071, elapsed: 0.0006079673767089844
ell 1070, elapsed: 0.00045800209045410156
ell 1069, elapsed: 0.0005278587341308594
ell 1068, elapsed: 0.00046896934509277344
ell 1067, elapsed: 0.0005629062652587891
ell 1066, elapsed: 0.00046706199645996094
ell 1065, elapsed: 0.0005521774291992188
ell 1064, elapsed: 0.0004668235778808594
ell 1063, elapsed: 0.0005469322204589844
ell 1062, elapsed: 0.0004680156707763672
ell 1061, elapsed: 0.0005381107330322266
ell 1060, elapsed: 0.0004279613494873047
ell 1059, elapsed: 0.0005459785461425781
ell 1058, elapsed: 0.00046706199645996094
ell 1057, elapsed: 0.0005609989166259766
ell 1056, elapsed: 0.0004980564117431641
ell 1055, elapsed: 0.0005891323089599609
ell 1054, elapsed: 0.0004799365997314453
ell 1053, elapsed: 0.0005791187286376953
ell 1052, elapsed: 0.0004980564117431641
ell 1051, elapsed: 0.0005898475646972656
ell 1050, elapsed: 0.0004968643188476562
ell 1049, elapsed: 0.0005748271942138672
ell 1048, elapsed: 0.0004839897155761719
ell 1047, elapsed: 0.0005769729614257812
ell 1046, elapsed: 0.0004279613494873047
ell 1045, elapsed: 0.0004990100860595703
ell 1044, elapsed: 0.0004169940948486328
ell 1043, elapsed: 0.0005180835723876953
ell 1042, elapsed: 0.00041484832763671875
ell 1041, elapsed: 0.0004799365997314453
ell 1040, elapsed: 0.0004279613494873047
ell 1039, elapsed: 0.0004830360412597656
ell 1038, elapsed: 0.00041294097900390625
ell 1037, elapsed: 0.0004949569702148438
ell 1036, elapsed: 0.0004341602325439453
ell 1035, elapsed: 0.0004909038543701172
ell 1034, elapsed: 0.00049591064453125
ell 1033, elapsed: 0.0005559921264648438
ell 1032, elapsed: 0.0004699230194091797
ell 1031, elapsed: 0.0005660057067871094
ell 1030, elapsed: 0.00036716461181640625
ell 1029, elapsed: 0.000408172607421875
ell 1028, elapsed: 0.00034117698669433594
ell 1027, elapsed: 0.00039696693420410156
ell 1026, elapsed: 0.0003409385681152344
ell 1025, elapsed: 0.00038504600524902344
ell 1024, elapsed: 0.0003330707550048828
ell 1023, elapsed: 0.00039196014404296875
ell 1022, elapsed: 0.00033283233642578125
ell 1021, elapsed: 0.00044798851013183594
ell 1020, elapsed: 0.0003991127014160156
ell 1019, elapsed: 0.00047707557678222656
ell 1018, elapsed: 0.0003979206085205078
ell 1017, elapsed: 0.00048804283142089844
ell 1016, elapsed: 0.00039696693420410156
ell 1015, elapsed: 0.0004088878631591797
ell 1014, elapsed: 0.0003559589385986328
ell 1013, elapsed: 0.0004279613494873047
ell 1012, elapsed: 0.0003559589385986328
ell 1011, elapsed: 0.0004639625549316406
ell 1010, elapsed: 0.00035309791564941406
ell 1009, elapsed: 0.0004088878631591797
ell 1008, elapsed: 0.0003540515899658203
ell 1007, elapsed: 0.00045990943908691406
ell 1006, elapsed: 0.00033783912658691406
ell 1005, elapsed: 0.00038504600524902344
ell 1004, elapsed: 0.000347137451171875
ell 1003, elapsed: 0.0003898143768310547
ell 1002, elapsed: 0.000331878662109375
ell 1001, elapsed: 0.0004749298095703125
ell 1000, elapsed: 0.0003561973571777344
ell 999, elapsed: 0.00040912628173828125
ell 998, elapsed: 0.0003561973571777344
ell 997, elapsed: 0.0004119873046875
ell 996, elapsed: 0.0003540515899658203
ell 995, elapsed: 0.0004658699035644531
ell 994, elapsed: 0.0003571510314941406
ell 993, elapsed: 0.0004119873046875
ell 992, elapsed: 0.0003540515899658203
ell 991, elapsed: 0.0004088878631591797
ell 990, elapsed: 0.00035691261291503906
ell 989, elapsed: 0.0004611015319824219
ell 988, elapsed: 0.0003559589385986328
ell 987, elapsed: 0.0004088878631591797
ell 986, elapsed: 0.00035500526428222656
ell 985, elapsed: 0.0004239082336425781
ell 984, elapsed: 0.0003559589385986328
ell 983, elapsed: 0.0006821155548095703
ell 982, elapsed: 0.00035119056701660156
ell 981, elapsed: 0.00039696693420410156
ell 980, elapsed: 0.0003390312194824219
ell 979, elapsed: 0.0003910064697265625
ell 978, elapsed: 0.0003390312194824219
ell 977, elapsed: 0.0004019737243652344
ell 976, elapsed: 0.0003352165222167969
ell 975, elapsed: 0.0003879070281982422
ell 974, elapsed: 0.0004010200500488281
ell 973, elapsed: 0.00040793418884277344
ell 972, elapsed: 0.0003540515899658203
ell 971, elapsed: 0.00040912628173828125
ell 970, elapsed: 0.0003540515899658203
ell 969, elapsed: 0.0004189014434814453
ell 968, elapsed: 0.00041103363037109375
ell 967, elapsed: 0.0004239082336425781
ell 966, elapsed: 0.00039696693420410156
ell 965, elapsed: 0.00047087669372558594
ell 964, elapsed: 0.0003638267517089844
ell 963, elapsed: 0.0003879070281982422
ell 962, elapsed: 0.00033593177795410156
ell 961, elapsed: 0.00038886070251464844
ell 960, elapsed: 0.0003390312194824219
ell 959, elapsed: 0.0004169940948486328
ell 958, elapsed: 0.0004048347473144531
ell 957, elapsed: 0.00047707557678222656
ell 956, elapsed: 0.0004019737243652344
ell 955, elapsed: 0.0004711151123046875
ell 954, elapsed: 0.00041413307189941406
ell 953, elapsed: 0.0004642009735107422
ell 952, elapsed: 0.0004029273986816406
ell 951, elapsed: 0.0004889965057373047
ell 950, elapsed: 0.00040221214294433594
ell 949, elapsed: 0.00047707557678222656
ell 948, elapsed: 0.00040984153747558594
ell 947, elapsed: 0.00047898292541503906
ell 946, elapsed: 0.00040602684020996094
ell 945, elapsed: 0.00047087669372558594
ell 944, elapsed: 0.00040411949157714844
ell 943, elapsed: 0.0005180835723876953
ell 942, elapsed: 0.0004019737243652344
ell 941, elapsed: 0.00047087669372558594
ell 940, elapsed: 0.0004029273986816406
ell 939, elapsed: 0.0004711151123046875
ell 938, elapsed: 0.0003998279571533203
ell 937, elapsed: 0.00046896934509277344
ell 936, elapsed: 0.00039887428283691406
ell 935, elapsed: 0.0004780292510986328
ell 934, elapsed: 0.0003998279571533203
ell 933, elapsed: 0.0004699230194091797
ell 932, elapsed: 0.0004000663757324219
ell 931, elapsed: 0.0004608631134033203
ell 930, elapsed: 0.0004029273986816406
ell 929, elapsed: 0.0004639625549316406
ell 928, elapsed: 0.0003540515899658203
ell 927, elapsed: 0.00041294097900390625
ell 926, elapsed: 0.00035500526428222656
ell 925, elapsed: 0.0004467964172363281
ell 924, elapsed: 0.0003559589385986328
ell 923, elapsed: 0.00040793418884277344
ell 922, elapsed: 0.00035500526428222656
ell 921, elapsed: 0.0004429817199707031
ell 920, elapsed: 0.0003540515899658203
ell 919, elapsed: 0.00041103363037109375
ell 918, elapsed: 0.0003750324249267578
ell 917, elapsed: 0.00040793418884277344
ell 916, elapsed: 0.0003380775451660156
ell 915, elapsed: 0.00045299530029296875
ell 914, elapsed: 0.0003581047058105469
ell 913, elapsed: 0.0004100799560546875
ell 912, elapsed: 0.00035500526428222656
ell 911, elapsed: 0.00043702125549316406
ell 910, elapsed: 0.0003540515899658203
ell 909, elapsed: 0.00041294097900390625
ell 908, elapsed: 0.0003669261932373047
ell 907, elapsed: 0.00045800209045410156
ell 906, elapsed: 0.000370025634765625
ell 905, elapsed: 0.0004570484161376953
ell 904, elapsed: 0.0003991127014160156
ell 903, elapsed: 0.0004649162292480469
ell 902, elapsed: 0.00039696693420410156
ell 901, elapsed: 0.00045609474182128906
ell 900, elapsed: 0.0003879070281982422
ell 899, elapsed: 0.00046181678771972656
ell 898, elapsed: 0.00035500526428222656
ell 897, elapsed: 0.00041103363037109375
ell 896, elapsed: 0.0003540515899658203
ell 895, elapsed: 0.00041794776916503906
ell 894, elapsed: 0.00036406517028808594
ell 893, elapsed: 0.000431060791015625
ell 892, elapsed: 0.00035500526428222656
ell 891, elapsed: 0.00041413307189941406
ell 890, elapsed: 0.0003829002380371094
ell 889, elapsed: 0.0004088878631591797
ell 888, elapsed: 0.0003631114959716797
ell 887, elapsed: 0.00043702125549316406
ell 886, elapsed: 0.00037598609924316406
ell 885, elapsed: 0.00039887428283691406
ell 884, elapsed: 0.0003349781036376953
ell 883, elapsed: 0.0003829002380371094
ell 882, elapsed: 0.0003650188446044922
ell 881, elapsed: 0.00041484832763671875
ell 880, elapsed: 0.0005128383636474609
ell 879, elapsed: 0.0004100799560546875
ell 878, elapsed: 0.0003559589385986328
ell 877, elapsed: 0.0004589557647705078
ell 876, elapsed: 0.0003960132598876953
ell 875, elapsed: 0.0004210472106933594
ell 874, elapsed: 0.0003638267517089844
ell 873, elapsed: 0.0004570484161376953
ell 872, elapsed: 0.0003559589385986328
ell 871, elapsed: 0.00045108795166015625
ell 870, elapsed: 0.00035500526428222656
ell 869, elapsed: 0.0004048347473144531
ell 868, elapsed: 0.00038313865661621094
ell 867, elapsed: 0.0004119873046875
ell 866, elapsed: 0.0003571510314941406
ell 865, elapsed: 0.0003879070281982422
ell 864, elapsed: 0.000347137451171875
ell 863, elapsed: 0.0003910064697265625
ell 862, elapsed: 0.0003399848937988281
ell 861, elapsed: 0.00038814544677734375
ell 860, elapsed: 0.00037097930908203125
ell 859, elapsed: 0.0004417896270751953
ell 858, elapsed: 0.0003571510314941406
ell 857, elapsed: 0.00045990943908691406
ell 856, elapsed: 0.0003578662872314453
ell 855, elapsed: 0.0004260540008544922
ell 854, elapsed: 0.0003559589385986328
ell 853, elapsed: 0.00041103363037109375
ell 852, elapsed: 0.00035691261291503906
ell 851, elapsed: 0.0004119873046875
ell 850, elapsed: 0.0003540515899658203
ell 849, elapsed: 0.0004029273986816406
ell 848, elapsed: 0.0003559589385986328
ell 847, elapsed: 0.0004119873046875
ell 846, elapsed: 0.0003688335418701172
ell 845, elapsed: 0.0004138946533203125
ell 844, elapsed: 0.0003540515899658203
ell 843, elapsed: 0.00041794776916503906
ell 842, elapsed: 0.00035500526428222656
ell 841, elapsed: 0.00045299530029296875
ell 840, elapsed: 0.000354766845703125
ell 839, elapsed: 0.0004010200500488281
ell 838, elapsed: 0.00039696693420410156
ell 837, elapsed: 0.0004210472106933594
ell 836, elapsed: 0.0003998279571533203
ell 835, elapsed: 0.0003509521484375
ell 834, elapsed: 0.0002701282501220703
ell 833, elapsed: 0.0003428459167480469
ell 832, elapsed: 0.0002720355987548828
ell 831, elapsed: 0.0003190040588378906
ell 830, elapsed: 0.0002830028533935547
ell 829, elapsed: 0.0003311634063720703
ell 828, elapsed: 0.0002799034118652344
ell 827, elapsed: 0.00034689903259277344
ell 826, elapsed: 0.0003790855407714844
ell 825, elapsed: 0.0004248619079589844
ell 824, elapsed: 0.0003788471221923828
ell 823, elapsed: 0.00042700767517089844
ell 822, elapsed: 0.0003788471221923828
ell 821, elapsed: 0.0004229545593261719
ell 820, elapsed: 0.0003821849822998047
ell 819, elapsed: 0.0004239082336425781
ell 818, elapsed: 0.0003981590270996094
ell 817, elapsed: 0.00042510032653808594
ell 816, elapsed: 0.0003819465637207031
ell 815, elapsed: 0.0004258155822753906
ell 814, elapsed: 0.00037407875061035156
ell 813, elapsed: 0.0004220008850097656
ell 812, elapsed: 0.0003688335418701172
ell 811, elapsed: 0.0004210472106933594
ell 810, elapsed: 0.00037097930908203125
ell 809, elapsed: 0.0004260540008544922
ell 808, elapsed: 0.00036597251892089844
ell 807, elapsed: 0.0004169940948486328
ell 806, elapsed: 0.0003650188446044922
ell 805, elapsed: 0.0004200935363769531
ell 804, elapsed: 0.0003578662872314453
ell 803, elapsed: 0.0004248619079589844
ell 802, elapsed: 0.0003619194030761719
ell 801, elapsed: 0.0004267692565917969
ell 800, elapsed: 0.0004830360412597656
ell 799, elapsed: 0.0006101131439208984
ell 798, elapsed: 0.0004820823669433594
ell 797, elapsed: 0.0006008148193359375
ell 796, elapsed: 0.0005049705505371094
ell 795, elapsed: 0.0004620552062988281
ell 794, elapsed: 0.0004119873046875
ell 793, elapsed: 0.0004520416259765625
ell 792, elapsed: 0.0005021095275878906
ell 791, elapsed: 0.0005819797515869141
ell 790, elapsed: 0.0004839897155761719
ell 789, elapsed: 0.0005519390106201172
ell 788, elapsed: 0.00048613548278808594
ell 787, elapsed: 0.0005540847778320312
ell 786, elapsed: 0.0004680156707763672
ell 785, elapsed: 0.0005578994750976562
ell 784, elapsed: 0.000492095947265625
ell 783, elapsed: 0.0005388259887695312
ell 782, elapsed: 0.00047898292541503906
ell 781, elapsed: 0.0005848407745361328
ell 780, elapsed: 0.0004999637603759766
ell 779, elapsed: 0.0005588531494140625
ell 778, elapsed: 0.0005009174346923828
ell 777, elapsed: 0.0006451606750488281
ell 776, elapsed: 0.0004990100860595703
ell 775, elapsed: 0.0005509853363037109
ell 774, elapsed: 0.0004868507385253906
ell 773, elapsed: 0.0005691051483154297
ell 772, elapsed: 0.00047397613525390625
ell 771, elapsed: 0.0005650520324707031
ell 770, elapsed: 0.0005028247833251953
ell 769, elapsed: 0.0005478858947753906
ell 768, elapsed: 0.0004658699035644531
ell 767, elapsed: 0.0005750656127929688
ell 766, elapsed: 0.00043487548828125
ell 765, elapsed: 0.0004961490631103516
ell 764, elapsed: 0.000392913818359375
ell 763, elapsed: 0.0004611015319824219
ell 762, elapsed: 0.00039315223693847656
ell 761, elapsed: 0.0004451274871826172
ell 760, elapsed: 0.000431060791015625
ell 759, elapsed: 0.0004911422729492188
ell 758, elapsed: 0.00041484832763671875
ell 757, elapsed: 0.00047516822814941406
ell 756, elapsed: 0.0004181861877441406
ell 755, elapsed: 0.0005130767822265625
ell 754, elapsed: 0.0005230903625488281
ell 753, elapsed: 0.0005919933319091797
ell 752, elapsed: 0.0004968643188476562
ell 751, elapsed: 0.0005769729614257812
ell 750, elapsed: 0.000492095947265625
ell 749, elapsed: 0.0005807876586914062
ell 748, elapsed: 0.000492095947265625
ell 747, elapsed: 0.0005609989166259766
ell 746, elapsed: 0.0005130767822265625
ell 745, elapsed: 0.0005741119384765625
ell 744, elapsed: 0.000476837158203125
ell 743, elapsed: 0.0005679130554199219
ell 742, elapsed: 0.00049591064453125
ell 741, elapsed: 0.000576019287109375
ell 740, elapsed: 0.0004918575286865234
ell 739, elapsed: 0.0005691051483154297
ell 738, elapsed: 0.0005640983581542969
ell 737, elapsed: 0.0005600452423095703
ell 736, elapsed: 0.00047779083251953125
ell 735, elapsed: 0.0005681514739990234
ell 734, elapsed: 0.0005121231079101562
ell 733, elapsed: 0.0005710124969482422
ell 732, elapsed: 0.0004928112030029297
ell 731, elapsed: 0.0005779266357421875
ell 730, elapsed: 0.0004940032958984375
ell 729, elapsed: 0.0005908012390136719
ell 728, elapsed: 0.0005180835723876953
ell 727, elapsed: 0.0011098384857177734
ell 726, elapsed: 0.0005190372467041016
ell 725, elapsed: 0.0005650520324707031
ell 724, elapsed: 0.0004940032958984375
ell 723, elapsed: 0.0005810260772705078
ell 722, elapsed: 0.0004899501800537109
ell 721, elapsed: 0.0005679130554199219
ell 720, elapsed: 0.000476837158203125
ell 719, elapsed: 0.00047087669372558594
ell 718, elapsed: 0.00049591064453125
ell 717, elapsed: 0.0005631446838378906
ell 716, elapsed: 0.0005271434783935547
ell 715, elapsed: 0.0005810260772705078
ell 714, elapsed: 0.0005109310150146484
ell 713, elapsed: 0.00048613548278808594
ell 712, elapsed: 0.0005118846893310547
ell 711, elapsed: 0.000579833984375
ell 710, elapsed: 0.0005099773406982422
ell 709, elapsed: 0.0005118846893310547
ell 708, elapsed: 0.0004589557647705078
ell 707, elapsed: 0.0005350112915039062
ell 706, elapsed: 0.0004630088806152344
ell 705, elapsed: 0.0005040168762207031
ell 704, elapsed: 0.0004649162292480469
ell 703, elapsed: 0.0005731582641601562
ell 702, elapsed: 0.00046706199645996094
ell 701, elapsed: 0.0005970001220703125
ell 700, elapsed: 0.0005140304565429688
ell 699, elapsed: 0.0007939338684082031
ell 698, elapsed: 0.0008180141448974609
ell 697, elapsed: 0.0006048679351806641
ell 696, elapsed: 0.0008139610290527344
ell 695, elapsed: 0.0006070137023925781
ell 694, elapsed: 0.0006189346313476562
ell 693, elapsed: 0.000576019287109375
ell 692, elapsed: 0.0005841255187988281
ell 691, elapsed: 0.0006299018859863281
ell 690, elapsed: 0.00046706199645996094
ell 689, elapsed: 0.0005741119384765625
ell 688, elapsed: 0.0004899501800537109
ell 687, elapsed: 0.0005829334259033203
ell 686, elapsed: 0.0005030632019042969
ell 685, elapsed: 0.0005140304565429688
ell 684, elapsed: 0.0005109310150146484
ell 683, elapsed: 0.0005750656127929688
ell 682, elapsed: 0.0005121231079101562
ell 681, elapsed: 0.0005261898040771484
ell 680, elapsed: 0.0005249977111816406
ell 679, elapsed: 0.0005788803100585938
ell 678, elapsed: 0.00047707557678222656
ell 677, elapsed: 0.0005791187286376953
ell 676, elapsed: 0.00048089027404785156
ell 675, elapsed: 0.0005648136138916016
ell 674, elapsed: 0.0005121231079101562
ell 673, elapsed: 0.0005750656127929688
ell 672, elapsed: 0.0007500648498535156
ell 671, elapsed: 0.0005829334259033203
ell 670, elapsed: 0.0005080699920654297
ell 669, elapsed: 0.0005891323089599609
ell 668, elapsed: 0.0006639957427978516
ell 667, elapsed: 0.0005919933319091797
ell 666, elapsed: 0.0005099773406982422
ell 665, elapsed: 0.0007181167602539062
ell 664, elapsed: 0.0005128383636474609
ell 663, elapsed: 0.0005831718444824219
ell 662, elapsed: 0.0007050037384033203
ell 661, elapsed: 0.0006020069122314453
ell 660, elapsed: 0.0005030632019042969
ell 659, elapsed: 0.0004999637603759766
ell 658, elapsed: 0.0007989406585693359
ell 657, elapsed: 0.0005669593811035156
ell 656, elapsed: 0.0005090236663818359
ell 655, elapsed: 0.00051116943359375
ell 654, elapsed: 0.0006489753723144531
ell 653, elapsed: 0.0005781650543212891
ell 652, elapsed: 0.00067901611328125
ell 651, elapsed: 0.0005159378051757812
ell 650, elapsed: 0.0005190372467041016
ell 649, elapsed: 0.0005991458892822266
ell 648, elapsed: 0.0004680156707763672
ell 647, elapsed: 0.0005021095275878906
ell 646, elapsed: 0.00045680999755859375
ell 645, elapsed: 0.0005118846893310547
ell 644, elapsed: 0.0004601478576660156
ell 643, elapsed: 0.0005619525909423828
ell 642, elapsed: 0.0005099773406982422
ell 641, elapsed: 0.0005660057067871094
ell 640, elapsed: 0.0004520416259765625
ell 639, elapsed: 0.000579833984375
ell 638, elapsed: 0.0005118846893310547
ell 637, elapsed: 0.0005459785461425781
ell 636, elapsed: 0.0006971359252929688
ell 635, elapsed: 0.0005011558532714844
ell 634, elapsed: 0.00045609474182128906
ell 633, elapsed: 0.0004990100860595703
ell 632, elapsed: 0.00043702125549316406
ell 631, elapsed: 0.0004630088806152344
ell 630, elapsed: 0.00040912628173828125
ell 629, elapsed: 0.00045990943908691406
ell 628, elapsed: 0.0004050731658935547
ell 627, elapsed: 0.00047206878662109375
ell 626, elapsed: 0.00040793418884277344
ell 625, elapsed: 0.0004298686981201172
ell 624, elapsed: 0.00039386749267578125
ell 623, elapsed: 0.0004470348358154297
ell 622, elapsed: 0.0003800392150878906
ell 621, elapsed: 0.00042510032653808594
ell 620, elapsed: 0.00045490264892578125
ell 619, elapsed: 0.0004260540008544922
ell 618, elapsed: 0.0003859996795654297
ell 617, elapsed: 0.00044083595275878906
ell 616, elapsed: 0.0003859996795654297
ell 615, elapsed: 0.0004439353942871094
ell 614, elapsed: 0.00039005279541015625
ell 613, elapsed: 0.0004489421844482422
ell 612, elapsed: 0.0003669261932373047
ell 611, elapsed: 0.0004181861877441406
ell 610, elapsed: 0.0003921985626220703
ell 609, elapsed: 0.0004467964172363281
ell 608, elapsed: 0.00038313865661621094
ell 607, elapsed: 0.0004410743713378906
ell 606, elapsed: 0.0003948211669921875
ell 605, elapsed: 0.0004420280456542969
ell 604, elapsed: 0.0003859996795654297
ell 603, elapsed: 0.00045490264892578125
ell 602, elapsed: 0.0003898143768310547
ell 601, elapsed: 0.00045108795166015625
ell 600, elapsed: 0.0004050731658935547
ell 599, elapsed: 0.0004558563232421875
ell 598, elapsed: 0.0003840923309326172
ell 597, elapsed: 0.000453948974609375
ell 596, elapsed: 0.0004661083221435547
ell 595, elapsed: 0.0005249977111816406
ell 594, elapsed: 0.0004642009735107422
ell 593, elapsed: 0.0005249977111816406
ell 592, elapsed: 0.00046706199645996094
ell 591, elapsed: 0.0005078315734863281
ell 590, elapsed: 0.0004620552062988281
ell 589, elapsed: 0.0004961490631103516
ell 588, elapsed: 0.0004680156707763672
ell 587, elapsed: 0.0005171298980712891
ell 586, elapsed: 0.00045490264892578125
ell 585, elapsed: 0.0005621910095214844
ell 584, elapsed: 0.0005478858947753906
ell 583, elapsed: 0.0006110668182373047
ell 582, elapsed: 0.0004801750183105469
ell 581, elapsed: 0.0005960464477539062
ell 580, elapsed: 0.0004448890686035156
ell 579, elapsed: 0.0005381107330322266
ell 578, elapsed: 0.0004639625549316406
ell 577, elapsed: 0.0004889965057373047
ell 576, elapsed: 0.00045108795166015625
ell 575, elapsed: 0.0005259513854980469
ell 574, elapsed: 0.0004990100860595703
ell 573, elapsed: 0.0008599758148193359
ell 572, elapsed: 0.0005049705505371094
ell 571, elapsed: 0.0005209445953369141
ell 570, elapsed: 0.0004990100860595703
ell 569, elapsed: 0.0005848407745361328
ell 568, elapsed: 0.0005259513854980469
ell 567, elapsed: 0.0007989406585693359
ell 566, elapsed: 0.0004591941833496094
ell 565, elapsed: 0.0005199909210205078
ell 564, elapsed: 0.000492095947265625
ell 563, elapsed: 0.0005259513854980469
ell 562, elapsed: 0.0004520416259765625
ell 561, elapsed: 0.0005199909210205078
ell 560, elapsed: 0.0004749298095703125
ell 559, elapsed: 0.0005080699920654297
ell 558, elapsed: 0.0004589557647705078
ell 557, elapsed: 0.0005300045013427734
ell 556, elapsed: 0.0004649162292480469
ell 555, elapsed: 0.0005300045013427734
ell 554, elapsed: 0.000453948974609375
ell 553, elapsed: 0.0005259513854980469
ell 552, elapsed: 0.0004591941833496094
ell 551, elapsed: 0.0005128383636474609
ell 550, elapsed: 0.00044989585876464844
ell 549, elapsed: 0.0005099773406982422
ell 548, elapsed: 0.0004451274871826172
ell 547, elapsed: 0.0005209445953369141
ell 546, elapsed: 0.0004570484161376953
ell 545, elapsed: 0.0005199909210205078
ell 544, elapsed: 0.0004630088806152344
ell 543, elapsed: 0.0005209445953369141
ell 542, elapsed: 0.00045490264892578125
ell 541, elapsed: 0.0005240440368652344
ell 540, elapsed: 0.0004570484161376953
ell 539, elapsed: 0.0005209445953369141
ell 538, elapsed: 0.0004630088806152344
ell 537, elapsed: 0.0005171298980712891
ell 536, elapsed: 0.0004420280456542969
ell 535, elapsed: 0.0005359649658203125
ell 534, elapsed: 0.00045800209045410156
ell 533, elapsed: 0.0005061626434326172
ell 532, elapsed: 0.0004420280456542969
ell 531, elapsed: 0.0005347728729248047
ell 530, elapsed: 0.00045800209045410156
ell 529, elapsed: 0.0005168914794921875
ell 528, elapsed: 0.00046181678771972656
ell 527, elapsed: 0.0005340576171875
ell 526, elapsed: 0.00046181678771972656
ell 525, elapsed: 0.0005080699920654297
ell 524, elapsed: 0.0005090236663818359
ell 523, elapsed: 0.0005900859832763672
ell 522, elapsed: 0.0007231235504150391
ell 521, elapsed: 0.0005259513854980469
ell 520, elapsed: 0.00045490264892578125
ell 519, elapsed: 0.0005321502685546875
ell 518, elapsed: 0.00045609474182128906
ell 517, elapsed: 0.0004639625549316406
ell 516, elapsed: 0.0004589557647705078
ell 515, elapsed: 0.0005381107330322266
ell 514, elapsed: 0.00044608116149902344
ell 513, elapsed: 0.0005230903625488281
ell 512, elapsed: 0.0004718303680419922
ell 511, elapsed: 0.0004911422729492188
ell 510, elapsed: 0.00047206878662109375
ell 509, elapsed: 0.0005269050598144531
ell 508, elapsed: 0.0007178783416748047
ell 507, elapsed: 0.00041103363037109375
ell 506, elapsed: 0.0003540515899658203
ell 505, elapsed: 0.0004069805145263672
ell 504, elapsed: 0.0003762245178222656
ell 503, elapsed: 0.0004150867462158203
ell 502, elapsed: 0.0003600120544433594
ell 501, elapsed: 0.0004107952117919922
ell 500, elapsed: 0.0003559589385986328
ell 499, elapsed: 0.0004029273986816406
ell 498, elapsed: 0.0003509521484375
ell 497, elapsed: 0.0004019737243652344
ell 496, elapsed: 0.00035190582275390625
ell 495, elapsed: 0.0005121231079101562
ell 494, elapsed: 0.0003509521484375
ell 493, elapsed: 0.00041294097900390625
ell 492, elapsed: 0.0003509521484375
ell 491, elapsed: 0.0004069805145263672
ell 490, elapsed: 0.0003521442413330078
ell 489, elapsed: 0.0004119873046875
ell 488, elapsed: 0.0003578662872314453
ell 487, elapsed: 0.0004088878631591797
ell 486, elapsed: 0.00047016143798828125
ell 485, elapsed: 0.000408172607421875
ell 484, elapsed: 0.00035190582275390625
ell 483, elapsed: 0.0004069805145263672
ell 482, elapsed: 0.00035309791564941406
ell 481, elapsed: 0.0004038810729980469
ell 480, elapsed: 0.0003521442413330078
ell 479, elapsed: 0.00040912628173828125
ell 478, elapsed: 0.00035190582275390625
ell 477, elapsed: 0.0005190372467041016
ell 476, elapsed: 0.00033402442932128906
ell 475, elapsed: 0.0003809928894042969
ell 474, elapsed: 0.00033402442932128906
ell 473, elapsed: 0.00038313865661621094
ell 472, elapsed: 0.000331878662109375
ell 471, elapsed: 0.0003819465637207031
ell 470, elapsed: 0.00033092498779296875
ell 469, elapsed: 0.00038695335388183594
ell 468, elapsed: 0.00033402442932128906
ell 467, elapsed: 0.00042891502380371094
ell 466, elapsed: 0.00034999847412109375
ell 465, elapsed: 0.0004019737243652344
ell 464, elapsed: 0.0003509521484375
ell 463, elapsed: 0.00040793418884277344
ell 462, elapsed: 0.00035190582275390625
ell 461, elapsed: 0.0004069805145263672
ell 460, elapsed: 0.0003509521484375
ell 459, elapsed: 0.0005321502685546875
ell 458, elapsed: 0.00035500526428222656
ell 457, elapsed: 0.00041103363037109375
ell 456, elapsed: 0.0003509521484375
ell 455, elapsed: 0.0003998279571533203
ell 454, elapsed: 0.00034999847412109375
ell 453, elapsed: 0.0004038810729980469
ell 452, elapsed: 0.0003521442413330078
ell 451, elapsed: 0.000408172607421875
ell 450, elapsed: 0.0003509521484375
ell 449, elapsed: 0.0004279613494873047
ell 448, elapsed: 0.0003521442413330078
ell 447, elapsed: 0.0004069805145263672
ell 446, elapsed: 0.0003509521484375
ell 445, elapsed: 0.0004019737243652344
ell 444, elapsed: 0.0003509521484375
ell 443, elapsed: 0.0004069805145263672
ell 442, elapsed: 0.00034999847412109375
ell 441, elapsed: 0.0005209445953369141
ell 440, elapsed: 0.0003540515899658203
ell 439, elapsed: 0.0004088878631591797
ell 438, elapsed: 0.00034999847412109375
ell 437, elapsed: 0.0004050731658935547
ell 436, elapsed: 0.0003521442413330078
ell 435, elapsed: 0.00040793418884277344
ell 434, elapsed: 0.00035119056701660156
ell 433, elapsed: 0.0003991127014160156
ell 432, elapsed: 0.00034999847412109375
ell 431, elapsed: 0.0004138946533203125
ell 430, elapsed: 0.0003509521484375
ell 429, elapsed: 0.0004019737243652344
ell 428, elapsed: 0.00034999847412109375
ell 427, elapsed: 0.00040912628173828125
ell 426, elapsed: 0.0003490447998046875
ell 425, elapsed: 0.00040411949157714844
ell 424, elapsed: 0.0003478527069091797
ell 423, elapsed: 0.00039505958557128906
ell 422, elapsed: 0.00040602684020996094
ell 421, elapsed: 0.0004820823669433594
ell 420, elapsed: 0.0003998279571533203
ell 419, elapsed: 0.0004677772521972656
ell 418, elapsed: 0.0004010200500488281
ell 417, elapsed: 0.0004680156707763672
ell 416, elapsed: 0.00040411949157714844
ell 415, elapsed: 0.0005319118499755859
ell 414, elapsed: 0.00035309791564941406
ell 413, elapsed: 0.000408172607421875
ell 412, elapsed: 0.00035309791564941406
ell 411, elapsed: 0.0004031658172607422
ell 410, elapsed: 0.00034999847412109375
ell 409, elapsed: 0.0004069805145263672
ell 408, elapsed: 0.0003509521484375
ell 407, elapsed: 0.00040602684020996094
ell 406, elapsed: 0.00035190582275390625
ell 405, elapsed: 0.0004799365997314453
ell 404, elapsed: 0.0003981590270996094
ell 403, elapsed: 0.0004591941833496094
ell 402, elapsed: 0.0004019737243652344
ell 401, elapsed: 0.0004608631134033203
ell 400, elapsed: 0.00039577484130859375
ell 399, elapsed: 0.0004658699035644531
ell 398, elapsed: 0.00039887428283691406
ell 397, elapsed: 0.0005469322204589844
ell 396, elapsed: 0.0004000663757324219
ell 395, elapsed: 0.0004620552062988281
ell 394, elapsed: 0.0003991127014160156
ell 393, elapsed: 0.00045990943908691406
ell 392, elapsed: 0.00039887428283691406
ell 391, elapsed: 0.00047588348388671875
ell 390, elapsed: 0.0004010200500488281
ell 389, elapsed: 0.00047016143798828125
ell 388, elapsed: 0.0004019737243652344
ell 387, elapsed: 0.0004699230194091797
ell 386, elapsed: 0.0004050731658935547
ell 385, elapsed: 0.00047397613525390625
ell 384, elapsed: 0.00040602684020996094
ell 383, elapsed: 0.00047898292541503906
ell 382, elapsed: 0.0004220008850097656
ell 381, elapsed: 0.0003898143768310547
ell 380, elapsed: 0.00033783912658691406
ell 379, elapsed: 0.0003859996795654297
ell 378, elapsed: 0.00033402442932128906
ell 377, elapsed: 0.0003848075866699219
ell 376, elapsed: 0.0003418922424316406
ell 375, elapsed: 0.0003859996795654297
ell 374, elapsed: 0.0003361701965332031
ell 373, elapsed: 0.00038909912109375
ell 372, elapsed: 0.00037097930908203125
ell 371, elapsed: 0.00040721893310546875
ell 370, elapsed: 0.0003509521484375
ell 369, elapsed: 0.00040912628173828125
ell 368, elapsed: 0.00035309791564941406
ell 367, elapsed: 0.00040912628173828125
ell 366, elapsed: 0.00035190582275390625
ell 365, elapsed: 0.00040912628173828125
ell 364, elapsed: 0.00035309791564941406
ell 363, elapsed: 0.00041985511779785156
ell 362, elapsed: 0.0003528594970703125
ell 361, elapsed: 0.0004029273986816406
ell 360, elapsed: 0.00035190582275390625
ell 359, elapsed: 0.0004050731658935547
ell 358, elapsed: 0.0003540515899658203
ell 357, elapsed: 0.0004057884216308594
ell 356, elapsed: 0.00036406517028808594
ell 355, elapsed: 0.00041103363037109375
ell 354, elapsed: 0.005970954895019531
ell 353, elapsed: 0.00043511390686035156
ell 352, elapsed: 0.00036597251892089844
ell 351, elapsed: 0.0004229545593261719
ell 350, elapsed: 0.00035691261291503906
ell 349, elapsed: 0.0004291534423828125
ell 348, elapsed: 0.0003619194030761719
ell 347, elapsed: 0.0004069805145263672
ell 346, elapsed: 0.0003540515899658203
ell 345, elapsed: 0.00040793418884277344
ell 344, elapsed: 0.0003528594970703125
ell 343, elapsed: 0.00040411949157714844
ell 342, elapsed: 0.00034999847412109375
ell 341, elapsed: 0.0004019737243652344
ell 340, elapsed: 0.00034999847412109375
ell 339, elapsed: 0.003083944320678711
ell 338, elapsed: 0.0004398822784423828
ell 337, elapsed: 0.000514984130859375
ell 336, elapsed: 0.0004329681396484375
ell 335, elapsed: 0.0004980564117431641
ell 334, elapsed: 0.00043010711669921875
ell 333, elapsed: 0.0005049705505371094
ell 332, elapsed: 0.0004279613494873047
ell 331, elapsed: 0.000514984130859375
ell 330, elapsed: 0.00042700767517089844
ell 329, elapsed: 0.0005588531494140625
ell 328, elapsed: 0.00039887428283691406
ell 327, elapsed: 0.00046896934509277344
ell 326, elapsed: 0.00039887428283691406
ell 325, elapsed: 0.0004589557647705078
ell 324, elapsed: 0.0003979206085205078
ell 323, elapsed: 0.0004668235778808594
ell 322, elapsed: 0.00039696693420410156
ell 321, elapsed: 0.0004830360412597656
ell 320, elapsed: 0.00039505958557128906
ell 319, elapsed: 0.00045800209045410156
ell 318, elapsed: 0.0003979206085205078
ell 317, elapsed: 0.0004680156707763672
ell 316, elapsed: 0.0003972053527832031
ell 315, elapsed: 0.00045990943908691406
ell 314, elapsed: 0.00039696693420410156
ell 313, elapsed: 0.0005598068237304688
ell 312, elapsed: 0.0004010200500488281
ell 311, elapsed: 0.00046706199645996094
ell 310, elapsed: 0.0003979206085205078
ell 309, elapsed: 0.0004379749298095703
ell 308, elapsed: 0.0003349781036376953
ell 307, elapsed: 0.00037980079650878906
ell 306, elapsed: 0.00033283233642578125
ell 305, elapsed: 0.00038504600524902344
ell 304, elapsed: 0.0004069805145263672
ell 303, elapsed: 0.0004589557647705078
ell 302, elapsed: 0.0003960132598876953
ell 301, elapsed: 0.0004589557647705078
ell 300, elapsed: 0.00039505958557128906
ell 299, elapsed: 0.00045990943908691406
ell 298, elapsed: 0.00039505958557128906
ell 297, elapsed: 0.00045990943908691406
ell 296, elapsed: 0.00047898292541503906
ell 295, elapsed: 0.00046896934509277344
ell 294, elapsed: 0.0003948211669921875
ell 293, elapsed: 0.00045990943908691406
ell 292, elapsed: 0.00040793418884277344
ell 291, elapsed: 0.0004589557647705078
ell 290, elapsed: 0.0004000663757324219
ell 289, elapsed: 0.0004620552062988281
ell 288, elapsed: 0.0005059242248535156
ell 287, elapsed: 0.00047206878662109375
ell 286, elapsed: 0.0003981590270996094
ell 285, elapsed: 0.00046896934509277344
ell 284, elapsed: 0.0003991127014160156
ell 283, elapsed: 0.0004639625549316406
ell 282, elapsed: 0.0003991127014160156
ell 281, elapsed: 0.0004639625549316406
ell 280, elapsed: 0.0004069805145263672
ell 279, elapsed: 0.0004611015319824219
ell 278, elapsed: 0.0004019737243652344
ell 277, elapsed: 0.0004730224609375
ell 276, elapsed: 0.0004010200500488281
ell 275, elapsed: 0.0004680156707763672
ell 274, elapsed: 0.0004010200500488281
ell 273, elapsed: 0.0005869865417480469
ell 272, elapsed: 0.0004069805145263672
ell 271, elapsed: 0.0004668235778808594
ell 270, elapsed: 0.0004010200500488281
ell 269, elapsed: 0.00045990943908691406
ell 268, elapsed: 0.00039887428283691406
ell 267, elapsed: 0.0004630088806152344
ell 266, elapsed: 0.0003979206085205078
ell 265, elapsed: 0.0005319118499755859
ell 264, elapsed: 0.00039887428283691406
ell 263, elapsed: 0.00043201446533203125
ell 262, elapsed: 0.0003409385681152344
ell 261, elapsed: 0.0003809928894042969
ell 260, elapsed: 0.00032901763916015625
ell 259, elapsed: 0.0003800392150878906
ell 258, elapsed: 0.0003330707550048828
ell 257, elapsed: 0.00038909912109375
ell 256, elapsed: 0.00033283233642578125
ell 255, elapsed: 0.0005869865417480469
ell 254, elapsed: 0.00039887428283691406
ell 253, elapsed: 0.0004611015319824219
ell 252, elapsed: 0.0003998279571533203
ell 251, elapsed: 0.0004661083221435547
ell 250, elapsed: 0.00039696693420410156
ell 249, elapsed: 0.0004601478576660156
ell 248, elapsed: 0.00039696693420410156
ell 247, elapsed: 0.00047397613525390625
ell 246, elapsed: 0.0003960132598876953
ell 245, elapsed: 0.0004611015319824219
ell 244, elapsed: 0.00039696693420410156
ell 243, elapsed: 0.0004711151123046875
ell 242, elapsed: 0.0004000663757324219
ell 241, elapsed: 0.0004608631134033203
ell 240, elapsed: 0.00045299530029296875
ell 239, elapsed: 0.00045990943908691406
ell 238, elapsed: 0.00039696693420410156
ell 237, elapsed: 0.0004730224609375
ell 236, elapsed: 0.0003991127014160156
ell 235, elapsed: 0.0004649162292480469
ell 234, elapsed: 0.0003979206085205078
ell 233, elapsed: 0.0004839897155761719
ell 232, elapsed: 0.00040912628173828125
ell 231, elapsed: 0.0004649162292480469
ell 230, elapsed: 0.00039887428283691406
ell 229, elapsed: 0.0004589557647705078
ell 228, elapsed: 0.0004000663757324219
ell 227, elapsed: 0.00045800209045410156
ell 226, elapsed: 0.0004000663757324219
ell 225, elapsed: 0.00046181678771972656
ell 224, elapsed: 0.0064809322357177734
ell 223, elapsed: 0.0005350112915039062
ell 222, elapsed: 0.0003991127014160156
ell 221, elapsed: 0.0005819797515869141
ell 220, elapsed: 0.0004019737243652344
ell 219, elapsed: 0.0004611015319824219
ell 218, elapsed: 0.0003948211669921875
ell 217, elapsed: 0.0004630088806152344
ell 216, elapsed: 0.0003972053527832031
ell 215, elapsed: 0.00047206878662109375
ell 214, elapsed: 0.0003960132598876953
ell 213, elapsed: 0.0005829334259033203
ell 212, elapsed: 0.00039887428283691406
ell 211, elapsed: 0.0004630088806152344
ell 210, elapsed: 0.00039577484130859375
ell 209, elapsed: 0.00046706199645996094
ell 208, elapsed: 0.00039696693420410156
ell 207, elapsed: 0.00046706199645996094
ell 206, elapsed: 0.00039696693420410156
ell 205, elapsed: 0.0006771087646484375
ell 204, elapsed: 0.00040411949157714844
ell 203, elapsed: 0.0004649162292480469
ell 202, elapsed: 0.00039887428283691406
ell 201, elapsed: 0.0004608631134033203
ell 200, elapsed: 0.0004000663757324219
ell 199, elapsed: 0.00047779083251953125
ell 198, elapsed: 0.0003991127014160156
ell 197, elapsed: 0.0006389617919921875
ell 196, elapsed: 0.0004010200500488281
ell 195, elapsed: 0.0004649162292480469
ell 194, elapsed: 0.0003960132598876953
ell 193, elapsed: 0.0004661083221435547
ell 192, elapsed: 0.00039696693420410156
ell 191, elapsed: 0.0004630088806152344
ell 190, elapsed: 0.0003991127014160156
ell 189, elapsed: 0.0004889965057373047
ell 188, elapsed: 0.00037598609924316406
ell 187, elapsed: 0.00043201446533203125
ell 186, elapsed: 0.0004150867462158203
ell 185, elapsed: 0.0006418228149414062
ell 184, elapsed: 0.00037384033203125
ell 183, elapsed: 0.00043892860412597656
ell 182, elapsed: 0.00036406517028808594
ell 181, elapsed: 0.0004298686981201172
ell 180, elapsed: 0.0003669261932373047
ell 179, elapsed: 0.00044608116149902344
ell 178, elapsed: 0.0004820823669433594
ell 177, elapsed: 0.0004410743713378906
ell 176, elapsed: 0.0003719329833984375
ell 175, elapsed: 0.0005319118499755859
ell 174, elapsed: 0.0003681182861328125
ell 173, elapsed: 0.0004429817199707031
ell 172, elapsed: 0.0003650188446044922
ell 171, elapsed: 0.00042700767517089844
ell 170, elapsed: 0.0003840923309326172
ell 169, elapsed: 0.0004379749298095703
ell 168, elapsed: 0.0003669261932373047
ell 167, elapsed: 0.00043511390686035156
ell 166, elapsed: 0.0003669261932373047
ell 165, elapsed: 0.0004329681396484375
ell 164, elapsed: 0.0003669261932373047
ell 163, elapsed: 0.000431060791015625
ell 162, elapsed: 0.0003650188446044922
ell 161, elapsed: 0.00440216064453125
ell 160, elapsed: 0.0004050731658935547
ell 159, elapsed: 0.0004718303680419922
ell 158, elapsed: 0.0003750324249267578
ell 157, elapsed: 0.00043201446533203125
ell 156, elapsed: 0.0003712177276611328
ell 155, elapsed: 0.00042819976806640625
ell 154, elapsed: 0.0003650188446044922
ell 153, elapsed: 0.0005910396575927734
ell 152, elapsed: 0.00047397613525390625
ell 151, elapsed: 0.00042700767517089844
ell 150, elapsed: 0.0004780292510986328
ell 149, elapsed: 0.00045108795166015625
ell 148, elapsed: 0.00037288665771484375
ell 147, elapsed: 0.0004379749298095703
ell 146, elapsed: 0.0003788471221923828
ell 145, elapsed: 0.0004420280456542969
ell 144, elapsed: 0.00037407875061035156
ell 143, elapsed: 0.0004429817199707031
ell 142, elapsed: 0.00048804283142089844
ell 141, elapsed: 0.00043582916259765625
ell 140, elapsed: 0.00037407875061035156
ell 139, elapsed: 0.0005130767822265625
ell 138, elapsed: 0.0006120204925537109
ell 137, elapsed: 0.0005362033843994141
ell 136, elapsed: 0.00038814544677734375
ell 135, elapsed: 0.0004420280456542969
ell 134, elapsed: 0.00037598609924316406
ell 133, elapsed: 0.00042700767517089844
ell 132, elapsed: 0.00035691261291503906
ell 131, elapsed: 0.0004401206970214844
ell 130, elapsed: 0.00047707557678222656
ell 129, elapsed: 0.00043892860412597656
ell 128, elapsed: 0.0003650188446044922
ell 127, elapsed: 0.0004420280456542969
ell 126, elapsed: 0.00037097930908203125
ell 125, elapsed: 0.0004379749298095703
ell 124, elapsed: 0.0003638267517089844
ell 123, elapsed: 0.0004520416259765625
ell 122, elapsed: 0.0003638267517089844
ell 121, elapsed: 0.0007710456848144531
ell 120, elapsed: 0.00036597251892089844
ell 119, elapsed: 0.00043487548828125
ell 118, elapsed: 0.0003628730773925781
ell 117, elapsed: 0.0004448890686035156
ell 116, elapsed: 0.000370025634765625
ell 115, elapsed: 0.0007250308990478516
ell 114, elapsed: 0.0004889965057373047
ell 113, elapsed: 0.00044083595275878906
ell 112, elapsed: 0.0003681182861328125
ell 111, elapsed: 0.00043702125549316406
ell 110, elapsed: 0.00036907196044921875
ell 109, elapsed: 0.0004420280456542969
ell 108, elapsed: 0.0003719329833984375
ell 107, elapsed: 0.0004279613494873047
ell 106, elapsed: 0.00045490264892578125
ell 105, elapsed: 0.0004401206970214844
ell 104, elapsed: 0.000370025634765625
ell 103, elapsed: 0.0004279613494873047
ell 102, elapsed: 0.0004470348358154297
ell 101, elapsed: 0.0005891323089599609
ell 100, elapsed: 0.0003619194030761719
ell 99, elapsed: 0.0004360675811767578
ell 98, elapsed: 0.0005731582641601562
ell 97, elapsed: 0.0004329681396484375
ell 96, elapsed: 0.0003619194030761719
ell 95, elapsed: 0.0004367828369140625
ell 94, elapsed: 0.00037097930908203125
ell 93, elapsed: 0.0004410743713378906
ell 92, elapsed: 0.0003719329833984375
ell 91, elapsed: 0.0004439353942871094
ell 90, elapsed: 0.0004801750183105469
ell 89, elapsed: 0.0004467964172363281
ell 88, elapsed: 0.0003731250762939453
ell 87, elapsed: 0.0005161762237548828
ell 86, elapsed: 0.00037097930908203125
ell 85, elapsed: 0.000431060791015625
ell 84, elapsed: 0.0003681182861328125
ell 83, elapsed: 0.00042700767517089844
ell 82, elapsed: 0.0003669261932373047
ell 81, elapsed: 0.0007312297821044922
ell 80, elapsed: 0.0003650188446044922
ell 79, elapsed: 0.0004279613494873047
ell 78, elapsed: 0.0003669261932373047
ell 77, elapsed: 0.0004298686981201172
ell 76, elapsed: 0.0005261898040771484
ell 75, elapsed: 0.0004830360412597656
ell 74, elapsed: 0.0006759166717529297
ell 73, elapsed: 0.0004417896270751953
ell 72, elapsed: 0.000370025634765625
ell 71, elapsed: 0.00043702125549316406
ell 70, elapsed: 0.0003609657287597656
ell 69, elapsed: 0.0004439353942871094
ell 68, elapsed: 0.000370025634765625
ell 67, elapsed: 0.00043702125549316406
ell 66, elapsed: 0.00045299530029296875
ell 65, elapsed: 0.0004239082336425781
ell 64, elapsed: 0.0003669261932373047
ell 63, elapsed: 0.0004398822784423828
ell 62, elapsed: 0.00036907196044921875
ell 61, elapsed: 0.0004379749298095703
ell 60, elapsed: 0.0003781318664550781
ell 59, elapsed: 0.00044083595275878906
ell 58, elapsed: 0.0003712177276611328
ell 57, elapsed: 0.0006160736083984375
ell 56, elapsed: 0.0003669261932373047
ell 55, elapsed: 0.00043201446533203125
ell 54, elapsed: 0.00036787986755371094
ell 53, elapsed: 0.000431060791015625
ell 52, elapsed: 0.0003688335418701172
ell 51, elapsed: 0.0004410743713378906
ell 50, elapsed: 0.00036406517028808594
ell 49, elapsed: 0.0005269050598144531
ell 48, elapsed: 0.0003662109375
ell 47, elapsed: 0.0004420280456542969
ell 46, elapsed: 0.0003669261932373047
ell 45, elapsed: 0.0004279613494873047
ell 44, elapsed: 0.00036716461181640625
ell 43, elapsed: 0.0004398822784423828
ell 42, elapsed: 0.00036907196044921875
ell 41, elapsed: 0.0005390644073486328
ell 40, elapsed: 0.00037789344787597656
ell 39, elapsed: 0.0004379749298095703
ell 38, elapsed: 0.0005102157592773438
ell 37, elapsed: 0.0005450248718261719
ell 36, elapsed: 0.0003781318664550781
ell 35, elapsed: 0.00043201446533203125
ell 34, elapsed: 0.0003731250762939453
ell 33, elapsed: 0.0005230903625488281
ell 32, elapsed: 0.0003681182861328125
ell 31, elapsed: 0.00043487548828125
ell 30, elapsed: 0.00036597251892089844
ell 29, elapsed: 0.00043892860412597656
ell 28, elapsed: 0.00036787986755371094
ell 27, elapsed: 0.00043392181396484375
ell 26, elapsed: 0.00037217140197753906
ell 25, elapsed: 0.0005319118499755859
ell 24, elapsed: 0.0003750324249267578
ell 23, elapsed: 0.00043392181396484375
ell 22, elapsed: 0.0003750324249267578
ell 21, elapsed: 0.0004420280456542969
ell 20, elapsed: 0.0003731250762939453
ell 19, elapsed: 0.00044989585876464844
ell 18, elapsed: 0.0003979206085205078
ell 17, elapsed: 0.0004448890686035156
ell 16, elapsed: 0.0004260540008544922
ell 15, elapsed: 0.00045418739318847656
ell 14, elapsed: 0.00038313865661621094
ell 13, elapsed: 0.00043392181396484375
ell 12, elapsed: 0.0003769397735595703
ell 11, elapsed: 0.00044608116149902344
ell 10, elapsed: 0.0003790855407714844
ell 9, elapsed: 0.0004489421844482422
ell 8, elapsed: 0.008033990859985352
ell 7, elapsed: 0.000476837158203125
ell 6, elapsed: 0.0003879070281982422
ell 5, elapsed: 0.0004470348358154297
ell 4, elapsed: 0.0003781318664550781
ell 3, elapsed: 0.00043702125549316406
ell 2, elapsed: 0.0003790855407714844
ell 1, elapsed: 0.0004360675811767578
ell 0, elapsed: 0.00038123130798339844
  0.803856 seconds (57.01 k allocations: 2.784 MiB)
elapsed: 0.0006029605865478516
step:          0.065343 sec (0 allocations: 0 byte, 0.0% gc time)
swapping:      0.00074 sec (0 allocations: 0 byte, 0.0% gc time)
calc_Mellell!: 0.009911 sec (0 allocations: 0 byte, 0.0% gc time)
  t0 :  0.002459 sec (0 allocations: 0 byte, 0.0% gc time)
  tm2 : 0.099892 sec (0 allocations: 0 byte, 0.0% gc time)
  tm2s: 0.001998 sec (0 allocations: 0 byte, 0.0% gc time)
  tm4 : 0.25018 sec (0 allocations: 0 byte, 0.0% gc time)
  tp2 : 0.0 sec (0 allocations: 0 byte, 0.0% gc time)
  tp2s: 0.0 sec (0 allocations: 0 byte, 0.0% gc time)
  tp4 : 0.0 sec (0 allocations: 0 byte, 0.0% gc time)
calc_wtdll!:   0.369718 sec (9.879 k allocations: 1.044 MB, 0.0% gc time)
calc_wljj!:    0.044641 sec (689 allocations: 10.766 KB, 0.0% gc time)
mult_prefac!:  0.0 sec (0 allocations: 0 byte, 0.0% gc time)
convert:       0.0 sec (0 allocations: 0 byte, 0.0% gc time)
write:         0.042775 sec (0 allocations: 0 byte, 0.0% gc time)
test_rand_2f1: 0.0 sec (0 allocations: 0 byte, 0.0% gc time)
Closing outfile out/Ml21-cache.bin...   0.000049 seconds
  0.000723 seconds (52 allocations: 28.297 KiB)
make_phi():   0.003087 seconds (8.36 k allocations: 250.984 KiB)
  1.180495 seconds (1.27 M allocations: 96.779 MiB, 13.82% gc time)
tskip:       0.000999 sec (0 allocations: 0 byte, 0.0% gc time)
tread:       0.028121 sec (20 allocations: 10.703 KB, 0.0% gc time)
tmultphi:    0.018851 sec (0 allocations: 0 byte, 0.0% gc time)
tbrfft:      1.002967 sec (1.136 M allocations: 93.59 MB, 16.27% gc time)
tmultprefac: 0.06097 sec (0 allocations: 0 byte, 0.0% gc time)
toutfunc:    0.066196 sec (129.905 k allocations: 2.421 MB, 0.0% gc time)
Testing R=1.0 ... passed
Calculating fmax: 
  dlrec    = 4
  dlrecRg1 = -4
  q=1.1, R=0.9:	  0.823496 seconds (149.41 k allocations: 69.863 MiB, 23.34% gc time)

  0.824068 seconds (149.47 k allocations: 69.895 MiB, 23.32% gc time)
ℓ = 1202
Δℓ = 4
ΔℓRg1 = -4
N = 1600
q = 1.1
kmin = 1.0e-5
kmax = 100000.00000000004
χ0 = 0.023029999999999995
RR = RR.tsv
ℓmax = ℓmax.bin
f21 = f21.bin
kmin = 1.0e-5
kmax = 100000.0
dlrec    = 4
dlrecRg1 = -4
Output size: 5741568 bytes = 0.005347251892089844 GiB
Output size: 51264 bytes = 4.774332046508789e-5 GiB
Reading 'out/F21EllCache'...   0.001187 seconds (271 allocations: 84.719 KiB)
ellmax: 1202
lmaxcache: 1202
fell[:,1,1] = Complex{Float64}[1.3482014726274674e-57 - 3.302141236118086e-73im, 1.357860004724329e-57 - 3.3257978169518355e-73im]
ell 1202, elapsed: 8.988380432128906e-5
ell 1201, elapsed: 0.0006349086761474609
ell 1200, elapsed: 0.0005779266357421875
ell 1199, elapsed: 0.0005769729614257812
ell 1198, elapsed: 0.0005159378051757812
ell 1002, elapsed: 0.010821104049682617
ell 1001, elapsed: 0.0005190372467041016
ell 1000, elapsed: 0.0004291534423828125
ell 999, elapsed: 0.0004909038543701172
ell 998, elapsed: 0.0003859996795654297
ell 902, elapsed: 0.005156040191650391
ell 901, elapsed: 0.0004279613494873047
ell 900, elapsed: 0.0005071163177490234
ell 899, elapsed: 0.0004971027374267578
ell 898, elapsed: 0.0004100799560546875
ell 802, elapsed: 0.005594968795776367
ell 801, elapsed: 0.0004451274871826172
ell 800, elapsed: 0.000408172607421875
ell 799, elapsed: 0.0004220008850097656
ell 798, elapsed: 0.0003960132598876953
ell 702, elapsed: 0.005089998245239258
ell 701, elapsed: 0.0005850791931152344
ell 700, elapsed: 0.0005621910095214844
ell 699, elapsed: 0.0005581378936767578
ell 698, elapsed: 0.000408172607421875
ell 602, elapsed: 0.005895853042602539
ell 601, elapsed: 0.0006260871887207031
ell 600, elapsed: 0.0005140304565429688
ell 599, elapsed: 0.0005421638488769531
ell 598, elapsed: 0.00049591064453125
ell 502, elapsed: 0.005754947662353516
ell 501, elapsed: 0.00036787986755371094
ell 500, elapsed: 0.0005168914794921875
ell 499, elapsed: 0.0005371570587158203
ell 498, elapsed: 0.0004799365997314453
ell 402, elapsed: 0.005321979522705078
ell 401, elapsed: 0.0004608631134033203
ell 400, elapsed: 0.0005121231079101562
ell 399, elapsed: 0.0004069805145263672
ell 398, elapsed: 0.0004048347473144531
ell 302, elapsed: 0.005300045013427734
ell 301, elapsed: 0.0005409717559814453
ell 300, elapsed: 0.0006020069122314453
ell 299, elapsed: 0.0006489753723144531
ell 298, elapsed: 0.0006699562072753906
ell 202, elapsed: 0.0054128170013427734
ell 201, elapsed: 0.0005381107330322266
ell 200, elapsed: 0.0006608963012695312
ell 199, elapsed: 0.00043511390686035156
ell 198, elapsed: 0.0005619525909423828
ell 152, elapsed: 0.002891063690185547
ell 151, elapsed: 0.0003528594970703125
ell 150, elapsed: 0.0003979206085205078
ell 149, elapsed: 0.0005381107330322266
ell 148, elapsed: 0.0005431175231933594
ell 127, elapsed: 0.00185394287109375
ell 126, elapsed: 0.0003581047058105469
ell 125, elapsed: 0.00047898292541503906
ell 124, elapsed: 0.0004630088806152344
ell 123, elapsed: 0.00034117698669433594
ell 114, elapsed: 0.0008380413055419922
ell 113, elapsed: 0.0004420280456542969
ell 112, elapsed: 0.0005350112915039062
ell 111, elapsed: 0.0005021095275878906
ell 110, elapsed: 0.0004868507385253906
ell 102, elapsed: 0.0009529590606689453
ell 101, elapsed: 0.00045800209045410156
ell 100, elapsed: 0.0005428791046142578
ell 99, elapsed: 0.000492095947265625
ell 98, elapsed: 0.00047588348388671875
ell 97, elapsed: 0.00047397613525390625
ell 96, elapsed: 0.00045800209045410156
ell 95, elapsed: 0.0004918575286865234
ell 94, elapsed: 0.0005888938903808594
ell 93, elapsed: 0.0005037784576416016
ell 92, elapsed: 0.0006020069122314453
ell 91, elapsed: 0.00037789344787597656
ell 90, elapsed: 0.0006198883056640625
ell 89, elapsed: 0.0004260540008544922
ell 88, elapsed: 0.0005619525909423828
ell 87, elapsed: 0.0005970001220703125
ell 86, elapsed: 0.0005469322204589844
ell 85, elapsed: 0.0004980564117431641
ell 84, elapsed: 0.0005960464477539062
ell 83, elapsed: 0.00047397613525390625
ell 82, elapsed: 0.0006110668182373047
ell 81, elapsed: 0.0004940032958984375
ell 80, elapsed: 0.0005538463592529297
ell 79, elapsed: 0.0003600120544433594
ell 78, elapsed: 0.0004210472106933594
ell 77, elapsed: 0.0003600120544433594
ell 76, elapsed: 0.0004210472106933594
ell 75, elapsed: 0.0003609657287597656
ell 74, elapsed: 0.0004298686981201172
ell 73, elapsed: 0.0003578662872314453
ell 72, elapsed: 0.0004210472106933594
ell 71, elapsed: 0.0003771781921386719
ell 70, elapsed: 0.0005719661712646484
ell 69, elapsed: 0.00046706199645996094
ell 68, elapsed: 0.0004439353942871094
ell 67, elapsed: 0.00038814544677734375
ell 66, elapsed: 0.00045609474182128906
ell 65, elapsed: 0.00037598609924316406
ell 64, elapsed: 0.0004239082336425781
ell 63, elapsed: 0.0003681182861328125
ell 62, elapsed: 0.0004260540008544922
ell 61, elapsed: 0.0003681182861328125
ell 60, elapsed: 0.0004260540008544922
ell 59, elapsed: 0.0003809928894042969
ell 58, elapsed: 0.0004329681396484375
ell 57, elapsed: 0.0004031658172607422
ell 56, elapsed: 0.00043010711669921875
ell 55, elapsed: 0.00037407875061035156
ell 54, elapsed: 0.00042700767517089844
ell 53, elapsed: 0.0003712177276611328
ell 52, elapsed: 0.0004220008850097656
ell 51, elapsed: 0.00037789344787597656
ell 50, elapsed: 0.00043392181396484375
ell 49, elapsed: 0.00037097930908203125
ell 48, elapsed: 0.00045108795166015625
ell 47, elapsed: 0.0003719329833984375
ell 46, elapsed: 0.00043392181396484375
ell 45, elapsed: 0.00037097930908203125
ell 44, elapsed: 0.000431060791015625
ell 43, elapsed: 0.0003809928894042969
ell 42, elapsed: 0.0004260540008544922
ell 41, elapsed: 0.0003790855407714844
ell 40, elapsed: 0.0004391670227050781
ell 39, elapsed: 0.00038504600524902344
ell 38, elapsed: 0.0004329681396484375
ell 37, elapsed: 0.0003731250762939453
ell 36, elapsed: 0.0004360675811767578
ell 35, elapsed: 0.0003840923309326172
ell 34, elapsed: 0.0004329681396484375
ell 33, elapsed: 0.0003619194030761719
ell 32, elapsed: 0.0004131793975830078
ell 31, elapsed: 0.0003781318664550781
ell 30, elapsed: 0.00041985511779785156
ell 29, elapsed: 0.0003631114959716797
ell 28, elapsed: 0.00042510032653808594
ell 27, elapsed: 0.0003669261932373047
ell 26, elapsed: 0.00042891502380371094
ell 25, elapsed: 0.00036907196044921875
ell 24, elapsed: 0.0004260540008544922
ell 23, elapsed: 0.00037217140197753906
ell 22, elapsed: 0.0004417896270751953
ell 21, elapsed: 0.00037288665771484375
ell 20, elapsed: 0.0004298686981201172
ell 19, elapsed: 0.00037097930908203125
ell 18, elapsed: 0.0004329681396484375
ell 17, elapsed: 0.00037097930908203125
ell 16, elapsed: 0.00043702125549316406
ell 15, elapsed: 0.00037097930908203125
ell 14, elapsed: 0.0004298686981201172
ell 13, elapsed: 0.00038695335388183594
ell 12, elapsed: 0.0004329681396484375
ell 11, elapsed: 0.000370025634765625
ell 10, elapsed: 0.00043082237243652344
ell 9, elapsed: 0.000370025634765625
ell 8, elapsed: 0.000431060791015625
ell 7, elapsed: 0.0003719329833984375
ell 6, elapsed: 0.000431060791015625
ell 5, elapsed: 0.00038886070251464844
ell 4, elapsed: 0.000431060791015625
ell 3, elapsed: 0.0003681182861328125
ell 2, elapsed: 0.00043010711669921875
ell 1, elapsed: 0.000370025634765625
ell 0, elapsed: 0.0004291534423828125
  0.159451 seconds (13.01 k allocations: 675.141 KiB)
elapsed: 0.0004968643188476562
step:          0.061532 sec (0 allocations: 0 byte, 0.0% gc time)
swapping:      0.000539 sec (0 allocations: 0 byte, 0.0% gc time)
calc_Mellell!: 0.001439 sec (0 allocations: 0 byte, 0.0% gc time)
  t0 :  0.000355 sec (0 allocations: 0 byte, 0.0% gc time)
  tm2 : 0.013375 sec (0 allocations: 0 byte, 0.0% gc time)
  tm2s: 0.000295 sec (0 allocations: 0 byte, 0.0% gc time)
  tm4 : 0.035187 sec (0 allocations: 0 byte, 0.0% gc time)
  tp2 : 0.0 sec (0 allocations: 0 byte, 0.0% gc time)
  tp2s: 0.0 sec (0 allocations: 0 byte, 0.0% gc time)
  tp4 : 0.0 sec (0 allocations: 0 byte, 0.0% gc time)
calc_wtdll!:   0.049812 sec (1.344 k allocations: 147.0 KB, 0.0% gc time)
calc_wljj!:    0.003865 sec (6 allocations: 96 byte, 0.0% gc time)
mult_prefac!:  0.0 sec (0 allocations: 0 byte, 0.0% gc time)
convert:       0.0 sec (0 allocations: 0 byte, 0.0% gc time)
write:         0.004051 sec (0 allocations: 0 byte, 0.0% gc time)
test_rand_2f1: 0.0 sec (0 allocations: 0 byte, 0.0% gc time)
Closing outfile out/Ml21-cache.bin...   0.000078 seconds
  0.000803 seconds (52 allocations: 28.297 KiB)
make_phi():   0.011197 seconds (8.36 k allocations: 251.000 KiB)
  0.130716 seconds (119.59 k allocations: 9.050 MiB)
tskip:       3.1e-5 sec (0 allocations: 0 byte, 0.0% gc time)
tread:       0.002847 sec (20 allocations: 2.188 KB, 0.0% gc time)
tmultphi:    0.001907 sec (0 allocations: 0 byte, 0.0% gc time)
tbrfft:      0.110744 sec (108.394 k allocations: 8.777 MB, 0.0% gc time)
tmultprefac: 0.008296 sec (0 allocations: 0 byte, 0.0% gc time)
toutfunc:    0.006783 sec (10.528 k allocations: 206.5 KB, 0.0% gc time)
Testing R=0.9 ... passed
Calculating fmax: 
  dlrec    = 4
  dlrecRg1 = -4
  q=1.1, R=0.8:	  0.650479 seconds (145.59 k allocations: 68.095 MiB, 21.25% gc time)

  0.650929 seconds (145.66 k allocations: 68.127 MiB, 21.24% gc time)
ℓ = 1202
Δℓ = 4
ΔℓRg1 = -4
N = 1600
q = 1.1
kmin = 1.0e-5
kmax = 100000.00000000004
χ0 = 0.023029999999999995
RR = RR.tsv
ℓmax = ℓmax.bin
f21 = f21.bin
kmin = 1.0e-5
kmax = 100000.0
dlrec    = 4
dlrecRg1 = -4
Output size: 5741568 bytes = 0.005347251892089844 GiB
Output size: 51264 bytes = 4.774332046508789e-5 GiB
Reading 'out/F21EllCache'...   0.001050 seconds (271 allocations: 84.719 KiB)
ellmax: 1202
lmaxcache: 1202
fell[:,1,1] = Complex{Float64}[7.519068145690986e-120 - 1.8416405474382574e-135im, 7.541664537386155e-120 - 1.847175067190611e-135im]
ell 1202, elapsed: 4.8160552978515625e-5
ell 1201, elapsed: 0.00043511390686035156
ell 1200, elapsed: 0.00038504600524902344
ell 1199, elapsed: 0.0005939006805419922
ell 1198, elapsed: 0.0004761219024658203
ell 1002, elapsed: 0.01002192497253418
ell 1001, elapsed: 0.0004711151123046875
ell 1000, elapsed: 0.00043487548828125
ell 999, elapsed: 0.0004401206970214844
ell 998, elapsed: 0.00041794776916503906
ell 902, elapsed: 0.0049059391021728516
ell 901, elapsed: 0.0004279613494873047
ell 900, elapsed: 0.0004658699035644531
ell 899, elapsed: 0.00046706199645996094
ell 898, elapsed: 0.000453948974609375
ell 802, elapsed: 0.005959987640380859
ell 801, elapsed: 0.0005021095275878906
ell 800, elapsed: 0.0004749298095703125
ell 799, elapsed: 0.0006649494171142578
ell 798, elapsed: 0.0006101131439208984
ell 702, elapsed: 0.00539398193359375
ell 701, elapsed: 0.00047898292541503906
ell 700, elapsed: 0.00045609474182128906
ell 699, elapsed: 0.0006351470947265625
ell 698, elapsed: 0.0006270408630371094
ell 602, elapsed: 0.005268096923828125
ell 601, elapsed: 0.0004379749298095703
ell 600, elapsed: 0.0004038810729980469
ell 599, elapsed: 0.0005359649658203125
ell 598, elapsed: 0.0004150867462158203
ell 502, elapsed: 0.005040884017944336
ell 501, elapsed: 0.0004260540008544922
ell 500, elapsed: 0.00043201446533203125
ell 499, elapsed: 0.00043511390686035156
ell 498, elapsed: 0.0003330707550048828
ell 402, elapsed: 0.005511045455932617
ell 401, elapsed: 0.0003879070281982422
ell 400, elapsed: 0.00034999847412109375
ell 399, elapsed: 0.000331878662109375
ell 398, elapsed: 0.00032901763916015625
ell 302, elapsed: 0.005349874496459961
ell 301, elapsed: 0.00033402442932128906
ell 300, elapsed: 0.0003261566162109375
ell 299, elapsed: 0.00038909912109375
ell 298, elapsed: 0.000492095947265625
ell 202, elapsed: 0.005053997039794922
ell 201, elapsed: 0.00034308433532714844
ell 200, elapsed: 0.0003268718719482422
ell 199, elapsed: 0.0004649162292480469
ell 198, elapsed: 0.00040602684020996094
ell 152, elapsed: 0.0027899742126464844
ell 151, elapsed: 0.0003409385681152344
ell 150, elapsed: 0.00045490264892578125
ell 149, elapsed: 0.0005500316619873047
ell 148, elapsed: 0.0003979206085205078
ell 127, elapsed: 0.0016410350799560547
ell 126, elapsed: 0.00033402442932128906
ell 125, elapsed: 0.00032901763916015625
ell 124, elapsed: 0.0003287792205810547
ell 123, elapsed: 0.00033092498779296875
ell 114, elapsed: 0.0008180141448974609
ell 113, elapsed: 0.0003979206085205078
ell 112, elapsed: 0.0003559589385986328
ell 111, elapsed: 0.000331878662109375
ell 110, elapsed: 0.00033092498779296875
ell 102, elapsed: 0.0008158683776855469
ell 101, elapsed: 0.00041985511779785156
ell 100, elapsed: 0.00046896934509277344
ell 99, elapsed: 0.00047397613525390625
ell 98, elapsed: 0.0004999637603759766
ell 97, elapsed: 0.00037097930908203125
ell 96, elapsed: 0.0004391670227050781
ell 95, elapsed: 0.0003669261932373047
ell 94, elapsed: 0.0006091594696044922
ell 93, elapsed: 0.0004150867462158203
ell 92, elapsed: 0.0005910396575927734
ell 91, elapsed: 0.0004971027374267578
ell 90, elapsed: 0.0004398822784423828
ell 89, elapsed: 0.0004429817199707031
ell 88, elapsed: 0.0005748271942138672
ell 87, elapsed: 0.00047087669372558594
ell 86, elapsed: 0.0005400180816650391
ell 85, elapsed: 0.0003650188446044922
ell 84, elapsed: 0.0005178451538085938
ell 83, elapsed: 0.00047898292541503906
ell 82, elapsed: 0.0005600452423095703
ell 81, elapsed: 0.0004940032958984375
ell 80, elapsed: 0.0005071163177490234
ell 79, elapsed: 0.0003650188446044922
ell 78, elapsed: 0.0004210472106933594
ell 77, elapsed: 0.0005049705505371094
ell 76, elapsed: 0.0004851818084716797
ell 75, elapsed: 0.0004799365997314453
ell 74, elapsed: 0.0005469322204589844
ell 73, elapsed: 0.0004711151123046875
ell 72, elapsed: 0.0005390644073486328
ell 71, elapsed: 0.0005199909210205078
ell 70, elapsed: 0.0006978511810302734
ell 69, elapsed: 0.0005090236663818359
ell 68, elapsed: 0.0006809234619140625
ell 67, elapsed: 0.0005428791046142578
ell 66, elapsed: 0.0005209445953369141
ell 65, elapsed: 0.0004901885986328125
ell 64, elapsed: 0.0006890296936035156
ell 63, elapsed: 0.0004069805145263672
ell 62, elapsed: 0.0006139278411865234
ell 61, elapsed: 0.0005819797515869141
ell 60, elapsed: 0.0005891323089599609
ell 59, elapsed: 0.0003859996795654297
ell 58, elapsed: 0.0004470348358154297
ell 57, elapsed: 0.0004489421844482422
ell 56, elapsed: 0.0004611015319824219
ell 55, elapsed: 0.0004820823669433594
ell 54, elapsed: 0.0006749629974365234
ell 53, elapsed: 0.0004730224609375
ell 52, elapsed: 0.0005979537963867188
ell 51, elapsed: 0.0005688667297363281
ell 50, elapsed: 0.0005011558532714844
ell 49, elapsed: 0.0003819465637207031
ell 48, elapsed: 0.0005769729614257812
ell 47, elapsed: 0.00047206878662109375
ell 46, elapsed: 0.00055694580078125
ell 45, elapsed: 0.000492095947265625
ell 44, elapsed: 0.0005741119384765625
ell 43, elapsed: 0.00043201446533203125
ell 42, elapsed: 0.0004398822784423828
ell 41, elapsed: 0.0004961490631103516
ell 40, elapsed: 0.0005500316619873047
ell 39, elapsed: 0.0004978179931640625
ell 38, elapsed: 0.0006761550903320312
ell 37, elapsed: 0.0005848407745361328
[...]
ell 782, elapsed: 0.0016088485717773438
ell 781, elapsed: 0.0008299350738525391
ell 780, elapsed: 0.0008251667022705078
ell 779, elapsed: 0.0008349418640136719
ell 778, elapsed: 0.0008640289306640625
ell 772, elapsed: 0.0016219615936279297
ell 771, elapsed: 0.0008339881896972656
ell 770, elapsed: 0.000843048095703125
ell 769, elapsed: 0.0008440017700195312
ell 768, elapsed: 0.0008380413055419922
ell 762, elapsed: 0.0016031265258789062
ell 761, elapsed: 0.0008709430694580078
ell 760, elapsed: 0.0008699893951416016
ell 759, elapsed: 0.0008680820465087891
ell 758, elapsed: 0.0008509159088134766
ell 752, elapsed: 0.001840829849243164
ell 751, elapsed: 0.0008499622344970703
ell 750, elapsed: 0.0008358955383300781
ell 749, elapsed: 0.0008590221405029297
ell 748, elapsed: 0.0008330345153808594
ell 742, elapsed: 0.0015940666198730469
ell 741, elapsed: 0.0008440017700195312
ell 740, elapsed: 0.0008349418640136719
ell 739, elapsed: 0.0008909702301025391
ell 738, elapsed: 0.0008480548858642578
ell 732, elapsed: 0.0017919540405273438
ell 731, elapsed: 0.000820159912109375
ell 730, elapsed: 0.0008270740509033203
ell 729, elapsed: 0.0008451938629150391
ell 728, elapsed: 0.0008699893951416016
ell 722, elapsed: 0.0016129016876220703
ell 721, elapsed: 0.0008440017700195312
ell 720, elapsed: 0.0011179447174072266
ell 719, elapsed: 0.0008661746978759766
ell 718, elapsed: 0.0008320808410644531
ell 712, elapsed: 0.0015718936920166016
ell 711, elapsed: 0.0008490085601806641
ell 710, elapsed: 0.0008180141448974609
ell 709, elapsed: 0.0008189678192138672
ell 708, elapsed: 0.0008800029754638672
ell 702, elapsed: 0.0018150806427001953
ell 701, elapsed: 0.0007979869842529297
ell 700, elapsed: 0.0008881092071533203
ell 699, elapsed: 0.0008809566497802734
ell 698, elapsed: 0.000885009765625
ell 692, elapsed: 0.0016489028930664062
ell 691, elapsed: 0.0010120868682861328
ell 690, elapsed: 0.0008950233459472656
ell 689, elapsed: 0.0008409023284912109
ell 688, elapsed: 0.0008900165557861328
ell 682, elapsed: 0.0016460418701171875
ell 681, elapsed: 0.0009322166442871094
ell 680, elapsed: 0.0008800029754638672
ell 679, elapsed: 0.0009069442749023438
ell 678, elapsed: 0.0011370182037353516
ell 672, elapsed: 0.0016748905181884766
ell 671, elapsed: 0.0009260177612304688
ell 670, elapsed: 0.0009310245513916016
ell 669, elapsed: 0.0009050369262695312
ell 668, elapsed: 0.0008950233459472656
ell 662, elapsed: 0.001667022705078125
ell 661, elapsed: 0.0009360313415527344
ell 660, elapsed: 0.0008809566497802734
ell 659, elapsed: 0.0008959770202636719
ell 658, elapsed: 0.0009081363677978516
ell 652, elapsed: 0.001627206802368164
ell 651, elapsed: 0.0009169578552246094
ell 650, elapsed: 0.0008990764617919922
ell 649, elapsed: 0.0008800029754638672
ell 648, elapsed: 0.0008921623229980469
ell 642, elapsed: 0.0018689632415771484
ell 641, elapsed: 0.0009388923645019531
ell 640, elapsed: 0.000881195068359375
ell 639, elapsed: 0.0009129047393798828
ell 638, elapsed: 0.0009109973907470703
ell 632, elapsed: 0.0018582344055175781
ell 631, elapsed: 0.0008540153503417969
ell 630, elapsed: 0.0008828639984130859
ell 629, elapsed: 0.0008969306945800781
ell 628, elapsed: 0.0008890628814697266
ell 622, elapsed: 0.0018360614776611328
ell 621, elapsed: 0.0008480548858642578
ell 620, elapsed: 0.0008900165557861328
ell 619, elapsed: 0.0008890628814697266
ell 618, elapsed: 0.0008869171142578125
ell 612, elapsed: 0.0015540122985839844
ell 611, elapsed: 0.0008058547973632812
ell 610, elapsed: 0.0007960796356201172
ell 609, elapsed: 0.0008411407470703125
ell 608, elapsed: 0.0007989406585693359
ell 602, elapsed: 0.0016758441925048828
ell 601, elapsed: 0.0007979869842529297
ell 600, elapsed: 0.0008018016815185547
ell 599, elapsed: 0.0008409023284912109
ell 598, elapsed: 0.0008728504180908203
ell 592, elapsed: 0.0017359256744384766
ell 591, elapsed: 0.0007870197296142578
ell 590, elapsed: 0.0007970333099365234
ell 589, elapsed: 0.0008039474487304688
ell 588, elapsed: 0.0008301734924316406
ell 582, elapsed: 0.0015599727630615234
ell 581, elapsed: 0.0009710788726806641
ell 580, elapsed: 0.0008409023284912109
ell 579, elapsed: 0.0007929801940917969
ell 578, elapsed: 0.0007898807525634766
ell 572, elapsed: 0.0018079280853271484
ell 571, elapsed: 0.0007979869842529297
ell 570, elapsed: 0.0008349418640136719
ell 569, elapsed: 0.00080108642578125
ell 568, elapsed: 0.0009951591491699219
ell 562, elapsed: 0.0015299320220947266
ell 561, elapsed: 0.0007989406585693359
ell 560, elapsed: 0.0008189678192138672
ell 559, elapsed: 0.0008478164672851562
ell 558, elapsed: 0.0008289813995361328
ell 552, elapsed: 0.0015480518341064453
ell 551, elapsed: 0.0010149478912353516
ell 550, elapsed: 0.0008449554443359375
ell 549, elapsed: 0.0007948875427246094
ell 548, elapsed: 0.0007948875427246094
ell 542, elapsed: 0.0017290115356445312
ell 541, elapsed: 0.0008280277252197266
ell 540, elapsed: 0.0007901191711425781
ell 539, elapsed: 0.0007958412170410156
ell 538, elapsed: 0.0008339881896972656
ell 532, elapsed: 0.0015439987182617188
ell 531, elapsed: 0.0008039474487304688
ell 530, elapsed: 0.0008392333984375
ell 529, elapsed: 0.0008420944213867188
ell 528, elapsed: 0.0007891654968261719
ell 522, elapsed: 0.001528024673461914
ell 521, elapsed: 0.0008549690246582031
ell 520, elapsed: 0.0008141994476318359
ell 519, elapsed: 0.0008108615875244141
ell 518, elapsed: 0.0007958412170410156
ell 512, elapsed: 0.0015749931335449219
ell 511, elapsed: 0.000827789306640625
ell 510, elapsed: 0.0008161067962646484
ell 509, elapsed: 0.0008261203765869141
ell 508, elapsed: 0.0008330345153808594
ell 502, elapsed: 0.0016241073608398438
ell 501, elapsed: 0.0008330345153808594
ell 500, elapsed: 0.0008208751678466797
ell 499, elapsed: 0.0008630752563476562
ell 498, elapsed: 0.0008199214935302734
ell 492, elapsed: 0.001531839370727539
ell 491, elapsed: 0.0007970333099365234
ell 490, elapsed: 0.0008640289306640625
ell 489, elapsed: 0.0007958412170410156
ell 488, elapsed: 0.0007891654968261719
ell 482, elapsed: 0.0014998912811279297
ell 481, elapsed: 0.0008511543273925781
ell 480, elapsed: 0.0007920265197753906
ell 479, elapsed: 0.0008029937744140625
ell 478, elapsed: 0.0007989406585693359
ell 472, elapsed: 0.0016238689422607422
ell 471, elapsed: 0.0008101463317871094
ell 470, elapsed: 0.0008120536804199219
ell 469, elapsed: 0.0008339881896972656
ell 468, elapsed: 0.0009350776672363281
ell 462, elapsed: 0.0015299320220947266
ell 461, elapsed: 0.0008490085601806641
ell 460, elapsed: 0.0008189678192138672
ell 459, elapsed: 0.0008418560028076172
ell 458, elapsed: 0.0008409023284912109
ell 452, elapsed: 0.0015549659729003906
ell 451, elapsed: 0.0008759498596191406
ell 450, elapsed: 0.0008420944213867188
ell 449, elapsed: 0.0007970333099365234
ell 448, elapsed: 0.0007939338684082031
ell 442, elapsed: 0.0015869140625
ell 441, elapsed: 0.0008139610290527344
ell 440, elapsed: 0.0007989406585693359
ell 439, elapsed: 0.0008099079132080078
ell 438, elapsed: 0.0008740425109863281
ell 432, elapsed: 0.0017368793487548828
ell 431, elapsed: 0.0007841587066650391
ell 430, elapsed: 0.0008299350738525391
ell 429, elapsed: 0.0008599758148193359
ell 428, elapsed: 0.0008020401000976562
ell 422, elapsed: 0.0015690326690673828
ell 421, elapsed: 0.0007960796356201172
ell 420, elapsed: 0.0008289813995361328
ell 419, elapsed: 0.000843048095703125
ell 418, elapsed: 0.00080108642578125
ell 412, elapsed: 0.0015630722045898438
ell 411, elapsed: 0.0008459091186523438
ell 410, elapsed: 0.0007979869842529297
ell 409, elapsed: 0.0007970333099365234
ell 408, elapsed: 0.0008339881896972656
ell 402, elapsed: 0.0015780925750732422
ell 401, elapsed: 0.0008301734924316406
ell 400, elapsed: 0.0008251667022705078
ell 399, elapsed: 0.0007870197296142578
ell 398, elapsed: 0.0008151531219482422
ell 392, elapsed: 0.0015549659729003906
ell 391, elapsed: 0.0007979869842529297
ell 390, elapsed: 0.0008380413055419922
ell 389, elapsed: 0.0008370876312255859
ell 388, elapsed: 0.0008008480072021484
ell 382, elapsed: 0.001508951187133789
ell 381, elapsed: 0.0008490085601806641
ell 380, elapsed: 0.0007920265197753906
ell 379, elapsed: 0.0007948875427246094
ell 378, elapsed: 0.0009918212890625
ell 372, elapsed: 0.0017600059509277344
ell 371, elapsed: 0.0007560253143310547
ell 370, elapsed: 0.0008399486541748047
ell 369, elapsed: 0.0008211135864257812
ell 368, elapsed: 0.0008740425109863281
ell 362, elapsed: 0.001728057861328125
ell 361, elapsed: 0.0007781982421875
ell 360, elapsed: 0.0007889270782470703
ell 359, elapsed: 0.0007989406585693359
ell 358, elapsed: 0.0008289813995361328
ell 352, elapsed: 0.0015590190887451172
ell 351, elapsed: 0.0008251667022705078
ell 350, elapsed: 0.0008380413055419922
ell 349, elapsed: 0.0008428096771240234
ell 348, elapsed: 0.0008120536804199219
ell 342, elapsed: 0.0015790462493896484
ell 341, elapsed: 0.0008230209350585938
ell 340, elapsed: 0.0008339881896972656
ell 339, elapsed: 0.0008449554443359375
ell 338, elapsed: 0.0008270740509033203
ell 332, elapsed: 0.0015180110931396484
ell 331, elapsed: 0.0008189678192138672
ell 330, elapsed: 0.0007889270782470703
ell 329, elapsed: 0.0008358955383300781
ell 328, elapsed: 0.0008330345153808594
ell 322, elapsed: 0.0017240047454833984
ell 321, elapsed: 0.0007810592651367188
ell 320, elapsed: 0.0008211135864257812
ell 319, elapsed: 0.0008120536804199219
ell 318, elapsed: 0.0009520053863525391
ell 312, elapsed: 0.0016169548034667969
ell 311, elapsed: 0.0008389949798583984
ell 310, elapsed: 0.0008020401000976562
ell 309, elapsed: 0.0007989406585693359
ell 308, elapsed: 0.0008127689361572266
ell 302, elapsed: 0.0016100406646728516
ell 301, elapsed: 0.0008180141448974609
ell 300, elapsed: 0.0008318424224853516
ell 299, elapsed: 0.0008440017700195312
ell 298, elapsed: 0.0007989406585693359
ell 292, elapsed: 0.0015418529510498047
ell 291, elapsed: 0.0008070468902587891
ell 290, elapsed: 0.0009069442749023438
ell 289, elapsed: 0.0008490085601806641
ell 288, elapsed: 0.0008018016815185547
ell 282, elapsed: 0.0015480518341064453
ell 281, elapsed: 0.0009779930114746094
ell 280, elapsed: 0.00080108642578125
ell 279, elapsed: 0.0008220672607421875
ell 278, elapsed: 0.0008029937744140625
ell 272, elapsed: 0.0015671253204345703
ell 271, elapsed: 0.0007979869842529297
ell 270, elapsed: 0.0007960796356201172
ell 269, elapsed: 0.0008370876312255859
ell 268, elapsed: 0.0008549690246582031
ell 262, elapsed: 0.0014929771423339844
ell 261, elapsed: 0.0008399486541748047
ell 260, elapsed: 0.0007960796356201172
ell 259, elapsed: 0.0007979869842529297
ell 258, elapsed: 0.0008111000061035156
ell 252, elapsed: 0.0015380382537841797
ell 251, elapsed: 0.0008580684661865234
ell 250, elapsed: 0.000843048095703125
ell 249, elapsed: 0.0008029937744140625
ell 248, elapsed: 0.0007970333099365234
ell 242, elapsed: 0.001566171646118164
ell 241, elapsed: 0.0008001327514648438
ell 240, elapsed: 0.0008189678192138672
ell 239, elapsed: 0.0008211135864257812
ell 238, elapsed: 0.0007958412170410156
ell 232, elapsed: 0.0015499591827392578
ell 231, elapsed: 0.0008060932159423828
ell 230, elapsed: 0.0008361339569091797
ell 229, elapsed: 0.0008549690246582031
ell 228, elapsed: 0.0007970333099365234
ell 222, elapsed: 0.0015459060668945312
ell 221, elapsed: 0.0008029937744140625
ell 220, elapsed: 0.0008249282836914062
ell 219, elapsed: 0.0008380413055419922
ell 218, elapsed: 0.0007920265197753906
ell 212, elapsed: 0.0015180110931396484
ell 211, elapsed: 0.0007951259613037109
ell 210, elapsed: 0.0007991790771484375
ell 209, elapsed: 0.0008289813995361328
ell 208, elapsed: 0.0007917881011962891
ell 202, elapsed: 0.001569986343383789
ell 201, elapsed: 0.0007960796356201172
ell 200, elapsed: 0.0007960796356201172
ell 199, elapsed: 0.0008339881896972656
ell 198, elapsed: 0.0008368492126464844
ell 192, elapsed: 0.0014929771423339844
ell 191, elapsed: 0.000804901123046875
ell 190, elapsed: 0.0007960796356201172
ell 189, elapsed: 0.0008919239044189453
ell 188, elapsed: 0.000823974609375
ell 182, elapsed: 0.0015408992767333984
ell 181, elapsed: 0.0008618831634521484
ell 180, elapsed: 0.0008361339569091797
ell 179, elapsed: 0.0008020401000976562
ell 178, elapsed: 0.0007960796356201172
ell 172, elapsed: 0.0015990734100341797
ell 171, elapsed: 0.0007998943328857422
ell 170, elapsed: 0.0008251667022705078
ell 169, elapsed: 0.0008199214935302734
ell 168, elapsed: 0.0007889270782470703
ell 162, elapsed: 0.0015249252319335938
ell 161, elapsed: 0.0007908344268798828
ell 160, elapsed: 0.0008111000061035156
ell 159, elapsed: 0.0008718967437744141
ell 158, elapsed: 0.0007951259613037109
ell 152, elapsed: 0.0017919540405273438
ell 151, elapsed: 0.0007989406585693359
ell 150, elapsed: 0.0008602142333984375
ell 149, elapsed: 0.0008180141448974609
ell 148, elapsed: 0.0008339881896972656
ell 142, elapsed: 0.0015859603881835938
ell 141, elapsed: 0.00080108642578125
ell 140, elapsed: 0.0008499622344970703
ell 139, elapsed: 0.0008230209350585938
ell 138, elapsed: 0.0008001327514648438
ell 132, elapsed: 0.0017881393432617188
ell 131, elapsed: 0.0008480548858642578
ell 130, elapsed: 0.0008251667022705078
ell 129, elapsed: 0.0008690357208251953
ell 128, elapsed: 0.0007939338684082031
ell 122, elapsed: 0.0015060901641845703
ell 121, elapsed: 0.0007948875427246094
ell 120, elapsed: 0.0008518695831298828
ell 119, elapsed: 0.0008170604705810547
ell 118, elapsed: 0.000823974609375
ell 112, elapsed: 0.0015368461608886719
ell 111, elapsed: 0.0008628368377685547
ell 110, elapsed: 0.0008292198181152344
ell 109, elapsed: 0.0007889270782470703
ell 108, elapsed: 0.0008039474487304688
ell 102, elapsed: 0.0016269683837890625
ell 101, elapsed: 0.0037908554077148438
ell 100, elapsed: 0.004296064376831055
ell 99, elapsed: 0.0040280818939208984
ell 98, elapsed: 0.00392603874206543
ell 92, elapsed: 0.007031917572021484
ell 91, elapsed: 0.003565073013305664
ell 90, elapsed: 0.003990888595581055
ell 89, elapsed: 0.0042591094970703125
ell 88, elapsed: 0.004283905029296875
ell 82, elapsed: 0.007093906402587891
ell 81, elapsed: 0.00433802604675293
ell 80, elapsed: 0.004091978073120117
ell 79, elapsed: 0.004228830337524414
ell 78, elapsed: 0.004607200622558594
ell 72, elapsed: 0.007561206817626953
ell 71, elapsed: 0.004002094268798828
ell 70, elapsed: 0.004255056381225586
ell 69, elapsed: 0.004203081130981445
ell 68, elapsed: 0.004266023635864258
ell 62, elapsed: 0.0071370601654052734
ell 61, elapsed: 0.004531145095825195
ell 60, elapsed: 0.004188060760498047
ell 59, elapsed: 0.004370927810668945
ell 58, elapsed: 0.003699064254760742
ell 52, elapsed: 0.007132053375244141
ell 51, elapsed: 0.004086971282958984
ell 50, elapsed: 0.004467964172363281
ell 49, elapsed: 0.003988981246948242
ell 48, elapsed: 0.004311084747314453
ell 42, elapsed: 0.007157802581787109
ell 41, elapsed: 0.004189014434814453
ell 40, elapsed: 0.0041980743408203125
ell 39, elapsed: 0.004285097122192383
ell 38, elapsed: 0.00428009033203125
ell 32, elapsed: 0.00631403923034668
ell 31, elapsed: 0.004106044769287109
ell 30, elapsed: 0.0041730403900146484
ell 29, elapsed: 0.00394892692565918
ell 28, elapsed: 0.004441022872924805
ell 22, elapsed: 0.006875038146972656
ell 21, elapsed: 0.0047190189361572266
ell 20, elapsed: 0.003963947296142578
ell 19, elapsed: 0.004555940628051758
ell 18, elapsed: 0.004685163497924805
ell 12, elapsed: 0.0074939727783203125
ell 11, elapsed: 0.004312992095947266
ell 10, elapsed: 0.004086971282958984
ell 9, elapsed: 0.004266977310180664
ell 8, elapsed: 0.0046482086181640625
  0.903147 seconds (74.13 k allocations: 12.051 MiB)
elapsed: 0.005079984664916992
step:          0.076437 sec (0 allocations: 0 byte, 0.0% gc time)
swapping:      0.000766 sec (0 allocations: 0 byte, 0.0% gc time)
calc_Mellell!: 0.041813 sec (0 allocations: 0 byte, 0.0% gc time)
  t0 :  0.010145 sec (0 allocations: 0 byte, 0.0% gc time)
  tm2 : 0.085132 sec (0 allocations: 0 byte, 0.0% gc time)
  tm2s: 0.008715 sec (0 allocations: 0 byte, 0.0% gc time)
  tm4 : 0.219073 sec (0 allocations: 0 byte, 0.0% gc time)
  tp2 : 0.0 sec (0 allocations: 0 byte, 0.0% gc time)
  tp2s: 0.0 sec (0 allocations: 0 byte, 0.0% gc time)
  tp4 : 0.0 sec (0 allocations: 0 byte, 0.0% gc time)
calc_wtdll!:   0.570192 sec (49.2 k allocations: 11.133 MB, 0.0% gc time)
calc_wljj!:    0.044686 sec (69 allocations: 1.078 KB, 0.0% gc time)
mult_prefac!:  0.0 sec (0 allocations: 0 byte, 0.0% gc time)
convert:       0.0 sec (0 allocations: 0 byte, 0.0% gc time)
write:         0.031781 sec (0 allocations: 0 byte, 0.0% gc time)
test_rand_2f1: 0.0 sec (0 allocations: 0 byte, 0.0% gc time)
Closing outfile out/MlCache/MlCache.bin...   0.000008 seconds
xi, l=0, nu=0:   0.394624 seconds (556.30 k allocations: 27.095 MiB, 3.70% gc time)
xi, l=0, nu=-2:  0.002259 seconds (491 allocations: 178.141 KiB)
Created 'out/xi.tsv'.
  q=1.1, R=0.6:	  1.254009 seconds (373.06 k allocations: 174.511 MiB, 2.78% gc time)
  q=1.1, R=0.7:	  1.180940 seconds (391.29 k allocations: 182.916 MiB, 1.77% gc time)
  q=1.1, R=0.8:	  1.191882 seconds (383.81 k allocations: 179.466 MiB, 2.02% gc time)
  q=1.1, R=0.9:	  1.253268 seconds (376.40 k allocations: 176.056 MiB, 1.64% gc time)
  q=1.1, R=0.998:	 22.194431 seconds (10.67 M allocations: 831.832 MiB, 0.30% gc time)
  q=1.1, R=1.0:	  0.049194 seconds (12.29 k allocations: 9.129 MiB, 5.86% gc time)

ℓ = 1000
Δℓ = 4
ΔℓRg1 = -4
N = 4096
q = 1.1
kmin = 1.0e-5
kmax = 1000.0
χ0 = 0.001
RR = RR.tsv
ℓmax = ℓmax.bin
f21 = f21.bin
kmin = 1.0e-5
kmax = 1000.0
dlrec    = 4
dlrecRg1 = -4
Output size: 1573632 bytes = 0.0014655590057373047 GiB
Output size: 786816 bytes = 0.0007327795028686523 GiB
Reading 'out/F21EllCache'...   0.001423 seconds (272 allocations: 533.594 KiB)
ellmax: 1002
lmaxcache: 1000
fell[:,1,1] = Complex{Float64}[1.7262928128202118e-224 - 4.2281979352226944e-240im, 1.7282693092099662e-224 - 4.233038955177176e-240im]
ell 1002, elapsed: 2.002716064453125e-5
ell 1001, elapsed: 0.0012030601501464844
ell 1000, elapsed: 0.0013530254364013672
ell 999, elapsed: 0.00630497932434082
ell 998, elapsed: 0.006185054779052734
ell 44, elapsed: 0.7485330104827881
ell 43, elapsed: 0.0062007904052734375
ell 42, elapsed: 0.005956888198852539
ell 41, elapsed: 0.005758047103881836
ell 40, elapsed: 0.007230997085571289
  0.796082 seconds (4.65 k allocations: 318.375 KiB)
elapsed: 0.006793975830078125
step:          0.746513 sec (0 allocations: 0 byte, 0.0% gc time)
swapping:      0.000533 sec (0 allocations: 0 byte, 0.0% gc time)
calc_Mellell!: 0.001171 sec (0 allocations: 0 byte, 0.0% gc time)
  t0 :  0.00094 sec (0 allocations: 0 byte, 0.0% gc time)
  tm2 : 0.01028 sec (0 allocations: 0 byte, 0.0% gc time)
  tm2s: 0.000725 sec (0 allocations: 0 byte, 0.0% gc time)
  tm4 : 0.030053 sec (0 allocations: 0 byte, 0.0% gc time)
  tp2 : 0.0 sec (0 allocations: 0 byte, 0.0% gc time)
  tp2s: 0.0 sec (0 allocations: 0 byte, 0.0% gc time)
  tp4 : 0.0 sec (0 allocations: 0 byte, 0.0% gc time)
calc_wtdll!:   0.04217 sec (480 allocations: 52.5 KB, 0.0% gc time)
calc_wljj!:    0.001555 sec (1 allocations: 16 byte, 0.0% gc time)
mult_prefac!:  0.0 sec (0 allocations: 0 byte, 0.0% gc time)
convert:       0.0 sec (0 allocations: 0 byte, 0.0% gc time)
write:         0.000971 sec (0 allocations: 0 byte, 0.0% gc time)
test_rand_2f1: 0.0 sec (0 allocations: 0 byte, 0.0% gc time)
Closing outfile out/MlCache/MlCache.bin...   0.000009 seconds
  1.870455 seconds (743.33 k allocations: 59.789 MiB, 0.49% gc time)
make_phi():   0.054811 seconds (264 allocations: 291.516 KiB)
  0.006804 seconds (7.79 k allocations: 644.813 KiB)
tskip:       1.0e-6 sec (0 allocations: 0 byte, 0.0% gc time)
tread:       0.000664 sec (20 allocations: 1.328 KB, 0.0% gc time)
tmultphi:    0.000477 sec (0 allocations: 0 byte, 0.0% gc time)
tbrfft:      0.004345 sec (7.776 k allocations: 643.5 KB, 0.0% gc time)
tmultprefac: 0.001185 sec (0 allocations: 0 byte, 0.0% gc time)
toutfunc:    0.00022 sec (0 allocations: 0 byte, 0.0% gc time)
Created 'out/wl42_jj00.tsv'.
Created 'out/wl42_jj02.tsv'.
   Testing TwoFAST tests passed 
