Julia Version 1.4.0-rc1.21
Commit 113211dee6 (2020-02-06 08:37 UTC)
Platform Info:
  OS: Linux (x86_64-linux-gnu)
  CPU: Intel(R) Xeon(R) Silver 4114 CPU @ 2.20GHz
  WORD_SIZE: 64
  LIBM: libopenlibm
  LLVM: libLLVM-8.0.1 (ORCJIT, skylake)
Environment:
  JULIA_DEPOT_PATH = ::/usr/local/share/julia
  JULIA_NUM_THREADS = 2

  Resolving package versions...
  Installed MKL_jll ────────── v2019.0.117+2
  Installed IntelOpenMP_jll ── v2018.0.3+0
  Installed Reexport ───────── v0.2.0
  Installed AbstractFFTs ───── v0.5.0
  Installed BinDeps ────────── v1.0.0
  Installed FFTW ───────────── v1.2.0
  Installed SpecialFunctions ─ v0.8.0
  Installed URIParser ──────── v0.4.0
  Installed BinaryProvider ─── v0.5.8
  Installed FFTW_jll ───────── v3.3.9+3
  Installed IncGammaBeta ───── v0.1.0
  Installed TwoFAST ────────── v0.1.0
  Installed AbstractAlgebra ── v0.7.1
  Installed Nemo ───────────── v0.15.1
#=#=#                                                                         #                                                                          2.3%######################################################################## 100.0%
#=#=#                                                                         ##O#- #                                                                       ##O=#  #                                                                                                                                                 0.7%######################################################################## 100.0%
   Updating `~/.julia/environments/v1.4/Project.toml`
  [0dd23c3e] + TwoFAST v0.1.0
   Updating `~/.julia/environments/v1.4/Manifest.toml`
  [c3fe647b] + AbstractAlgebra v0.7.1
  [621f4979] + AbstractFFTs v0.5.0
  [9e28174c] + BinDeps v1.0.0
  [b99e7846] + BinaryProvider v0.5.8
  [7a1cc6ca] + FFTW v1.2.0
  [f5851436] + FFTW_jll v3.3.9+3
  [5087d2c0] + IncGammaBeta v0.1.0
  [1d5cc7b8] + IntelOpenMP_jll v2018.0.3+0
  [856f044c] + MKL_jll v2019.0.117+2
  [2edaba10] + Nemo v0.15.1
  [189a3867] + Reexport v0.2.0
  [276daf66] + SpecialFunctions v0.8.0
  [0dd23c3e] + TwoFAST v0.1.0
  [30578b45] + URIParser v0.4.0
  [2a0f44e3] + Base64 
  [ade2ca70] + Dates 
  [8bb1440f] + DelimitedFiles 
  [8ba89e20] + Distributed 
  [b77e0a4c] + InteractiveUtils 
  [76f85450] + LibGit2 
  [8f399da3] + Libdl 
  [37e2e46d] + LinearAlgebra 
  [56ddb016] + Logging 
  [d6f4376e] + Markdown 
  [a63ad114] + Mmap 
  [44cfe95a] + Pkg 
  [de0858da] + Printf 
  [3fa0cd96] + REPL 
  [9a3f8284] + Random 
  [ea8e919c] + SHA 
  [9e88b42a] + Serialization 
  [6462fe0b] + Sockets 
  [2f01184e] + SparseArrays 
  [8dfed614] + Test 
  [cf7118a7] + UUIDs 
  [4ec0a83e] + Unicode 
   Building SpecialFunctions → `~/.julia/packages/SpecialFunctions/ne2iw/deps/build.log`
   Building FFTW ────────────→ `~/.julia/packages/FFTW/qqcBj/deps/build.log`
   Building Nemo ────────────→ `~/.julia/packages/Nemo/qzx0m/deps/build.log`
    Testing TwoFAST
Status `/tmp/jl_2s98vC/Manifest.toml`
  [c3fe647b] AbstractAlgebra v0.7.1
  [621f4979] AbstractFFTs v0.5.0
  [9e28174c] BinDeps v1.0.0
  [b99e7846] BinaryProvider v0.5.8
  [39dd38d3] Dierckx v0.4.1
  [7a1cc6ca] FFTW v1.2.0
  [f5851436] FFTW_jll v3.3.9+3
  [5087d2c0] IncGammaBeta v0.1.0
  [1d5cc7b8] IntelOpenMP_jll v2018.0.3+0
  [856f044c] MKL_jll v2019.0.117+2
  [2edaba10] Nemo v0.15.1
  [189a3867] Reexport v0.2.0
  [276daf66] SpecialFunctions v0.8.0
  [0dd23c3e] TwoFAST v0.1.0
  [30578b45] URIParser v0.4.0
  [2a0f44e3] Base64 
  [ade2ca70] Dates 
  [8bb1440f] DelimitedFiles 
  [8ba89e20] Distributed 
  [b77e0a4c] InteractiveUtils 
  [76f85450] LibGit2 
  [8f399da3] Libdl 
  [37e2e46d] LinearAlgebra 
  [56ddb016] Logging 
  [d6f4376e] Markdown 
  [a63ad114] Mmap 
  [44cfe95a] Pkg 
  [de0858da] Printf 
  [3fa0cd96] REPL 
  [9a3f8284] Random 
  [ea8e919c] SHA 
  [9e88b42a] Serialization 
  [6462fe0b] Sockets 
  [2f01184e] SparseArrays 
  [8dfed614] Test 
  [cf7118a7] UUIDs 
  [4ec0a83e] Unicode 

Welcome to Nemo version 0.15.1

Nemo comes with absolutely no warranty whatsoever


Welcome to Nemo version 0.15.1

Nemo comes with absolutely no warranty whatsoever

Testing ξ(r), ℓ=0, ν=-1 ... passed
Testing ξ(r), ℓ=0, ν=0 ... passed
Testing ξ(r), ℓ=0, ν=1 ... passed
Testing ξ(r), ℓ=0, ν=2 ... passed
Testing ξ(r), ℓ=0, ν=3 ... passed
Testing ξ(r), ℓ=1, ν=0 ... passed
Testing ξ(r), ℓ=1, ν=1 ... passed
Testing ξ(r), ℓ=1, ν=2 ... passed
Testing ξ(r), ℓ=1, ν=3 ... passed
Testing ξ(r), ℓ=2, ν=-1 ... passed
Testing ξ(r), ℓ=2, ν=0 ... passed
Testing ξ(r), ℓ=2, ν=1 ... passed
Testing ξ(r), ℓ=2, ν=2 ... passed
Testing ξ(r), ℓ=2, ν=3 ... passed
Testing ξ(r), ℓ=3, ν=-1 ... passed
Testing ξ(r), ℓ=3, ν=0 ... passed
Testing ξ(r), ℓ=3, ν=1 ... passed
Testing ξ(r), ℓ=3, ν=2 ... passed
Testing ξ(r), ℓ=3, ν=3 ... passed
Testing ξ(r), ℓ=4, ν=-1 ... passed
Testing ξ(r), ℓ=4, ν=0 ... passed
Testing ξ(r), ℓ=4, ν=1 ... passed
Testing ξ(r), ℓ=4, ν=2 ... passed
Testing ξ(r), ℓ=4, ν=3 ... passed
Testing ξ(r) ... passed
Testing ξ′(r) ... passed
Testing ξ″(r) ... passed
Calculating fmax: 
  dlrec    = 4
  dlrecRg1 = -4
  q=1.1, R=1.1:	  5.524418 seconds (1.36 M allocations: 75.329 MiB, 1.21% gc time)

  5.572218 seconds (1.38 M allocations: 76.439 MiB, 1.20% gc time)
ℓ = 1202
Δℓ = 4
ΔℓRg1 = -4
N = 1600
q = 1.1
kmin = 1.0e-5
kmax = 100000.00000000004
χ0 = 0.023029999999999995
RR = RR.tsv
ℓmax = ℓmax.bin
f21 = f21.bin
kmin = 1.0e-5
kmax = 100000.0
dlrec    = 4
dlrecRg1 = -4
Output size: 5741568 bytes = 0.005347251892089844 GiB
Output size: 51264 bytes = 4.774332046508789e-5 GiB
Reading 'out/F21EllCache'...   0.567311 seconds (318.60 k allocations: 16.380 MiB)
ellmax: 1202
lmaxcache: 1202
fell[:,1,1] = Complex{Float64}[3.9583795592771634e-52 - 9.695233714158177e-68im, 3.990121772925759e-52 - 9.772979714843386e-68im]
ell 1202, elapsed: 0.00010013580322265625
ell 1201, elapsed: 2.708804130554199
ell 1200, elapsed: 0.0005259513854980469
ell 1199, elapsed: 0.00048613548278808594
ell 1198, elapsed: 0.0004780292510986328
ell 1002, elapsed: 0.009693145751953125
ell 1001, elapsed: 0.0005002021789550781
ell 1000, elapsed: 0.0004749298095703125
ell 999, elapsed: 0.0004780292510986328
ell 998, elapsed: 0.0004949569702148438
ell 902, elapsed: 0.005001068115234375
ell 901, elapsed: 0.0004858970642089844
ell 900, elapsed: 0.0004780292510986328
ell 899, elapsed: 0.0004858970642089844
ell 898, elapsed: 0.00047397613525390625
ell 802, elapsed: 0.0052068233489990234
ell 801, elapsed: 0.0004839897155761719
ell 800, elapsed: 0.0004730224609375
ell 799, elapsed: 0.00047898292541503906
ell 798, elapsed: 0.0004799365997314453
ell 702, elapsed: 0.004927873611450195
ell 701, elapsed: 0.0005600452423095703
ell 700, elapsed: 0.0004830360412597656
ell 699, elapsed: 0.00047516822814941406
ell 698, elapsed: 0.0004718303680419922
ell 602, elapsed: 0.005239963531494141
ell 601, elapsed: 0.0004870891571044922
ell 600, elapsed: 0.0005261898040771484
ell 599, elapsed: 0.0005109310150146484
ell 598, elapsed: 0.00047206878662109375
ell 502, elapsed: 0.0049970149993896484
ell 501, elapsed: 0.0005021095275878906
ell 500, elapsed: 0.0004780292510986328
ell 499, elapsed: 0.0004749298095703125
ell 498, elapsed: 0.000576019287109375
ell 402, elapsed: 0.005120038986206055
ell 401, elapsed: 0.0004901885986328125
ell 400, elapsed: 0.0004761219024658203
ell 399, elapsed: 0.0004811286926269531
ell 398, elapsed: 0.0004711151123046875
ell 302, elapsed: 0.005125999450683594
ell 301, elapsed: 0.0004830360412597656
ell 300, elapsed: 0.0004680156707763672
ell 299, elapsed: 0.00046896934509277344
ell 298, elapsed: 0.0004711151123046875
ell 202, elapsed: 0.0051310062408447266
ell 201, elapsed: 0.0005710124969482422
ell 200, elapsed: 0.0004730224609375
ell 199, elapsed: 0.0005788803100585938
ell 198, elapsed: 0.0005228519439697266
ell 152, elapsed: 0.0027670860290527344
ell 151, elapsed: 0.0005629062652587891
ell 150, elapsed: 0.0005931854248046875
ell 149, elapsed: 0.000576019287109375
ell 148, elapsed: 0.0006549358367919922
ell 127, elapsed: 0.001577138900756836
ell 126, elapsed: 0.0005259513854980469
ell 125, elapsed: 0.0005128383636474609
ell 124, elapsed: 0.0005800724029541016
ell 123, elapsed: 0.0005168914794921875
ell 114, elapsed: 0.000946044921875
ell 113, elapsed: 0.0005249977111816406
ell 112, elapsed: 0.0005030632019042969
ell 111, elapsed: 0.0005698204040527344
ell 110, elapsed: 0.0005128383636474609
ell 102, elapsed: 0.0009660720825195312
ell 101, elapsed: 0.0005052089691162109
ell 100, elapsed: 0.0005030632019042969
ell 99, elapsed: 0.0005280971527099609
ell 98, elapsed: 0.0005729198455810547
ell 97, elapsed: 0.0006029605865478516
ell 96, elapsed: 0.0006811618804931641
ell 95, elapsed: 0.0005590915679931641
ell 94, elapsed: 0.0006251335144042969
ell 93, elapsed: 0.0006039142608642578
ell 92, elapsed: 0.0006170272827148438
ell 91, elapsed: 0.0006110668182373047
ell 90, elapsed: 0.0006380081176757812
ell 89, elapsed: 0.0005619525909423828
ell 88, elapsed: 0.0006809234619140625
ell 87, elapsed: 0.0005519390106201172
ell 86, elapsed: 0.0006239414215087891
ell 85, elapsed: 0.0005450248718261719
ell 84, elapsed: 0.0006039142608642578
ell 83, elapsed: 0.0006299018859863281
ell 82, elapsed: 0.0006060600280761719
ell 81, elapsed: 0.0005619525909423828
ell 80, elapsed: 0.0006198883056640625
ell 79, elapsed: 0.0005600452423095703
ell 78, elapsed: 0.0006699562072753906
ell 77, elapsed: 0.0006279945373535156
ell 76, elapsed: 0.0006089210510253906
ell 75, elapsed: 0.0005600452423095703
ell 74, elapsed: 0.0006728172302246094
ell 73, elapsed: 0.0006809234619140625
ell 72, elapsed: 0.0006601810455322266
ell 71, elapsed: 0.0005559921264648438
ell 70, elapsed: 0.0006539821624755859
ell 69, elapsed: 0.0006198883056640625
ell 68, elapsed: 0.0007178783416748047
ell 67, elapsed: 0.0005691051483154297
ell 66, elapsed: 0.0006120204925537109
ell 65, elapsed: 0.0005640983581542969
ell 64, elapsed: 0.0006139278411865234
ell 63, elapsed: 0.0005748271942138672
ell 62, elapsed: 0.0007121562957763672
ell 61, elapsed: 0.0005772113800048828
ell 60, elapsed: 0.0006220340728759766
ell 59, elapsed: 0.0005748271942138672
ell 58, elapsed: 0.0006299018859863281
ell 57, elapsed: 0.0005600452423095703
ell 56, elapsed: 0.0006630420684814453
ell 55, elapsed: 0.0005891323089599609
ell 54, elapsed: 0.0006649494171142578
ell 53, elapsed: 0.0006170272827148438
ell 52, elapsed: 0.0006330013275146484
ell 51, elapsed: 0.0006420612335205078
ell 50, elapsed: 0.0006291866302490234
ell 49, elapsed: 0.0006089210510253906
ell 48, elapsed: 0.0006480216979980469
ell 47, elapsed: 0.0005729198455810547
ell 46, elapsed: 0.0007190704345703125
ell 45, elapsed: 0.0006279945373535156
ell 44, elapsed: 0.0006630420684814453
ell 43, elapsed: 0.0006120204925537109
ell 42, elapsed: 0.0006279945373535156
ell 41, elapsed: 0.0006668567657470703
ell 40, elapsed: 0.0006699562072753906
ell 39, elapsed: 0.0006229877471923828
ell 38, elapsed: 0.0006580352783203125
ell 37, elapsed: 0.0005879402160644531
ell 36, elapsed: 0.0006918907165527344
ell 35, elapsed: 0.0006148815155029297
ell 34, elapsed: 0.0006721019744873047
ell 33, elapsed: 0.0006220340728759766
ell 32, elapsed: 0.0007410049438476562
ell 31, elapsed: 0.0006070137023925781
ell 30, elapsed: 0.0006711483001708984
ell 29, elapsed: 0.0006110668182373047
ell 28, elapsed: 0.0006849765777587891
ell 27, elapsed: 0.0005979537963867188
ell 26, elapsed: 0.0006380081176757812
ell 25, elapsed: 0.0005829334259033203
ell 24, elapsed: 0.0006420612335205078
ell 23, elapsed: 0.0005869865417480469
ell 22, elapsed: 0.0006549358367919922
ell 21, elapsed: 0.0005910396575927734
ell 20, elapsed: 0.0006711483001708984
ell 19, elapsed: 0.0005888938903808594
ell 18, elapsed: 0.0006442070007324219
ell 17, elapsed: 0.0006010532379150391
ell 16, elapsed: 0.0006730556488037109
ell 15, elapsed: 0.000598907470703125
ell 14, elapsed: 0.0006520748138427734
ell 13, elapsed: 0.0005888938903808594
ell 12, elapsed: 0.0005860328674316406
ell 11, elapsed: 0.0005462169647216797
ell 10, elapsed: 0.0005910396575927734
ell 9, elapsed: 0.0005409717559814453
ell 8, elapsed: 0.0005919933319091797
ell 7, elapsed: 0.0005400180816650391
ell 6, elapsed: 0.0006039142608642578
ell 5, elapsed: 0.0005340576171875
ell 4, elapsed: 0.0005900859832763672
ell 3, elapsed: 0.0005340576171875
ell 2, elapsed: 0.0005979537963867188
ell 1, elapsed: 0.0005438327789306641
ell 0, elapsed: 0.0005910396575927734
  3.692205 seconds (1.99 M allocations: 96.493 MiB, 1.44% gc time)
elapsed: 0.0006999969482421875
step:          0.807757 sec (567.741 k allocations: 27.705 MB, 3.12% gc time)
swapping:      0.000555 sec (0 allocations: 0 byte, 0.0% gc time)
calc_Mellell!: 0.673115 sec (376.752 k allocations: 18.553 MB, 0.0% gc time)
  t0 :  0.0 sec (0 allocations: 0 byte, 0.0% gc time)
  tm2 : 0.0 sec (0 allocations: 0 byte, 0.0% gc time)
  tm2s: 0.0 sec (0 allocations: 0 byte, 0.0% gc time)
  tm4 : 0.0 sec (0 allocations: 0 byte, 0.0% gc time)
  tp2 : 0.0 sec (0 allocations: 0 byte, 0.0% gc time)
  tp2s: 0.0 sec (0 allocations: 0 byte, 0.0% gc time)
  tp4 : 0.0 sec (0 allocations: 0 byte, 0.0% gc time)
calc_wtdll!:   1.354942 sec (525.864 k allocations: 26.377 MB, 2.06% gc time)
calc_wljj!:    0.003712 sec (6 allocations: 96 byte, 0.0% gc time)
mult_prefac!:  0.0 sec (0 allocations: 0 byte, 0.0% gc time)
convert:       0.0 sec (0 allocations: 0 byte, 0.0% gc time)
write:         0.003704 sec (0 allocations: 0 byte, 0.0% gc time)
test_rand_2f1: 0.0 sec (0 allocations: 0 byte, 0.0% gc time)
Closing outfile out/Ml21-cache.bin...   0.000088 seconds
  3.076794 seconds (850.46 k allocations: 81.436 MiB, 1.04% gc time)
make_phi():   0.043404 seconds (8.33 k allocations: 250.500 KiB)
  0.365973 seconds (177.84 k allocations: 11.489 MiB, 5.12% gc time)
tskip:       3.4e-5 sec (0 allocations: 0 byte, 0.0% gc time)
tread:       0.002834 sec (19 allocations: 2.172 KB, 0.0% gc time)
tmultphi:    0.070301 sec (26.022 k allocations: 1.338 MB, 26.65% gc time)
tbrfft:      0.081248 sec (57.044 k allocations: 5.628 MB, 0.0% gc time)
tmultprefac: 0.004961 sec (0 allocations: 0 byte, 0.0% gc time)
toutfunc:    0.206401 sec (94.103 k allocations: 4.451 MB, 0.0% gc time)
Testing R=1.1 ... passed
Calculating fmax: 
  dlrec    = 4
  dlrecRg1 = -4
  q=1.1, R=1.0:	  0.002101 seconds (4.00 k allocations: 300.375 KiB)

  0.002802 seconds (4.04 k allocations: 335.062 KiB)
ℓ = 1202
Δℓ = 4
ΔℓRg1 = -4
N = 1600
q = 1.1
kmin = 1.0e-5
kmax = 100000.00000000004
χ0 = 0.023029999999999995
RR = RR.tsv
ℓmax = ℓmax.bin
f21 = f21.bin
kmin = 1.0e-5
kmax = 100000.0
dlrec    = 4
dlrecRg1 = -4
Output size: 61465536 bytes = 0.05724424123764038 GiB
Output size: 51264 bytes = 4.774332046508789e-5 GiB
Reading 'out/F21EllCache'...   0.001002 seconds (267 allocations: 84.656 KiB)
ellmax: 1202
lmaxcache: 1202
fell[:,1,1] = Complex{Float64}[809.6031528389767 - 1.9829558194077161e-13im, 0.0 + 0.0im]
ell 1202, elapsed: 3.0040740966796875e-5
ell 1201, elapsed: 0.015709877014160156
ell 1200, elapsed: 0.0005640983581542969
ell 1199, elapsed: 0.0005578994750976562
ell 1198, elapsed: 0.0005950927734375
ell 1197, elapsed: 0.0007460117340087891
ell 1196, elapsed: 0.0004930496215820312
ell 1195, elapsed: 0.0005819797515869141
ell 1194, elapsed: 0.00061798095703125
ell 1193, elapsed: 0.0007059574127197266
ell 1192, elapsed: 0.0006129741668701172
ell 1191, elapsed: 0.0007278919219970703
ell 1190, elapsed: 0.0006189346313476562
ell 1189, elapsed: 0.0007081031799316406
ell 1188, elapsed: 0.0006189346313476562
ell 1187, elapsed: 0.000720977783203125
ell 1186, elapsed: 0.0005459785461425781
ell 1185, elapsed: 0.0008070468902587891
ell 1184, elapsed: 0.0006091594696044922
ell 1183, elapsed: 0.0007748603820800781
ell 1182, elapsed: 0.0007679462432861328
ell 1181, elapsed: 0.0006959438323974609
ell 1180, elapsed: 0.0006151199340820312
ell 1179, elapsed: 0.0007920265197753906
ell 1178, elapsed: 0.0004918575286865234
ell 1177, elapsed: 0.0007531642913818359
ell 1176, elapsed: 0.0005199909210205078
ell 1175, elapsed: 0.0005600452423095703
ell 1174, elapsed: 0.0004868507385253906
ell 1173, elapsed: 0.000720977783203125
ell 1172, elapsed: 0.0005087852478027344
ell 1171, elapsed: 0.0005350112915039062
ell 1170, elapsed: 0.0006201267242431641
ell 1169, elapsed: 0.000782012939453125
ell 1168, elapsed: 0.00047898292541503906
ell 1167, elapsed: 0.0007288455963134766
ell 1166, elapsed: 0.0006279945373535156
ell 1165, elapsed: 0.0007250308990478516
ell 1164, elapsed: 0.0006310939788818359
ell 1163, elapsed: 0.0005218982696533203
ell 1162, elapsed: 0.00045299530029296875
ell 1161, elapsed: 0.0007450580596923828
ell 1160, elapsed: 0.0006780624389648438
ell 1159, elapsed: 0.0005810260772705078
ell 1158, elapsed: 0.00045800209045410156
ell 1157, elapsed: 0.0006480216979980469
ell 1156, elapsed: 0.0006048679351806641
ell 1155, elapsed: 0.0007529258728027344
ell 1154, elapsed: 0.000637054443359375
ell 1153, elapsed: 0.0004949569702148438
ell 1152, elapsed: 0.0006561279296875
ell 1151, elapsed: 0.0005409717559814453
ell 1150, elapsed: 0.0004680156707763672
ell 1149, elapsed: 0.0005309581756591797
ell 1148, elapsed: 0.0004639625549316406
ell 1147, elapsed: 0.0006289482116699219
ell 1146, elapsed: 0.0006549358367919922
ell 1145, elapsed: 0.0006108283996582031
ell 1144, elapsed: 0.0006568431854248047
ell 1143, elapsed: 0.0007619857788085938
ell 1142, elapsed: 0.0006289482116699219
ell 1141, elapsed: 0.000720977783203125
ell 1140, elapsed: 0.0004699230194091797
ell 1139, elapsed: 0.0007419586181640625
ell 1138, elapsed: 0.0006680488586425781
ell 1137, elapsed: 0.0007860660552978516
ell 1136, elapsed: 0.0006899833679199219
ell 1135, elapsed: 0.0006070137023925781
ell 1134, elapsed: 0.0006451606750488281
ell 1133, elapsed: 0.0008029937744140625
ell 1132, elapsed: 0.0006780624389648438
ell 1131, elapsed: 0.0007951259613037109
ell 1130, elapsed: 0.0006170272827148438
ell 1129, elapsed: 0.0005919933319091797
ell 1128, elapsed: 0.00043320655822753906
ell 1127, elapsed: 0.0004899501800537109
ell 1126, elapsed: 0.00043201446533203125
ell 1125, elapsed: 0.0004980564117431641
ell 1124, elapsed: 0.00043487548828125
ell 1123, elapsed: 0.0005159378051757812
ell 1122, elapsed: 0.0006489753723144531
ell 1121, elapsed: 0.0005970001220703125
ell 1120, elapsed: 0.0006411075592041016
ell 1119, elapsed: 0.0008039474487304688
ell 1118, elapsed: 0.0007059574127197266
ell 1117, elapsed: 0.0007979869842529297
ell 1116, elapsed: 0.0006887912750244141
ell 1115, elapsed: 0.0007891654968261719
ell 1114, elapsed: 0.00046515464782714844
ell 1113, elapsed: 0.0004980564117431641
ell 1112, elapsed: 0.000659942626953125
ell 1111, elapsed: 0.000804901123046875
ell 1110, elapsed: 0.0004749298095703125
ell 1109, elapsed: 0.0007658004760742188
ell 1108, elapsed: 0.0005970001220703125
ell 1107, elapsed: 0.0005590915679931641
ell 1106, elapsed: 0.0006289482116699219
ell 1105, elapsed: 0.0005419254302978516
ell 1104, elapsed: 0.0004107952117919922
ell 1103, elapsed: 0.0004680156707763672
ell 1102, elapsed: 0.000431060791015625
ell 1101, elapsed: 0.0005290508270263672
ell 1100, elapsed: 0.00047516822814941406
ell 1099, elapsed: 0.0005500316619873047
ell 1098, elapsed: 0.00045800209045410156
ell 1097, elapsed: 0.0007040500640869141
ell 1096, elapsed: 0.000701904296875
ell 1095, elapsed: 0.0007920265197753906
ell 1094, elapsed: 0.0006968975067138672
ell 1093, elapsed: 0.0007669925689697266
ell 1092, elapsed: 0.0004489421844482422
ell 1091, elapsed: 0.0006909370422363281
ell 1090, elapsed: 0.0006151199340820312
ell 1089, elapsed: 0.0006651878356933594
ell 1088, elapsed: 0.0006921291351318359
ell 1087, elapsed: 0.0006601810455322266
ell 1086, elapsed: 0.000476837158203125
ell 1085, elapsed: 0.0006830692291259766
ell 1084, elapsed: 0.0003330707550048828
ell 1083, elapsed: 0.0003459453582763672
ell 1082, elapsed: 0.0002980232238769531
ell 1081, elapsed: 0.0003490447998046875
ell 1080, elapsed: 0.00029587745666503906
ell 1079, elapsed: 0.0003452301025390625
ell 1078, elapsed: 0.0002980232238769531
ell 1077, elapsed: 0.00034308433532714844
ell 1076, elapsed: 0.0002970695495605469
ell 1075, elapsed: 0.0003440380096435547
ell 1074, elapsed: 0.0003638267517089844
ell 1073, elapsed: 0.0005571842193603516
ell 1072, elapsed: 0.0006258487701416016
ell 1071, elapsed: 0.0005970001220703125
ell 1070, elapsed: 0.0005559921264648438
ell 1069, elapsed: 0.000720977783203125
ell 1068, elapsed: 0.0005140304565429688
ell 1067, elapsed: 0.0006461143493652344
ell 1066, elapsed: 0.000453948974609375
ell 1065, elapsed: 0.0006530284881591797
ell 1064, elapsed: 0.0004830360412597656
ell 1063, elapsed: 0.0005970001220703125
ell 1062, elapsed: 0.0006430149078369141
ell 1061, elapsed: 0.0006709098815917969
ell 1060, elapsed: 0.0004668235778808594
ell 1059, elapsed: 0.0005800724029541016
ell 1058, elapsed: 0.0005099773406982422
ell 1057, elapsed: 0.0004611015319824219
ell 1056, elapsed: 0.0005500316619873047
ell 1055, elapsed: 0.0005729198455810547
ell 1054, elapsed: 0.00041294097900390625
ell 1053, elapsed: 0.0004680156707763672
ell 1052, elapsed: 0.00048613548278808594
ell 1051, elapsed: 0.0007171630859375
ell 1050, elapsed: 0.0004830360412597656
ell 1049, elapsed: 0.00045418739318847656
ell 1048, elapsed: 0.0005900859832763672
ell 1047, elapsed: 0.0005359649658203125
ell 1046, elapsed: 0.0005941390991210938
ell 1045, elapsed: 0.0006349086761474609
ell 1044, elapsed: 0.0005819797515869141
ell 1043, elapsed: 0.0007219314575195312
ell 1042, elapsed: 0.0006361007690429688
ell 1041, elapsed: 0.000720977783203125
ell 1040, elapsed: 0.0005438327789306641
ell 1039, elapsed: 0.0006809234619140625
ell 1038, elapsed: 0.0005509853363037109
ell 1037, elapsed: 0.0006990432739257812
ell 1036, elapsed: 0.0005369186401367188
ell 1035, elapsed: 0.0006761550903320312
ell 1034, elapsed: 0.0005509853363037109
ell 1033, elapsed: 0.0006909370422363281
ell 1032, elapsed: 0.0005269050598144531
ell 1031, elapsed: 0.0006949901580810547
ell 1030, elapsed: 0.0006310939788818359
ell 1029, elapsed: 0.0007250308990478516
ell 1028, elapsed: 0.0006401538848876953
ell 1027, elapsed: 0.0007281303405761719
ell 1026, elapsed: 0.0006492137908935547
ell 1025, elapsed: 0.0007269382476806641
ell 1024, elapsed: 0.00047206878662109375
ell 1023, elapsed: 0.0004649162292480469
ell 1022, elapsed: 0.0005609989166259766
ell 1021, elapsed: 0.0006959438323974609
ell 1020, elapsed: 0.0005290508270263672
ell 1019, elapsed: 0.0006270408630371094
ell 1018, elapsed: 0.0006430149078369141
ell 1017, elapsed: 0.0007219314575195312
ell 1016, elapsed: 0.0006330013275146484
ell 1015, elapsed: 0.0007269382476806641
ell 1014, elapsed: 0.0005471706390380859
ell 1013, elapsed: 0.0006639957427978516
ell 1012, elapsed: 0.0006470680236816406
ell 1011, elapsed: 0.0007190704345703125
ell 1010, elapsed: 0.0006160736083984375
ell 1009, elapsed: 0.0005331039428710938
ell 1008, elapsed: 0.0005068778991699219
ell 1007, elapsed: 0.0007431507110595703
ell 1006, elapsed: 0.0006320476531982422
ell 1005, elapsed: 0.0006268024444580078
ell 1004, elapsed: 0.0005011558532714844
ell 1003, elapsed: 0.0007262229919433594
ell 1002, elapsed: 0.0005338191986083984
ell 1001, elapsed: 0.0005950927734375
ell 1000, elapsed: 0.0006399154663085938
ell 999, elapsed: 0.0007112026214599609
ell 998, elapsed: 0.0005581378936767578
ell 997, elapsed: 0.00047016143798828125
ell 996, elapsed: 0.0005869865417480469
ell 995, elapsed: 0.0006418228149414062
ell 994, elapsed: 0.0005280971527099609
ell 993, elapsed: 0.0007269382476806641
ell 992, elapsed: 0.0006430149078369141
ell 991, elapsed: 0.0005719661712646484
ell 990, elapsed: 0.0005638599395751953
ell 989, elapsed: 0.0005512237548828125
ell 988, elapsed: 0.0003829002380371094
ell 987, elapsed: 0.00045800209045410156
ell 986, elapsed: 0.0004038810729980469
ell 985, elapsed: 0.0006620883941650391
ell 984, elapsed: 0.0005261898040771484
ell 983, elapsed: 0.00045990943908691406
ell 982, elapsed: 0.0005421638488769531
ell 981, elapsed: 0.0006990432739257812
ell 980, elapsed: 0.0006189346313476562
ell 979, elapsed: 0.0005500316619873047
ell 978, elapsed: 0.0004990100860595703
ell 977, elapsed: 0.0006208419799804688
ell 976, elapsed: 0.00038695335388183594
ell 975, elapsed: 0.0006158351898193359
ell 974, elapsed: 0.0004680156707763672
ell 973, elapsed: 0.0006449222564697266
ell 972, elapsed: 0.000476837158203125
ell 971, elapsed: 0.0005640983581542969
ell 970, elapsed: 0.0006101131439208984
ell 969, elapsed: 0.0005691051483154297
ell 968, elapsed: 0.0004069805145263672
ell 967, elapsed: 0.0006349086761474609
ell 966, elapsed: 0.0006339550018310547
ell 965, elapsed: 0.0007050037384033203
ell 964, elapsed: 0.0006358623504638672
ell 963, elapsed: 0.0007309913635253906
ell 962, elapsed: 0.0006358623504638672
ell 961, elapsed: 0.0006508827209472656
ell 960, elapsed: 0.0005700588226318359
ell 959, elapsed: 0.0007231235504150391
ell 958, elapsed: 0.0006639957427978516
ell 957, elapsed: 0.0007271766662597656
ell 956, elapsed: 0.0006318092346191406
ell 955, elapsed: 0.0007169246673583984
ell 954, elapsed: 0.0006389617919921875
ell 953, elapsed: 0.0007050037384033203
ell 952, elapsed: 0.0004889965057373047
ell 951, elapsed: 0.0004799365997314453
ell 950, elapsed: 0.0003859996795654297
ell 949, elapsed: 0.0004470348358154297
ell 948, elapsed: 0.0005810260772705078
ell 947, elapsed: 0.00049591064453125
ell 946, elapsed: 0.00038504600524902344
ell 945, elapsed: 0.0004448890686035156
ell 944, elapsed: 0.00038504600524902344
ell 943, elapsed: 0.00047206878662109375
ell 942, elapsed: 0.0003910064697265625
ell 941, elapsed: 0.0004458427429199219
ell 940, elapsed: 0.0004119873046875
ell 939, elapsed: 0.00048089027404785156
ell 938, elapsed: 0.0004248619079589844
ell 937, elapsed: 0.0006411075592041016
ell 936, elapsed: 0.00048089027404785156
ell 935, elapsed: 0.0005140304565429688
ell 934, elapsed: 0.0005228519439697266
ell 933, elapsed: 0.0006239414215087891
ell 932, elapsed: 0.0004229545593261719
ell 931, elapsed: 0.00047016143798828125
ell 930, elapsed: 0.0004119873046875
ell 929, elapsed: 0.0004668235778808594
ell 928, elapsed: 0.0004138946533203125
ell 927, elapsed: 0.0004930496215820312
ell 926, elapsed: 0.0004150867462158203
ell 925, elapsed: 0.00047516822814941406
ell 924, elapsed: 0.0005321502685546875
ell 923, elapsed: 0.0006120204925537109
ell 922, elapsed: 0.0004119873046875
ell 921, elapsed: 0.00047397613525390625
ell 920, elapsed: 0.0004208087921142578
ell 919, elapsed: 0.0006108283996582031
ell 918, elapsed: 0.0005328655242919922
ell 917, elapsed: 0.0004851818084716797
ell 916, elapsed: 0.0004220008850097656
ell 915, elapsed: 0.0004830360412597656
ell 914, elapsed: 0.0004189014434814453
ell 913, elapsed: 0.00047898292541503906
ell 912, elapsed: 0.00043702125549316406
ell 911, elapsed: 0.000492095947265625
ell 910, elapsed: 0.0004150867462158203
ell 909, elapsed: 0.0004839897155761719
ell 908, elapsed: 0.00041484832763671875
ell 907, elapsed: 0.0004639625549316406
ell 906, elapsed: 0.000492095947265625
ell 905, elapsed: 0.0005769729614257812
ell 904, elapsed: 0.0005328655242919922
ell 903, elapsed: 0.0005750656127929688
ell 902, elapsed: 0.00047397613525390625
ell 901, elapsed: 0.00047707557678222656
ell 900, elapsed: 0.0004000663757324219
ell 899, elapsed: 0.0004658699035644531
ell 898, elapsed: 0.0003991127014160156
ell 897, elapsed: 0.0004630088806152344
ell 896, elapsed: 0.00042700767517089844
ell 895, elapsed: 0.0004649162292480469
ell 894, elapsed: 0.0004031658172607422
ell 893, elapsed: 0.0004620552062988281
ell 892, elapsed: 0.0004000663757324219
ell 891, elapsed: 0.0004649162292480469
ell 890, elapsed: 0.0003991127014160156
ell 889, elapsed: 0.0004658699035644531
ell 888, elapsed: 0.0004279613494873047
ell 887, elapsed: 0.0004899501800537109
ell 886, elapsed: 0.0004260540008544922
ell 885, elapsed: 0.00047898292541503906
ell 884, elapsed: 0.0004220008850097656
ell 883, elapsed: 0.0004780292510986328
ell 882, elapsed: 0.0004220008850097656
ell 881, elapsed: 0.0004839897155761719
ell 880, elapsed: 0.0004210472106933594
ell 879, elapsed: 0.0004889965057373047
ell 878, elapsed: 0.0004169940948486328
ell 877, elapsed: 0.0004611015319824219
ell 876, elapsed: 0.0003960132598876953
ell 875, elapsed: 0.00045609474182128906
ell 874, elapsed: 0.0003960132598876953
ell 873, elapsed: 0.00045800209045410156
ell 872, elapsed: 0.0003972053527832031
ell 871, elapsed: 0.0004818439483642578
ell 870, elapsed: 0.0004138946533203125
ell 869, elapsed: 0.0005910396575927734
ell 868, elapsed: 0.0005300045013427734
ell 867, elapsed: 0.00047898292541503906
ell 866, elapsed: 0.0004191398620605469
ell 865, elapsed: 0.0004780292510986328
ell 864, elapsed: 0.00041294097900390625
ell 863, elapsed: 0.0005421638488769531
ell 862, elapsed: 0.0004291534423828125
ell 861, elapsed: 0.00049591064453125
ell 860, elapsed: 0.0004298686981201172
ell 859, elapsed: 0.0004987716674804688
ell 858, elapsed: 0.00043392181396484375
ell 857, elapsed: 0.0004999637603759766
ell 856, elapsed: 0.0004210472106933594
ell 855, elapsed: 0.0006840229034423828
ell 854, elapsed: 0.0005369186401367188
ell 853, elapsed: 0.0006659030914306641
ell 852, elapsed: 0.0005509853363037109
ell 851, elapsed: 0.0006668567657470703
ell 850, elapsed: 0.0006361007690429688
ell 849, elapsed: 0.00074005126953125
ell 848, elapsed: 0.0006380081176757812
ell 847, elapsed: 0.0007231235504150391
ell 846, elapsed: 0.0006260871887207031
ell 845, elapsed: 0.0007240772247314453
ell 844, elapsed: 0.0006520748138427734
ell 843, elapsed: 0.0007200241088867188
ell 842, elapsed: 0.0006299018859863281
ell 841, elapsed: 0.000720977783203125
ell 840, elapsed: 0.0006289482116699219
ell 839, elapsed: 0.0007410049438476562
ell 838, elapsed: 0.0006349086761474609
ell 837, elapsed: 0.0007138252258300781
ell 836, elapsed: 0.0006361007690429688
ell 835, elapsed: 0.0005831718444824219
ell 834, elapsed: 0.0005450248718261719
ell 833, elapsed: 0.0006780624389648438
ell 832, elapsed: 0.000514984130859375
ell 831, elapsed: 0.0006780624389648438
ell 830, elapsed: 0.0005538463592529297
ell 829, elapsed: 0.0006878376007080078
ell 828, elapsed: 0.0005900859832763672
ell 827, elapsed: 0.0007140636444091797
ell 826, elapsed: 0.0006310939788818359
ell 825, elapsed: 0.0006270408630371094
ell 824, elapsed: 0.0004811286926269531
ell 823, elapsed: 0.0007050037384033203
ell 822, elapsed: 0.0006160736083984375
ell 821, elapsed: 0.0007040500640869141
ell 820, elapsed: 0.0006120204925537109
ell 819, elapsed: 0.0006971359252929688
ell 818, elapsed: 0.0006301403045654297
ell 817, elapsed: 0.0005550384521484375
ell 816, elapsed: 0.0005860328674316406
ell 815, elapsed: 0.0007278919219970703
ell 814, elapsed: 0.000637054443359375
ell 813, elapsed: 0.0007219314575195312
ell 812, elapsed: 0.0006361007690429688
ell 811, elapsed: 0.0007200241088867188
ell 810, elapsed: 0.000659942626953125
ell 809, elapsed: 0.0007090568542480469
ell 808, elapsed: 0.0006351470947265625
ell 807, elapsed: 0.0007212162017822266
ell 806, elapsed: 0.0006270408630371094
ell 805, elapsed: 0.0007200241088867188
ell 804, elapsed: 0.0006568431854248047
ell 803, elapsed: 0.0007212162017822266
ell 802, elapsed: 0.0006349086761474609
ell 801, elapsed: 0.0007178783416748047
ell 800, elapsed: 0.0006380081176757812
ell 799, elapsed: 0.0007309913635253906
ell 798, elapsed: 0.0006380081176757812
ell 797, elapsed: 0.0007169246673583984
ell 796, elapsed: 0.0006380081176757812
ell 795, elapsed: 0.0007128715515136719
ell 794, elapsed: 0.0006380081176757812
ell 793, elapsed: 0.0007348060607910156
ell 792, elapsed: 0.0006349086761474609
ell 791, elapsed: 0.0007200241088867188
ell 790, elapsed: 0.0006358623504638672
ell 789, elapsed: 0.0007081031799316406
ell 788, elapsed: 0.000640869140625
ell 787, elapsed: 0.0007190704345703125
ell 786, elapsed: 0.00045108795166015625
ell 785, elapsed: 0.0006098747253417969
ell 784, elapsed: 0.000492095947265625
ell 783, elapsed: 0.0005788803100585938
ell 782, elapsed: 0.0005090236663818359
ell 781, elapsed: 0.0005939006805419922
ell 780, elapsed: 0.0005290508270263672
ell 779, elapsed: 0.0006339550018310547
ell 778, elapsed: 0.0006108283996582031
ell 777, elapsed: 0.0006270408630371094
ell 776, elapsed: 0.0004911422729492188
ell 775, elapsed: 0.0007150173187255859
ell 774, elapsed: 0.0005290508270263672
ell 773, elapsed: 0.0006940364837646484
ell 772, elapsed: 0.0006120204925537109
ell 771, elapsed: 0.0005650520324707031
ell 770, elapsed: 0.0005590915679931641
ell 769, elapsed: 0.0005698204040527344
ell 768, elapsed: 0.0005178451538085938
ell 767, elapsed: 0.0007219314575195312
ell 766, elapsed: 0.0006170272827148438
ell 765, elapsed: 0.0007228851318359375
ell 764, elapsed: 0.0006489753723144531
ell 763, elapsed: 0.0007388591766357422
ell 762, elapsed: 0.0006442070007324219
ell 761, elapsed: 0.0007290840148925781
ell 760, elapsed: 0.0006220340728759766
ell 759, elapsed: 0.0007231235504150391
ell 758, elapsed: 0.0006401538848876953
ell 757, elapsed: 0.0007221698760986328
ell 756, elapsed: 0.000553131103515625
ell 755, elapsed: 0.0006461143493652344
ell 754, elapsed: 0.0005450248718261719
ell 753, elapsed: 0.0006198883056640625
ell 752, elapsed: 0.0005052089691162109
ell 751, elapsed: 0.0006821155548095703
ell 750, elapsed: 0.0006351470947265625
ell 749, elapsed: 0.0007300376892089844
ell 748, elapsed: 0.0006680488586425781
ell 747, elapsed: 0.0007269382476806641
ell 746, elapsed: 0.0005679130554199219
ell 745, elapsed: 0.0006480216979980469
ell 744, elapsed: 0.0006358623504638672
ell 743, elapsed: 0.0007171630859375
ell 742, elapsed: 0.0006661415100097656
ell 741, elapsed: 0.0007572174072265625
ell 740, elapsed: 0.0005700588226318359
ell 739, elapsed: 0.0007290840148925781
ell 738, elapsed: 0.0004849433898925781
ell 737, elapsed: 0.0006918907165527344
ell 736, elapsed: 0.0004818439483642578
ell 735, elapsed: 0.0007281303405761719
ell 734, elapsed: 0.0005838871002197266
ell 733, elapsed: 0.0007278919219970703
ell 732, elapsed: 0.0005879402160644531
ell 731, elapsed: 0.0007498264312744141
ell 730, elapsed: 0.0006341934204101562
ell 729, elapsed: 0.0007531642913818359
ell 728, elapsed: 0.0006361007690429688
ell 727, elapsed: 0.0006840229034423828
ell 726, elapsed: 0.0006310939788818359
ell 725, elapsed: 0.0007269382476806641
ell 724, elapsed: 0.0005698204040527344
ell 723, elapsed: 0.0007131099700927734
ell 722, elapsed: 0.0005500316619873047
ell 721, elapsed: 0.0006558895111083984
ell 720, elapsed: 0.000576019287109375
ell 719, elapsed: 0.0007448196411132812
ell 718, elapsed: 0.0006558895111083984
ell 717, elapsed: 0.0007379055023193359
ell 716, elapsed: 0.0006630420684814453
ell 715, elapsed: 0.0007309913635253906
ell 714, elapsed: 0.00048804283142089844
ell 713, elapsed: 0.0005807876586914062
ell 712, elapsed: 0.0006699562072753906
ell 711, elapsed: 0.0005481243133544922
ell 710, elapsed: 0.00044989585876464844
ell 709, elapsed: 0.0007169246673583984
ell 708, elapsed: 0.0006511211395263672
ell 707, elapsed: 0.0005400180816650391
ell 706, elapsed: 0.0005919933319091797
ell 705, elapsed: 0.0006821155548095703
ell 704, elapsed: 0.0006098747253417969
ell 703, elapsed: 0.0007178783416748047
ell 702, elapsed: 0.0006411075592041016
ell 701, elapsed: 0.0005590915679931641
ell 700, elapsed: 0.0006020069122314453
ell 699, elapsed: 0.0007040500640869141
ell 698, elapsed: 0.0005338191986083984
ell 697, elapsed: 0.0004589557647705078
ell 696, elapsed: 0.000453948974609375
ell 695, elapsed: 0.0007150173187255859
ell 694, elapsed: 0.0005140304565429688
ell 693, elapsed: 0.0006480216979980469
ell 692, elapsed: 0.0005621910095214844
ell 691, elapsed: 0.0005660057067871094
ell 690, elapsed: 0.0005590915679931641
ell 689, elapsed: 0.00044989585876464844
ell 688, elapsed: 0.00045990943908691406
ell 687, elapsed: 0.00067901611328125
ell 686, elapsed: 0.0006151199340820312
ell 685, elapsed: 0.0006129741668701172
ell 684, elapsed: 0.0004029273986816406
ell 683, elapsed: 0.0006461143493652344
ell 682, elapsed: 0.0005068778991699219
ell 681, elapsed: 0.000659942626953125
ell 680, elapsed: 0.0006160736083984375
ell 679, elapsed: 0.0007410049438476562
ell 678, elapsed: 0.0005679130554199219
ell 677, elapsed: 0.0007469654083251953
ell 676, elapsed: 0.0005750656127929688
ell 675, elapsed: 0.0006990432739257812
ell 674, elapsed: 0.0005140304565429688
ell 673, elapsed: 0.0006058216094970703
ell 672, elapsed: 0.0005109310150146484
ell 671, elapsed: 0.0006139278411865234
ell 670, elapsed: 0.0005841255187988281
ell 669, elapsed: 0.0006258487701416016
ell 668, elapsed: 0.0006580352783203125
ell 667, elapsed: 0.0007281303405761719
ell 666, elapsed: 0.0006709098815917969
ell 665, elapsed: 0.000720977783203125
ell 664, elapsed: 0.0005700588226318359
ell 663, elapsed: 0.0006570816040039062
ell 662, elapsed: 0.0005719661712646484
ell 661, elapsed: 0.0007250308990478516
ell 660, elapsed: 0.0005621910095214844
ell 659, elapsed: 0.0007469654083251953
ell 658, elapsed: 0.0004780292510986328
ell 657, elapsed: 0.0006279945373535156
ell 656, elapsed: 0.0005121231079101562
ell 655, elapsed: 0.0006480216979980469
ell 654, elapsed: 0.0006349086761474609
ell 653, elapsed: 0.0007419586181640625
ell 652, elapsed: 0.00047016143798828125
ell 651, elapsed: 0.0006198883056640625
ell 650, elapsed: 0.0006608963012695312
ell 649, elapsed: 0.0005741119384765625
ell 648, elapsed: 0.00047707557678222656
ell 647, elapsed: 0.0007269382476806641
ell 646, elapsed: 0.0006320476531982422
ell 645, elapsed: 0.0007338523864746094
ell 644, elapsed: 0.0005030632019042969
ell 643, elapsed: 0.0006518363952636719
ell 642, elapsed: 0.0004980564117431641
ell 641, elapsed: 0.0004570484161376953
ell 640, elapsed: 0.00039196014404296875
ell 639, elapsed: 0.0006608963012695312
ell 638, elapsed: 0.0006759166717529297
ell 637, elapsed: 0.0007221698760986328
ell 636, elapsed: 0.00045800209045410156
ell 635, elapsed: 0.00045490264892578125
ell 634, elapsed: 0.0005719661712646484
ell 633, elapsed: 0.0007379055023193359
ell 632, elapsed: 0.0006501674652099609
ell 631, elapsed: 0.0007331371307373047
ell 630, elapsed: 0.0005230903625488281
ell 629, elapsed: 0.0004611015319824219
ell 628, elapsed: 0.00047206878662109375
ell 627, elapsed: 0.0007240772247314453
ell 626, elapsed: 0.0005609989166259766
ell 625, elapsed: 0.0006668567657470703
ell 624, elapsed: 0.0006258487701416016
ell 623, elapsed: 0.0005428791046142578
ell 622, elapsed: 0.0003910064697265625
ell 621, elapsed: 0.0006139278411865234
ell 620, elapsed: 0.0006358623504638672
ell 619, elapsed: 0.0007410049438476562
ell 618, elapsed: 0.0006430149078369141
ell 617, elapsed: 0.0006208419799804688
ell 616, elapsed: 0.0005679130554199219
ell 615, elapsed: 0.0007190704345703125
ell 614, elapsed: 0.0004949569702148438
ell 613, elapsed: 0.0006818771362304688
ell 612, elapsed: 0.0006389617919921875
ell 611, elapsed: 0.0006129741668701172
ell 610, elapsed: 0.0005800724029541016
ell 609, elapsed: 0.0006010532379150391
ell 608, elapsed: 0.0005338191986083984
ell 607, elapsed: 0.0007340908050537109
ell 606, elapsed: 0.00048804283142089844
ell 605, elapsed: 0.0006680488586425781
ell 604, elapsed: 0.0006377696990966797
ell 603, elapsed: 0.0007219314575195312
ell 602, elapsed: 0.0005490779876708984
ell 601, elapsed: 0.0006549358367919922
ell 600, elapsed: 0.0006420612335205078
ell 599, elapsed: 0.0006020069122314453
ell 598, elapsed: 0.0004940032958984375
ell 597, elapsed: 0.0007269382476806641
ell 596, elapsed: 0.0006761550903320312
ell 595, elapsed: 0.0006041526794433594
ell 594, elapsed: 0.0005691051483154297
ell 593, elapsed: 0.0007300376892089844
ell 592, elapsed: 0.0005052089691162109
ell 591, elapsed: 0.0006730556488037109
ell 590, elapsed: 0.0006530284881591797
ell 589, elapsed: 0.0007250308990478516
ell 588, elapsed: 0.0005609989166259766
ell 587, elapsed: 0.0006439685821533203
ell 586, elapsed: 0.0005509853363037109
ell 585, elapsed: 0.000659942626953125
ell 584, elapsed: 0.0006520748138427734
ell 583, elapsed: 0.0007181167602539062
ell 582, elapsed: 0.0006430149078369141
ell 581, elapsed: 0.0006268024444580078
ell 580, elapsed: 0.0005218982696533203
ell 579, elapsed: 0.0007288455963134766
ell 578, elapsed: 0.0006530284881591797
ell 577, elapsed: 0.0007290840148925781
ell 576, elapsed: 0.00049591064453125
ell 575, elapsed: 0.0005881786346435547
ell 574, elapsed: 0.0006420612335205078
ell 573, elapsed: 0.0005609989166259766
ell 572, elapsed: 0.0005679130554199219
ell 571, elapsed: 0.0007219314575195312
ell 570, elapsed: 0.0005650520324707031
ell 569, elapsed: 0.0006330013275146484
ell 568, elapsed: 0.0006430149078369141
ell 567, elapsed: 0.0007309913635253906
ell 566, elapsed: 0.0006639957427978516
ell 565, elapsed: 0.0007190704345703125
ell 564, elapsed: 0.0006480216979980469
ell 563, elapsed: 0.0007269382476806641
ell 562, elapsed: 0.0005137920379638672
ell 561, elapsed: 0.0005769729614257812
ell 560, elapsed: 0.0006389617919921875
ell 559, elapsed: 0.0007328987121582031
ell 558, elapsed: 0.0005040168762207031
ell 557, elapsed: 0.00067901611328125
ell 556, elapsed: 0.0006439685821533203
ell 555, elapsed: 0.0007369518280029297
ell 554, elapsed: 0.0005218982696533203
ell 553, elapsed: 0.0006549358367919922
ell 552, elapsed: 0.0005638599395751953
ell 551, elapsed: 0.0006649494171142578
ell 550, elapsed: 0.0006418228149414062
ell 549, elapsed: 0.0007448196411132812
ell 548, elapsed: 0.000640869140625
ell 547, elapsed: 0.0007290840148925781
ell 546, elapsed: 0.0005009174346923828
ell 545, elapsed: 0.0004699230194091797
ell 544, elapsed: 0.0005910396575927734
ell 543, elapsed: 0.00074005126953125
ell 542, elapsed: 0.0006129741668701172
ell 541, elapsed: 0.0007429122924804688
ell 540, elapsed: 0.0005199909210205078
ell 539, elapsed: 0.0006668567657470703
ell 538, elapsed: 0.0006477832794189453
ell 537, elapsed: 0.0007448196411132812
ell 536, elapsed: 0.0005221366882324219
ell 535, elapsed: 0.0006101131439208984
ell 534, elapsed: 0.000640869140625
ell 533, elapsed: 0.0007250308990478516
ell 532, elapsed: 0.0005209445953369141
ell 531, elapsed: 0.0006859302520751953
ell 530, elapsed: 0.0005259513854980469
ell 529, elapsed: 0.0005939006805419922
ell 528, elapsed: 0.0006480216979980469
ell 527, elapsed: 0.0007328987121582031
ell 526, elapsed: 0.0006339550018310547
ell 525, elapsed: 0.000720977783203125
ell 524, elapsed: 0.0005230903625488281
ell 523, elapsed: 0.0006477832794189453
ell 522, elapsed: 0.0006430149078369141
ell 521, elapsed: 0.0007228851318359375
ell 520, elapsed: 0.0005478858947753906
ell 519, elapsed: 0.0006759166717529297
ell 518, elapsed: 0.0006427764892578125
ell 517, elapsed: 0.0005710124969482422
ell 516, elapsed: 0.0005359649658203125
ell 515, elapsed: 0.0007259845733642578
ell 514, elapsed: 0.0006711483001708984
ell 513, elapsed: 0.0005948543548583984
ell 512, elapsed: 0.0005519390106201172
ell 511, elapsed: 0.0007240772247314453
ell 510, elapsed: 0.0006558895111083984
ell 509, elapsed: 0.0005850791931152344
ell 508, elapsed: 0.0006279945373535156
ell 507, elapsed: 0.0007240772247314453
ell 506, elapsed: 0.0005290508270263672
ell 505, elapsed: 0.0006477832794189453
ell 504, elapsed: 0.0005321502685546875
ell 503, elapsed: 0.0006539821624755859
ell 502, elapsed: 0.0005230903625488281
ell 501, elapsed: 0.0006430149078369141
ell 500, elapsed: 0.0005970001220703125
ell 499, elapsed: 0.0006110668182373047
ell 498, elapsed: 0.0005741119384765625
ell 497, elapsed: 0.0007290840148925781
ell 496, elapsed: 0.0005319118499755859
ell 495, elapsed: 0.0006771087646484375
ell 494, elapsed: 0.0005459785461425781
ell 493, elapsed: 0.0006608963012695312
ell 492, elapsed: 0.0005419254302978516
ell 491, elapsed: 0.0006861686706542969
ell 490, elapsed: 0.0006620883941650391
ell 489, elapsed: 0.000701904296875
ell 488, elapsed: 0.0005288124084472656
ell 487, elapsed: 0.0006530284881591797
ell 486, elapsed: 0.0006299018859863281
ell 485, elapsed: 0.0006749629974365234
ell 484, elapsed: 0.0005218982696533203
ell 483, elapsed: 0.00061798095703125
ell 482, elapsed: 0.0006220340728759766
ell 481, elapsed: 0.0007021427154541016
ell 480, elapsed: 0.0006189346313476562
ell 479, elapsed: 0.0006990432739257812
ell 478, elapsed: 0.0006430149078369141
ell 477, elapsed: 0.0007050037384033203
ell 476, elapsed: 0.0005600452423095703
ell 475, elapsed: 0.0006880760192871094
ell 474, elapsed: 0.0005359649658203125
ell 473, elapsed: 0.0006499290466308594
ell 472, elapsed: 0.000553131103515625
ell 471, elapsed: 0.0006229877471923828
ell 470, elapsed: 0.0005331039428710938
ell 469, elapsed: 0.0006301403045654297
ell 468, elapsed: 0.0006260871887207031
ell 467, elapsed: 0.0007078647613525391
ell 466, elapsed: 0.0006380081176757812
ell 465, elapsed: 0.0006909370422363281
ell 464, elapsed: 0.0006129741668701172
ell 463, elapsed: 0.0006878376007080078
ell 462, elapsed: 0.0006139278411865234
ell 461, elapsed: 0.0006949901580810547
ell 460, elapsed: 0.0006530284881591797
ell 459, elapsed: 0.0007028579711914062
ell 458, elapsed: 0.0004930496215820312
ell 457, elapsed: 0.0006008148193359375
ell 456, elapsed: 0.0006170272827148438
ell 455, elapsed: 0.0007119178771972656
ell 454, elapsed: 0.0006129741668701172
ell 453, elapsed: 0.0006949901580810547
ell 452, elapsed: 0.0006139278411865234
ell 451, elapsed: 0.0006349086761474609
ell 450, elapsed: 0.0005421638488769531
ell 449, elapsed: 0.0007159709930419922
ell 448, elapsed: 0.0005710124969482422
ell 447, elapsed: 0.0006999969482421875
ell 446, elapsed: 0.0006229877471923828
ell 445, elapsed: 0.0006999969482421875
ell 444, elapsed: 0.0006170272827148438
ell 443, elapsed: 0.0007300376892089844
ell 442, elapsed: 0.0004830360412597656
ell 441, elapsed: 0.0006430149078369141
ell 440, elapsed: 0.0005469322204589844
ell 439, elapsed: 0.0006310939788818359
ell 438, elapsed: 0.00061798095703125
ell 437, elapsed: 0.0007560253143310547
ell 436, elapsed: 0.0005080699920654297
ell 435, elapsed: 0.0006279945373535156
ell 434, elapsed: 0.0005030632019042969
ell 433, elapsed: 0.0005998611450195312
ell 432, elapsed: 0.0006129741668701172
ell 431, elapsed: 0.0007328987121582031
ell 430, elapsed: 0.0006260871887207031
ell 429, elapsed: 0.0007119178771972656
ell 428, elapsed: 0.0006148815155029297
ell 427, elapsed: 0.0007040500640869141
ell 426, elapsed: 0.00048804283142089844
ell 425, elapsed: 0.0006709098815917969
ell 424, elapsed: 0.0004980564117431641
ell 423, elapsed: 0.0006389617919921875
ell 422, elapsed: 0.0006132125854492188
ell 421, elapsed: 0.0006930828094482422
ell 420, elapsed: 0.0006170272827148438
ell 419, elapsed: 0.0007340908050537109
ell 418, elapsed: 0.0006117820739746094
ell 417, elapsed: 0.0006990432739257812
ell 416, elapsed: 0.0006039142608642578
ell 415, elapsed: 0.0006849765777587891
ell 414, elapsed: 0.0006120204925537109
ell 413, elapsed: 0.0006210803985595703
ell 412, elapsed: 0.0005619525909423828
ell 411, elapsed: 0.0006971359252929688
ell 410, elapsed: 0.0006132125854492188
ell 409, elapsed: 0.0007009506225585938
ell 408, elapsed: 0.0006148815155029297
ell 407, elapsed: 0.0007359981536865234
ell 406, elapsed: 0.0006198883056640625
ell 405, elapsed: 0.0006968975067138672
ell 404, elapsed: 0.0005481243133544922
ell 403, elapsed: 0.0006549358367919922
ell 402, elapsed: 0.0006220340728759766
ell 401, elapsed: 0.0007319450378417969
ell 400, elapsed: 0.0005061626434326172
ell 399, elapsed: 0.0006468296051025391
ell 398, elapsed: 0.0006220340728759766
ell 397, elapsed: 0.0006871223449707031
ell 396, elapsed: 0.0006182193756103516
ell 395, elapsed: 0.0006849765777587891
ell 394, elapsed: 0.00061798095703125
ell 393, elapsed: 0.0006110668182373047
ell 392, elapsed: 0.0005700588226318359
ell 391, elapsed: 0.0006899833679199219
ell 390, elapsed: 0.0007040500640869141
ell 389, elapsed: 0.0007050037384033203
ell 388, elapsed: 0.0006110668182373047
ell 387, elapsed: 0.0006999969482421875
ell 386, elapsed: 0.0006151199340820312
ell 385, elapsed: 0.000698089599609375
ell 384, elapsed: 0.0006470680236816406
ell 383, elapsed: 0.0006990432739257812
ell 382, elapsed: 0.0006151199340820312
ell 381, elapsed: 0.0006358623504638672
ell 380, elapsed: 0.00037598609924316406
ell 379, elapsed: 0.0004429817199707031
ell 378, elapsed: 0.0005948543548583984
ell 377, elapsed: 0.0007021427154541016
ell 376, elapsed: 0.0006229877471923828
ell 375, elapsed: 0.0007109642028808594
ell 374, elapsed: 0.0004990100860595703
ell 373, elapsed: 0.0004360675811767578
ell 372, elapsed: 0.00037407875061035156
ell 371, elapsed: 0.0005958080291748047
ell 370, elapsed: 0.0004749298095703125
ell 369, elapsed: 0.0005710124969482422
ell 368, elapsed: 0.0004899501800537109
ell 367, elapsed: 0.0006399154663085938
ell 366, elapsed: 0.0005769729614257812
ell 365, elapsed: 0.000701904296875
ell 364, elapsed: 0.0006148815155029297
ell 363, elapsed: 0.0005590915679931641
ell 362, elapsed: 0.0005500316619873047
ell 361, elapsed: 0.0007040500640869141
ell 360, elapsed: 0.0006139278411865234
ell 359, elapsed: 0.000743865966796875
ell 358, elapsed: 0.0006289482116699219
ell 357, elapsed: 0.0007178783416748047
ell 356, elapsed: 0.00061798095703125
ell 355, elapsed: 0.0006909370422363281
ell 354, elapsed: 0.0004680156707763672
ell 353, elapsed: 0.00067901611328125
ell 352, elapsed: 0.0005979537963867188
ell 351, elapsed: 0.0006999969482421875
ell 350, elapsed: 0.00061798095703125
ell 349, elapsed: 0.0006918907165527344
ell 348, elapsed: 0.0006139278411865234
ell 347, elapsed: 0.0007350444793701172
ell 346, elapsed: 0.0006189346313476562
ell 345, elapsed: 0.0006921291351318359
ell 344, elapsed: 0.0006120204925537109
ell 343, elapsed: 0.0006990432739257812
ell 342, elapsed: 0.0006110668182373047
ell 341, elapsed: 0.0007290840148925781
ell 340, elapsed: 0.0006220340728759766
ell 339, elapsed: 0.0006721019744873047
ell 338, elapsed: 0.0005950927734375
ell 337, elapsed: 0.0006978511810302734
ell 336, elapsed: 0.0006558895111083984
ell 335, elapsed: 0.0007081031799316406
ell 334, elapsed: 0.0004820823669433594
ell 333, elapsed: 0.0006139278411865234
ell 332, elapsed: 0.0005939006805419922
ell 331, elapsed: 0.0005888938903808594
ell 330, elapsed: 0.0005488395690917969
ell 329, elapsed: 0.0006511211395263672
ell 328, elapsed: 0.00037598609924316406
ell 327, elapsed: 0.0005910396575927734
ell 326, elapsed: 0.0005960464477539062
ell 325, elapsed: 0.0006990432739257812
ell 324, elapsed: 0.0006051063537597656
ell 323, elapsed: 0.0007369518280029297
ell 322, elapsed: 0.0006220340728759766
ell 321, elapsed: 0.0007100105285644531
ell 320, elapsed: 0.0005259513854980469
ell 319, elapsed: 0.00044417381286621094
ell 318, elapsed: 0.0003750324249267578
ell 317, elapsed: 0.0007200241088867188
ell 316, elapsed: 0.0006270408630371094
ell 315, elapsed: 0.0007028579711914062
ell 314, elapsed: 0.0005359649658203125
ell 313, elapsed: 0.0006520748138427734
ell 312, elapsed: 0.0006239414215087891
ell 311, elapsed: 0.000720977783203125
ell 310, elapsed: 0.0006098747253417969
ell 309, elapsed: 0.0005819797515869141
ell 308, elapsed: 0.00036978721618652344
ell 307, elapsed: 0.0005731582641601562
ell 306, elapsed: 0.0005948543548583984
ell 305, elapsed: 0.0006699562072753906
ell 304, elapsed: 0.0006320476531982422
ell 303, elapsed: 0.0006949901580810547
ell 302, elapsed: 0.0006229877471923828
ell 301, elapsed: 0.0006959438323974609
ell 300, elapsed: 0.000576019287109375
ell 299, elapsed: 0.0006949901580810547
ell 298, elapsed: 0.0005118846893310547
ell 297, elapsed: 0.0006191730499267578
ell 296, elapsed: 0.00045800209045410156
ell 295, elapsed: 0.0006859302520751953
ell 294, elapsed: 0.0005970001220703125
ell 293, elapsed: 0.0006711483001708984
ell 292, elapsed: 0.00047707557678222656
ell 291, elapsed: 0.0005381107330322266
ell 290, elapsed: 0.0006070137023925781
ell 289, elapsed: 0.0006759166717529297
ell 288, elapsed: 0.00043010711669921875
ell 287, elapsed: 0.0005769729614257812
ell 286, elapsed: 0.0006258487701416016
ell 285, elapsed: 0.0005390644073486328
ell 284, elapsed: 0.00039196014404296875
ell 283, elapsed: 0.0006239414215087891
ell 282, elapsed: 0.0005221366882324219
ell 281, elapsed: 0.0007140636444091797
ell 280, elapsed: 0.0006048679351806641
ell 279, elapsed: 0.0005910396575927734
ell 278, elapsed: 0.0004639625549316406
ell 277, elapsed: 0.0006809234619140625
ell 276, elapsed: 0.0005848407745361328
ell 275, elapsed: 0.0005788803100585938
ell 274, elapsed: 0.0005080699920654297
ell 273, elapsed: 0.0007288455963134766
ell 272, elapsed: 0.0006659030914306641
ell 271, elapsed: 0.0007860660552978516
ell 270, elapsed: 0.0006849765777587891
ell 269, elapsed: 0.0007789134979248047
ell 268, elapsed: 0.000698089599609375
ell 267, elapsed: 0.0007269382476806641
ell 266, elapsed: 0.0006330013275146484
ell 265, elapsed: 0.0007500648498535156
ell 264, elapsed: 0.0006289482116699219
ell 263, elapsed: 0.0005750656127929688
ell 262, elapsed: 0.0003960132598876953
ell 261, elapsed: 0.0006520748138427734
ell 260, elapsed: 0.0005998611450195312
ell 259, elapsed: 0.0007081031799316406
ell 258, elapsed: 0.0006010532379150391
ell 257, elapsed: 0.0006999969482421875
ell 256, elapsed: 0.0006330013275146484
ell 255, elapsed: 0.0006961822509765625
ell 254, elapsed: 0.0004761219024658203
ell 253, elapsed: 0.0004410743713378906
ell 252, elapsed: 0.0005099773406982422
ell 251, elapsed: 0.0007078647613525391
ell 250, elapsed: 0.0006310939788818359
ell 249, elapsed: 0.0007030963897705078
ell 248, elapsed: 0.0006129741668701172
ell 247, elapsed: 0.0006990432739257812
ell 246, elapsed: 0.0006089210510253906
ell 245, elapsed: 0.0006949901580810547
ell 244, elapsed: 0.0006341934204101562
ell 243, elapsed: 0.0006871223449707031
ell 242, elapsed: 0.0006151199340820312
ell 241, elapsed: 0.0006849765777587891
ell 240, elapsed: 0.0006139278411865234
ell 239, elapsed: 0.0006999969482421875
ell 238, elapsed: 0.0006229877471923828
ell 237, elapsed: 0.0007009506225585938
ell 236, elapsed: 0.0006129741668701172
ell 235, elapsed: 0.0006961822509765625
ell 234, elapsed: 0.0006129741668701172
ell 233, elapsed: 0.0006878376007080078
ell 232, elapsed: 0.0005891323089599609
ell 231, elapsed: 0.0006871223449707031
ell 230, elapsed: 0.0005428791046142578
ell 229, elapsed: 0.0005781650543212891
ell 228, elapsed: 0.0006082057952880859
ell 227, elapsed: 0.0007090568542480469
ell 226, elapsed: 0.0004818439483642578
ell 225, elapsed: 0.0006630420684814453
ell 224, elapsed: 0.0006208419799804688
ell 223, elapsed: 0.0007059574127197266
ell 222, elapsed: 0.00047206878662109375
ell 221, elapsed: 0.00043511390686035156
ell 220, elapsed: 0.0003809928894042969
ell 219, elapsed: 0.00043082237243652344
ell 218, elapsed: 0.00038909912109375
ell 217, elapsed: 0.0006489753723144531
ell 216, elapsed: 0.0006101131439208984
ell 215, elapsed: 0.0006999969482421875
ell 214, elapsed: 0.0006139278411865234
ell 213, elapsed: 0.0006568431854248047
ell 212, elapsed: 0.0003809928894042969
ell 211, elapsed: 0.0005731582641601562
ell 210, elapsed: 0.0005979537963867188
ell 209, elapsed: 0.0005311965942382812
ell 208, elapsed: 0.0005159378051757812
ell 207, elapsed: 0.0007050037384033203
ell 206, elapsed: 0.0005209445953369141
ell 205, elapsed: 0.0006339550018310547
ell 204, elapsed: 0.0006070137023925781
ell 203, elapsed: 0.0007021427154541016
ell 202, elapsed: 0.0006058216094970703
ell 201, elapsed: 0.0006558895111083984
ell 200, elapsed: 0.00037598609924316406
ell 199, elapsed: 0.00043082237243652344
ell 198, elapsed: 0.0005080699920654297
ell 197, elapsed: 0.0006039142608642578
ell 196, elapsed: 0.0005631446838378906
ell 195, elapsed: 0.0005390644073486328
ell 194, elapsed: 0.0006508827209472656
ell 193, elapsed: 0.0007050037384033203
ell 192, elapsed: 0.0006160736083984375
ell 191, elapsed: 0.0006959438323974609
ell 190, elapsed: 0.0005970001220703125
ell 189, elapsed: 0.0007088184356689453
ell 188, elapsed: 0.0005660057067871094
ell 187, elapsed: 0.00043201446533203125
ell 186, elapsed: 0.00038504600524902344
ell 185, elapsed: 0.0006129741668701172
ell 184, elapsed: 0.0006151199340820312
ell 183, elapsed: 0.0006899833679199219
ell 182, elapsed: 0.000476837158203125
ell 181, elapsed: 0.0006711483001708984
ell 180, elapsed: 0.0004448890686035156
ell 179, elapsed: 0.0004317760467529297
ell 178, elapsed: 0.0005590915679931641
ell 177, elapsed: 0.000621795654296875
ell 176, elapsed: 0.0005221366882324219
ell 175, elapsed: 0.0005590915679931641
ell 174, elapsed: 0.0005950927734375
ell 173, elapsed: 0.0006999969482421875
ell 172, elapsed: 0.0006120204925537109
ell 171, elapsed: 0.0006990432739257812
ell 170, elapsed: 0.000614166259765625
ell 169, elapsed: 0.0007109642028808594
ell 168, elapsed: 0.0005180835723876953
ell 167, elapsed: 0.0004329681396484375
ell 166, elapsed: 0.0004520416259765625
ell 165, elapsed: 0.0006010532379150391
ell 164, elapsed: 0.0003769397735595703
ell 163, elapsed: 0.0004508495330810547
ell 162, elapsed: 0.00046706199645996094
ell 161, elapsed: 0.0007240772247314453
ell 160, elapsed: 0.0005018711090087891
ell 159, elapsed: 0.0005850791931152344
ell 158, elapsed: 0.0005979537963867188
ell 157, elapsed: 0.0005638599395751953
ell 156, elapsed: 0.0005309581756591797
ell 155, elapsed: 0.0007240772247314453
ell 154, elapsed: 0.0005998611450195312
ell 153, elapsed: 0.0006120204925537109
ell 152, elapsed: 0.0004949569702148438
ell 151, elapsed: 0.0006880760192871094
ell 150, elapsed: 0.0006060600280761719
ell 149, elapsed: 0.0006270408630371094
ell 148, elapsed: 0.0005469322204589844
ell 147, elapsed: 0.0006978511810302734
ell 146, elapsed: 0.0006110668182373047
ell 145, elapsed: 0.0005400180816650391
ell 144, elapsed: 0.0005559921264648438
ell 143, elapsed: 0.0007338523864746094
ell 142, elapsed: 0.0006561279296875
ell 141, elapsed: 0.0006508827209472656
ell 140, elapsed: 0.0006139278411865234
ell 139, elapsed: 0.0006968975067138672
ell 138, elapsed: 0.0006091594696044922
ell 137, elapsed: 0.0007328987121582031
ell 136, elapsed: 0.0006198883056640625
ell 135, elapsed: 0.0006878376007080078
ell 134, elapsed: 0.0006170272827148438
ell 133, elapsed: 0.0006949901580810547
ell 132, elapsed: 0.0006148815155029297
ell 131, elapsed: 0.0007407665252685547
ell 130, elapsed: 0.0006051063537597656
ell 129, elapsed: 0.0007011890411376953
ell 128, elapsed: 0.0006039142608642578
ell 127, elapsed: 0.0006949901580810547
ell 126, elapsed: 0.0006170272827148438
ell 125, elapsed: 0.0006170272827148438
ell 124, elapsed: 0.00036406517028808594
ell 123, elapsed: 0.00043082237243652344
ell 122, elapsed: 0.00036406517028808594
ell 121, elapsed: 0.00041985511779785156
ell 120, elapsed: 0.0003650188446044922
ell 119, elapsed: 0.00041604042053222656
ell 118, elapsed: 0.0003619194030761719
ell 117, elapsed: 0.0004291534423828125
ell 116, elapsed: 0.0003769397735595703
ell 115, elapsed: 0.00041985511779785156
ell 114, elapsed: 0.0003631114959716797
ell 113, elapsed: 0.00041985511779785156
ell 112, elapsed: 0.0003650188446044922
ell 111, elapsed: 0.0005590915679931641
ell 110, elapsed: 0.0005359649658203125
ell 109, elapsed: 0.0007050037384033203
ell 108, elapsed: 0.0004200935363769531
ell 107, elapsed: 0.0004649162292480469
ell 106, elapsed: 0.00041794776916503906
ell 105, elapsed: 0.0004780292510986328
ell 104, elapsed: 0.0004169940948486328
ell 103, elapsed: 0.0005409717559814453
ell 102, elapsed: 0.0005788803100585938
ell 101, elapsed: 0.0006780624389648438
ell 100, elapsed: 0.0006558895111083984
ell 99, elapsed: 0.0005288124084472656
ell 98, elapsed: 0.00055694580078125
ell 97, elapsed: 0.0006999969482421875
ell 96, elapsed: 0.0005290508270263672
ell 95, elapsed: 0.0006809234619140625
ell 94, elapsed: 0.0006461143493652344
ell 93, elapsed: 0.0005619525909423828
ell 92, elapsed: 0.0005130767822265625
ell 91, elapsed: 0.0006978511810302734
ell 90, elapsed: 0.0004742145538330078
ell 89, elapsed: 0.0004429817199707031
ell 88, elapsed: 0.0006499290466308594
ell 87, elapsed: 0.0007219314575195312
ell 86, elapsed: 0.00045609474182128906
ell 85, elapsed: 0.0005729198455810547
ell 84, elapsed: 0.0006330013275146484
ell 83, elapsed: 0.0006918907165527344
ell 82, elapsed: 0.0006620883941650391
ell 81, elapsed: 0.0007188320159912109
ell 80, elapsed: 0.0006198883056640625
ell 79, elapsed: 0.0006899833679199219
ell 78, elapsed: 0.0005049705505371094
ell 77, elapsed: 0.0004417896270751953
ell 76, elapsed: 0.0005788803100585938
ell 75, elapsed: 0.0005190372467041016
ell 74, elapsed: 0.0004589557647705078
ell 73, elapsed: 0.0007069110870361328
ell 72, elapsed: 0.0006270408630371094
ell 71, elapsed: 0.0006940364837646484
ell 70, elapsed: 0.0006389617919921875
ell 69, elapsed: 0.0007040500640869141
ell 68, elapsed: 0.000621795654296875
ell 67, elapsed: 0.0007069110870361328
ell 66, elapsed: 0.0006198883056640625
ell 65, elapsed: 0.0007090568542480469
ell 64, elapsed: 0.0006589889526367188
ell 63, elapsed: 0.0007050037384033203
ell 62, elapsed: 0.0006299018859863281
ell 61, elapsed: 0.0007081031799316406
ell 60, elapsed: 0.0006270408630371094
ell 59, elapsed: 0.0007381439208984375
ell 58, elapsed: 0.0006289482116699219
ell 57, elapsed: 0.0007138252258300781
ell 56, elapsed: 0.0006241798400878906
ell 55, elapsed: 0.0007128715515136719
ell 54, elapsed: 0.0006248950958251953
ell 53, elapsed: 0.0007460117340087891
ell 52, elapsed: 0.0006182193756103516
ell 51, elapsed: 0.0007021427154541016
ell 50, elapsed: 0.0006318092346191406
ell 49, elapsed: 0.0007081031799316406
ell 48, elapsed: 0.0006480216979980469
ell 47, elapsed: 0.0007100105285644531
ell 46, elapsed: 0.0006210803985595703
ell 45, elapsed: 0.0006978511810302734
ell 44, elapsed: 0.0006330013275146484
ell 43, elapsed: 0.0005350112915039062
ell 42, elapsed: 0.0004220008850097656
ell 41, elapsed: 0.0006330013275146484
ell 40, elapsed: 0.0005240440368652344
ell 39, elapsed: 0.00061798095703125
ell 38, elapsed: 0.0006260871887207031
ell 37, elapsed: 0.0007047653198242188
ell 36, elapsed: 0.0006508827209472656
ell 35, elapsed: 0.0007259845733642578
ell 34, elapsed: 0.0006251335144042969
ell 33, elapsed: 0.0007090568542480469
ell 32, elapsed: 0.0006201267242431641
ell 31, elapsed: 0.0007121562957763672
ell 30, elapsed: 0.0006489753723144531
ell 29, elapsed: 0.0006999969482421875
ell 28, elapsed: 0.0006239414215087891
ell 27, elapsed: 0.0007081031799316406
ell 26, elapsed: 0.0006239414215087891
ell 25, elapsed: 0.0007121562957763672
ell 24, elapsed: 0.0006380081176757812
ell 23, elapsed: 0.0007128715515136719
ell 22, elapsed: 0.0006318092346191406
ell 21, elapsed: 0.0006959438323974609
ell 20, elapsed: 0.0006210803985595703
ell 19, elapsed: 0.0007181167602539062
ell 18, elapsed: 0.0006258487701416016
ell 17, elapsed: 0.0007050037384033203
ell 16, elapsed: 0.0006279945373535156
ell 15, elapsed: 0.0007100105285644531
ell 14, elapsed: 0.00061798095703125
ell 13, elapsed: 0.0007219314575195312
ell 12, elapsed: 0.0006060600280761719
ell 11, elapsed: 0.0006909370422363281
ell 10, elapsed: 0.0006160736083984375
ell 9, elapsed: 0.0005950927734375
ell 8, elapsed: 0.0005438327789306641
ell 7, elapsed: 0.0006899833679199219
ell 6, elapsed: 0.000492095947265625
ell 5, elapsed: 0.0006210803985595703
ell 4, elapsed: 0.0005128383636474609
ell 3, elapsed: 0.0006308555603027344
ell 2, elapsed: 0.0006248950958251953
ell 1, elapsed: 0.0007469654083251953
ell 0, elapsed: 0.0006289482116699219
  0.812757 seconds (41.19 k allocations: 2.939 MiB)
elapsed: 0.0008451938629150391
step:          0.083268 sec (0 allocations: 0 byte, 0.0% gc time)
swapping:      0.001044 sec (0 allocations: 0 byte, 0.0% gc time)
calc_Mellell!: 0.014391 sec (0 allocations: 0 byte, 0.0% gc time)
  t0 :  0.003702 sec (0 allocations: 0 byte, 0.0% gc time)
  tm2 : 0.12694 sec (0 allocations: 0 byte, 0.0% gc time)
  tm2s: 0.002554 sec (0 allocations: 0 byte, 0.0% gc time)
  tm4 : 0.330145 sec (0 allocations: 0 byte, 0.0% gc time)
  tp2 : 0.0 sec (0 allocations: 0 byte, 0.0% gc time)
  tp2s: 1.9e-5 sec (0 allocations: 0 byte, 0.0% gc time)
  tp4 : 0.0 sec (0 allocations: 0 byte, 0.0% gc time)
calc_wtdll!:   0.483764 sec (9.87 k allocations: 1.043 MB, 0.0% gc time)
calc_wljj!:    0.05525 sec (689 allocations: 10.766 KB, 0.0% gc time)
mult_prefac!:  0.0 sec (0 allocations: 0 byte, 0.0% gc time)
convert:       0.0 sec (0 allocations: 0 byte, 0.0% gc time)
write:         0.053174 sec (0 allocations: 0 byte, 0.0% gc time)
test_rand_2f1: 0.0 sec (0 allocations: 0 byte, 0.0% gc time)
Closing outfile out/Ml21-cache.bin...   0.000040 seconds
  0.000676 seconds (52 allocations: 28.297 KiB)
make_phi():   0.002975 seconds (8.33 k allocations: 250.516 KiB)
  1.254531 seconds (747.22 k allocations: 63.434 MiB, 2.62% gc time)
tskip:       0.001053 sec (0 allocations: 0 byte, 0.0% gc time)
tread:       0.045206 sec (19 allocations: 10.688 KB, 0.0% gc time)
tmultphi:    0.014298 sec (0 allocations: 0 byte, 0.0% gc time)
tbrfft:      1.061395 sec (610.125 k allocations: 60.244 MB, 3.09% gc time)
tmultprefac: 0.049359 sec (0 allocations: 0 byte, 0.0% gc time)
toutfunc:    0.080609 sec (129.905 k allocations: 2.421 MB, 0.0% gc time)
Testing R=1.0 ... passed
Calculating fmax: 
  dlrec    = 4
  dlrecRg1 = -4
  q=1.1, R=0.9:	  0.501489 seconds (116.47 k allocations: 15.614 MiB)

  0.501918 seconds (116.50 k allocations: 15.647 MiB)
ℓ = 1202
Δℓ = 4
ΔℓRg1 = -4
N = 1600
q = 1.1
kmin = 1.0e-5
kmax = 100000.00000000004
χ0 = 0.023029999999999995
RR = RR.tsv
ℓmax = ℓmax.bin
f21 = f21.bin
kmin = 1.0e-5
kmax = 100000.0
dlrec    = 4
dlrecRg1 = -4
Output size: 5741568 bytes = 0.005347251892089844 GiB
Output size: 51264 bytes = 4.774332046508789e-5 GiB
Reading 'out/F21EllCache'...   0.001145 seconds (267 allocations: 84.656 KiB)
ellmax: 1202
lmaxcache: 1202
fell[:,1,1] = Complex{Float64}[1.3482014726274674e-57 - 3.302141236118086e-73im, 1.357860004724329e-57 - 3.3257978169518355e-73im]
ell 1202, elapsed: 0.00016617774963378906
ell 1201, elapsed: 0.0007619857788085938
ell 1200, elapsed: 0.0007700920104980469
ell 1199, elapsed: 0.0007469654083251953
ell 1198, elapsed: 0.0008001327514648438
ell 1002, elapsed: 0.010744094848632812
ell 1001, elapsed: 0.0007398128509521484
ell 1000, elapsed: 0.0007140636444091797
ell 999, elapsed: 0.0006999969482421875
ell 998, elapsed: 0.0007150173187255859
ell 902, elapsed: 0.005320072174072266
ell 901, elapsed: 0.0007078647613525391
ell 900, elapsed: 0.0006968975067138672
ell 899, elapsed: 0.0006339550018310547
ell 898, elapsed: 0.0006949901580810547
ell 802, elapsed: 0.005398988723754883
ell 801, elapsed: 0.0007190704345703125
ell 800, elapsed: 0.0006549358367919922
ell 799, elapsed: 0.0006918907165527344
ell 798, elapsed: 0.0008730888366699219
ell 702, elapsed: 0.005218982696533203
ell 701, elapsed: 0.0006978511810302734
ell 700, elapsed: 0.0007100105285644531
ell 699, elapsed: 0.0006871223449707031
ell 698, elapsed: 0.0006780624389648438
ell 602, elapsed: 0.005388021469116211
ell 601, elapsed: 0.0006778240203857422
ell 600, elapsed: 0.0006837844848632812
ell 599, elapsed: 0.0006861686706542969
ell 598, elapsed: 0.0006928443908691406
ell 502, elapsed: 0.005217075347900391
ell 501, elapsed: 0.0007271766662597656
ell 500, elapsed: 0.0007600784301757812
ell 499, elapsed: 0.0006949901580810547
ell 498, elapsed: 0.0007169246673583984
ell 402, elapsed: 0.005342006683349609
ell 401, elapsed: 0.0007050037384033203
ell 400, elapsed: 0.0007159709930419922
ell 399, elapsed: 0.0006780624389648438
ell 398, elapsed: 0.0006549358367919922
ell 302, elapsed: 0.005228996276855469
ell 301, elapsed: 0.0006887912750244141
ell 300, elapsed: 0.0006699562072753906
ell 299, elapsed: 0.0006380081176757812
ell 298, elapsed: 0.0006761550903320312
ell 202, elapsed: 0.00530695915222168
ell 201, elapsed: 0.0006930828094482422
ell 200, elapsed: 0.0006690025329589844
ell 199, elapsed: 0.0007009506225585938
ell 198, elapsed: 0.00061798095703125
ell 152, elapsed: 0.0029230117797851562
ell 151, elapsed: 0.0006940364837646484
ell 150, elapsed: 0.0006270408630371094
ell 149, elapsed: 0.0007050037384033203
ell 148, elapsed: 0.0006949901580810547
ell 127, elapsed: 0.001981973648071289
ell 126, elapsed: 0.0006990432739257812
ell 125, elapsed: 0.0006859302520751953
ell 124, elapsed: 0.0006809234619140625
ell 123, elapsed: 0.0006649494171142578
ell 114, elapsed: 0.0012400150299072266
ell 113, elapsed: 0.0006799697875976562
ell 112, elapsed: 0.0007090568542480469
ell 111, elapsed: 0.0007028579711914062
ell 110, elapsed: 0.0007300376892089844
ell 102, elapsed: 0.001341104507446289
ell 101, elapsed: 0.00067901611328125
ell 100, elapsed: 0.0006780624389648438
ell 99, elapsed: 0.0006859302520751953
ell 98, elapsed: 0.0007040500640869141
ell 97, elapsed: 0.0007269382476806641
ell 96, elapsed: 0.0008628368377685547
ell 95, elapsed: 0.0007011890411376953
ell 94, elapsed: 0.0008649826049804688
ell 93, elapsed: 0.000659942626953125
ell 92, elapsed: 0.0008699893951416016
ell 91, elapsed: 0.0007610321044921875
ell 90, elapsed: 0.0008511543273925781
ell 89, elapsed: 0.0006930828094482422
ell 88, elapsed: 0.0008528232574462891
ell 87, elapsed: 0.0005991458892822266
ell 86, elapsed: 0.0007121562957763672
ell 85, elapsed: 0.0006611347198486328
ell 84, elapsed: 0.0007269382476806641
ell 83, elapsed: 0.0006878376007080078
ell 82, elapsed: 0.0007951259613037109
ell 81, elapsed: 0.0006690025329589844
ell 80, elapsed: 0.0006070137023925781
ell 79, elapsed: 0.0005438327789306641
ell 78, elapsed: 0.0007112026214599609
ell 77, elapsed: 0.0006279945373535156
ell 76, elapsed: 0.0007078647613525391
ell 75, elapsed: 0.0006299018859863281
ell 74, elapsed: 0.0007319450378417969
ell 73, elapsed: 0.0006310939788818359
ell 72, elapsed: 0.0008080005645751953
ell 71, elapsed: 0.0006248950958251953
ell 70, elapsed: 0.0006229877471923828
ell 69, elapsed: 0.0006840229034423828
ell 68, elapsed: 0.0008568763732910156
ell 67, elapsed: 0.00067901611328125
ell 66, elapsed: 0.0009179115295410156
ell 65, elapsed: 0.0006690025329589844
ell 64, elapsed: 0.0007600784301757812
ell 63, elapsed: 0.0006668567657470703
ell 62, elapsed: 0.0007870197296142578
ell 61, elapsed: 0.0006520748138427734
ell 60, elapsed: 0.0007889270782470703
ell 59, elapsed: 0.00046706199645996094
ell 58, elapsed: 0.0005309581756591797
ell 57, elapsed: 0.0006921291351318359
ell 56, elapsed: 0.0007278919219970703
ell 55, elapsed: 0.0009660720825195312
ell 54, elapsed: 0.0007879734039306641
ell 53, elapsed: 0.0006818771362304688
ell 52, elapsed: 0.0007939338684082031
ell 51, elapsed: 0.0007429122924804688
ell 50, elapsed: 0.0006990432739257812
ell 49, elapsed: 0.0007040500640869141
ell 48, elapsed: 0.0008299350738525391
ell 47, elapsed: 0.0006999969482421875
ell 46, elapsed: 0.0007860660552978516
ell 45, elapsed: 0.0006530284881591797
ell 44, elapsed: 0.0007989406585693359
ell 43, elapsed: 0.0007529258728027344
ell 42, elapsed: 0.0007801055908203125
ell 41, elapsed: 0.0007560253143310547
ell 40, elapsed: 0.0007300376892089844
ell 39, elapsed: 0.0007300376892089844
ell 38, elapsed: 0.0008130073547363281
ell 37, elapsed: 0.0012989044189453125
ell 36, elapsed: 0.0008108615875244141
ell 35, elapsed: 0.0007128715515136719
ell 34, elapsed: 0.0006108283996582031
ell 33, elapsed: 0.0006508827209472656
ell 32, elapsed: 0.000579833984375
ell 31, elapsed: 0.0006618499755859375
ell 30, elapsed: 0.0007808208465576172
ell 29, elapsed: 0.0006749629974365234
ell 28, elapsed: 0.0007128715515136719
ell 27, elapsed: 0.0007300376892089844
ell 26, elapsed: 0.0006670951843261719
ell 25, elapsed: 0.0006690025329589844
ell 24, elapsed: 0.0007948875427246094
ell 23, elapsed: 0.0006999969482421875
ell 22, elapsed: 0.0007739067077636719
ell 21, elapsed: 0.00067901611328125
ell 20, elapsed: 0.0008251667022705078
ell 19, elapsed: 0.0007262229919433594
ell 18, elapsed: 0.000759124755859375
ell 17, elapsed: 0.0007050037384033203
ell 16, elapsed: 0.0005459785461425781
ell 15, elapsed: 0.0006680488586425781
ell 14, elapsed: 0.0008058547973632812
ell 13, elapsed: 0.0006968975067138672
ell 12, elapsed: 0.0007801055908203125
ell 11, elapsed: 0.0006628036499023438
ell 10, elapsed: 0.0007619857788085938
ell 9, elapsed: 0.0006799697875976562
ell 8, elapsed: 0.0007698535919189453
ell 7, elapsed: 0.0007410049438476562
ell 6, elapsed: 0.0008327960968017578
ell 5, elapsed: 0.00048089027404785156
ell 4, elapsed: 0.0007469654083251953
ell 3, elapsed: 0.0006730556488037109
ell 2, elapsed: 0.0007870197296142578
ell 1, elapsed: 0.0006508827209472656
ell 0, elapsed: 0.0008008480072021484
  0.228370 seconds (10.83 k allocations: 697.938 KiB)
elapsed: 0.0013811588287353516
step:          0.062123 sec (0 allocations: 0 byte, 0.0% gc time)
swapping:      0.000662 sec (0 allocations: 0 byte, 0.0% gc time)
calc_Mellell!: 0.002222 sec (0 allocations: 0 byte, 0.0% gc time)
  t0 :  0.000561 sec (0 allocations: 0 byte, 0.0% gc time)
  tm2 : 0.016653 sec (0 allocations: 0 byte, 0.0% gc time)
  tm2s: 0.000365 sec (0 allocations: 0 byte, 0.0% gc time)
  tm4 : 0.049877 sec (0 allocations: 0 byte, 0.0% gc time)
  tp2 : 0.0 sec (0 allocations: 0 byte, 0.0% gc time)
  tp2s: 0.0 sec (0 allocations: 0 byte, 0.0% gc time)
  tp4 : 0.0 sec (0 allocations: 0 byte, 0.0% gc time)
calc_wtdll!:   0.06842 sec (1.344 k allocations: 147.0 KB, 0.0% gc time)
calc_wljj!:    0.005989 sec (6 allocations: 96 byte, 0.0% gc time)
mult_prefac!:  0.0 sec (0 allocations: 0 byte, 0.0% gc time)
convert:       0.0 sec (0 allocations: 0 byte, 0.0% gc time)
write:         0.005579 sec (0 allocations: 0 byte, 0.0% gc time)
test_rand_2f1: 0.0 sec (0 allocations: 0 byte, 0.0% gc time)
Closing outfile out/Ml21-cache.bin...   0.000075 seconds
  0.000600 seconds (52 allocations: 28.297 KiB)
make_phi():   0.002915 seconds (8.33 k allocations: 250.469 KiB)
  0.122808 seconds (68.57 k allocations: 5.907 MiB)
tskip:       3.0e-5 sec (0 allocations: 0 byte, 0.0% gc time)
tread:       0.002799 sec (19 allocations: 2.172 KB, 0.0% gc time)
tmultphi:    0.001329 sec (0 allocations: 0 byte, 0.0% gc time)
tbrfft:      0.108855 sec (57.373 k allocations: 5.633 MB, 0.0% gc time)
tmultprefac: 0.00376 sec (0 allocations: 0 byte, 0.0% gc time)
toutfunc:    0.005935 sec (10.528 k allocations: 206.5 KB, 0.0% gc time)
Testing R=0.9 ... passed
Calculating fmax: 
  dlrec    = 4
  dlrecRg1 = -4
  q=1.1, R=0.8:	  0.483759 seconds (113.61 k allocations: 15.166 MiB)

  0.484248 seconds (113.65 k allocations: 15.200 MiB)
ℓ = 1202
Δℓ = 4
ΔℓRg1 = -4
N = 1600
q = 1.1
kmin = 1.0e-5
kmax = 100000.00000000004
χ0 = 0.023029999999999995
RR = RR.tsv
ℓmax = ℓmax.bin
f21 = f21.bin
kmin = 1.0e-5
kmax = 100000.0
dlrec    = 4
dlrecRg1 = -4
Output size: 5741568 bytes = 0.005347251892089844 GiB
Output size: 51264 bytes = 4.774332046508789e-5 GiB
Reading 'out/F21EllCache'...   0.000984 seconds (267 allocations: 84.656 KiB)
ellmax: 1202
lmaxcache: 1202
fell[:,1,1] = Complex{Float64}[7.519068145690986e-120 - 1.8416405474382574e-135im, 7.541664537386155e-120 - 1.847175067190611e-135im]
ell 1202, elapsed: 1.9073486328125e-5
ell 1201, elapsed: 0.0004401206970214844
ell 1200, elapsed: 0.00039505958557128906
ell 1199, elapsed: 0.0003981590270996094
ell 1198, elapsed: 0.0004000663757324219
ell 1002, elapsed: 0.011419057846069336
ell 1001, elapsed: 0.00037407875061035156
ell 1000, elapsed: 0.00035691261291503906
ell 999, elapsed: 0.0003590583801269531
ell 998, elapsed: 0.0020461082458496094
ell 902, elapsed: 0.0048999786376953125
ell 901, elapsed: 0.00037288665771484375
ell 900, elapsed: 0.0003578662872314453
ell 899, elapsed: 0.001974821090698242
ell 898, elapsed: 0.0003628730773925781
ell 802, elapsed: 0.004944801330566406
ell 801, elapsed: 0.0003719329833984375
ell 800, elapsed: 0.00035881996154785156
ell 799, elapsed: 0.0019888877868652344
ell 798, elapsed: 0.0005168914794921875
ell 702, elapsed: 0.0059490203857421875
ell 701, elapsed: 0.0004382133483886719
ell 700, elapsed: 0.00039696693420410156
ell 699, elapsed: 0.0004057884216308594
ell 698, elapsed: 0.00040602684020996094
ell 602, elapsed: 0.006136894226074219
ell 601, elapsed: 0.0007669925689697266
ell 600, elapsed: 0.00043582916259765625
ell 599, elapsed: 0.0006120204925537109
ell 598, elapsed: 0.0005431175231933594
ell 502, elapsed: 0.0052700042724609375
ell 501, elapsed: 0.0007338523864746094
ell 500, elapsed: 0.0005829334259033203
ell 499, elapsed: 0.0005679130554199219
ell 498, elapsed: 0.0006167888641357422
ell 402, elapsed: 0.006494998931884766
ell 401, elapsed: 0.0004439353942871094
ell 400, elapsed: 0.0004048347473144531
ell 399, elapsed: 0.0004000663757324219
ell 398, elapsed: 0.0006859302520751953
ell 302, elapsed: 0.005096912384033203
ell 301, elapsed: 0.0004029273986816406
ell 300, elapsed: 0.0004169940948486328
ell 299, elapsed: 0.0004150867462158203
ell 298, elapsed: 0.0004291534423828125
ell 202, elapsed: 0.005379199981689453
ell 201, elapsed: 0.00047206878662109375
ell 200, elapsed: 0.0003838539123535156
ell 199, elapsed: 0.0003819465637207031
ell 198, elapsed: 0.0003948211669921875
ell 152, elapsed: 0.002583026885986328
ell 151, elapsed: 0.0003662109375
ell 150, elapsed: 0.00035500526428222656
ell 149, elapsed: 0.0003559589385986328
ell 148, elapsed: 0.00038886070251464844
ell 127, elapsed: 0.001628875732421875
ell 126, elapsed: 0.00035881996154785156
ell 125, elapsed: 0.0003581047058105469
ell 124, elapsed: 0.0003559589385986328
ell 123, elapsed: 0.0003590583801269531
ell 114, elapsed: 0.0008370876312255859
ell 113, elapsed: 0.00035500526428222656
ell 112, elapsed: 0.0003559589385986328
ell 111, elapsed: 0.0003559589385986328
ell 110, elapsed: 0.0003578662872314453
ell 102, elapsed: 0.0008420944213867188
ell 101, elapsed: 0.0003578662872314453
ell 100, elapsed: 0.0003590583801269531
ell 99, elapsed: 0.00038909912109375
ell 98, elapsed: 0.00038504600524902344
ell 97, elapsed: 0.00043201446533203125
ell 96, elapsed: 0.0004978179931640625
ell 95, elapsed: 0.00041103363037109375
ell 94, elapsed: 0.0005030632019042969
ell 93, elapsed: 0.000415802001953125
ell 92, elapsed: 0.0005249977111816406
ell 91, elapsed: 0.0004401206970214844
ell 90, elapsed: 0.0005180835723876953
ell 89, elapsed: 0.0004589557647705078
ell 88, elapsed: 0.0005021095275878906
ell 87, elapsed: 0.00045800209045410156
ell 86, elapsed: 0.0005180835723876953
ell 85, elapsed: 0.00046706199645996094
ell 84, elapsed: 0.0005381107330322266
ell 83, elapsed: 0.0004711151123046875
ell 82, elapsed: 0.0005061626434326172
ell 81, elapsed: 0.0004420280456542969
ell 80, elapsed: 0.0005249977111816406
ell 79, elapsed: 0.0004620552062988281
ell 78, elapsed: 0.0005059242248535156
ell 77, elapsed: 0.0004570484161376953
ell 76, elapsed: 0.0005121231079101562
ell 75, elapsed: 0.00043892860412597656
ell 74, elapsed: 0.0004980564117431641
ell 73, elapsed: 0.0005118846893310547
ell 72, elapsed: 0.00055694580078125
ell 71, elapsed: 0.00045609474182128906
ell 70, elapsed: 0.00048613548278808594
ell 69, elapsed: 0.0004189014434814453
ell 68, elapsed: 0.0004909038543701172
ell 67, elapsed: 0.0004279613494873047
ell 66, elapsed: 0.0005009174346923828
ell 65, elapsed: 0.0004298686981201172
ell 64, elapsed: 0.0004839897155761719
ell 63, elapsed: 0.000431060791015625
ell 62, elapsed: 0.0004909038543701172
ell 61, elapsed: 0.00043010711669921875
ell 60, elapsed: 0.0004899501800537109
ell 59, elapsed: 0.00041985511779785156
ell 58, elapsed: 0.0005431175231933594
ell 57, elapsed: 0.0004570484161376953
ell 56, elapsed: 0.0005209445953369141
ell 55, elapsed: 0.00042700767517089844
ell 54, elapsed: 0.0004849433898925781
ell 53, elapsed: 0.0005459785461425781
ell 52, elapsed: 0.0006039142608642578
ell 51, elapsed: 0.00043582916259765625
ell 50, elapsed: 0.0005021095275878906
ell 49, elapsed: 0.00042510032653808594
ell 48, elapsed: 0.0004889965057373047
ell 47, elapsed: 0.0004279613494873047
ell 46, elapsed: 0.0004928112030029297
ell 45, elapsed: 0.00043082237243652344
ell 44, elapsed: 0.0005080699920654297
ell 43, elapsed: 0.00045609474182128906
ell 42, elapsed: 0.0005218982696533203
ell 41, elapsed: 0.00044798851013183594
ell 40, elapsed: 0.0004868507385253906
ell 39, elapsed: 0.0004279613494873047
ell 38, elapsed: 0.0004830360412597656
ell 37, elapsed: 0.0004398822784423828
ell 36, elapsed: 0.0004990100860595703
ell 35, elapsed: 0.00043010711669921875
ell 34, elapsed: 0.0004849433898925781
ell 33, elapsed: 0.00042700767517089844
ell 32, elapsed: 0.0004830360412597656
ell 31, elapsed: 0.00042510032653808594
ell 30, elapsed: 0.0004851818084716797
[...]
ell 782, elapsed: 0.0017621517181396484
ell 781, elapsed: 0.0008471012115478516
ell 780, elapsed: 0.0008170604705810547
ell 779, elapsed: 0.000823974609375
ell 778, elapsed: 0.0016851425170898438
ell 772, elapsed: 0.0017900466918945312
ell 771, elapsed: 0.0007760524749755859
ell 770, elapsed: 0.0017418861389160156
ell 769, elapsed: 0.0008351802825927734
ell 768, elapsed: 0.0008199214935302734
ell 762, elapsed: 0.0024199485778808594
ell 761, elapsed: 0.0008351802825927734
ell 760, elapsed: 0.0008280277252197266
ell 759, elapsed: 0.001725912094116211
ell 758, elapsed: 0.0008590221405029297
ell 752, elapsed: 0.0015339851379394531
ell 751, elapsed: 0.0017361640930175781
ell 750, elapsed: 0.0008370876312255859
ell 749, elapsed: 0.0008001327514648438
ell 748, elapsed: 0.0008437633514404297
ell 742, elapsed: 0.0015270709991455078
ell 741, elapsed: 0.0008118152618408203
ell 740, elapsed: 0.0008220672607421875
ell 739, elapsed: 0.002649068832397461
ell 738, elapsed: 0.0008578300476074219
ell 732, elapsed: 0.0018181800842285156
ell 731, elapsed: 0.0007860660552978516
ell 730, elapsed: 0.0008380413055419922
ell 729, elapsed: 0.0008168220520019531
ell 728, elapsed: 0.002749919891357422
ell 722, elapsed: 0.0017750263214111328
ell 721, elapsed: 0.0008080005645751953
ell 720, elapsed: 0.0008420944213867188
ell 719, elapsed: 0.0008308887481689453
ell 718, elapsed: 0.0008230209350585938
ell 712, elapsed: 0.0033140182495117188
ell 711, elapsed: 0.0007672309875488281
ell 710, elapsed: 0.0009100437164306641
ell 709, elapsed: 0.0008230209350585938
ell 708, elapsed: 0.0008230209350585938
ell 702, elapsed: 0.0033659934997558594
ell 701, elapsed: 0.0008418560028076172
ell 700, elapsed: 0.0008220672607421875
ell 699, elapsed: 0.0009160041809082031
ell 698, elapsed: 0.0008320808410644531
ell 692, elapsed: 0.0016739368438720703
ell 691, elapsed: 0.0007710456848144531
ell 690, elapsed: 0.0024750232696533203
ell 689, elapsed: 0.0008130073547363281
ell 688, elapsed: 0.0008311271667480469
ell 682, elapsed: 0.0016109943389892578
ell 681, elapsed: 0.0008349418640136719
ell 680, elapsed: 0.0008218288421630859
ell 679, elapsed: 0.002465963363647461
ell 678, elapsed: 0.0008380413055419922
ell 672, elapsed: 0.0017809867858886719
ell 671, elapsed: 0.0007569789886474609
ell 670, elapsed: 0.0008068084716796875
ell 669, elapsed: 0.0008058547973632812
ell 668, elapsed: 0.0024611949920654297
ell 662, elapsed: 0.001728057861328125
ell 661, elapsed: 0.0008399486541748047
ell 660, elapsed: 0.0008509159088134766
ell 659, elapsed: 0.0008139610290527344
ell 658, elapsed: 0.0007998943328857422
ell 652, elapsed: 0.0031890869140625
ell 651, elapsed: 0.0008258819580078125
ell 650, elapsed: 0.0008251667022705078
ell 649, elapsed: 0.0009050369262695312
ell 648, elapsed: 0.0008039474487304688
ell 642, elapsed: 0.0015478134155273438
ell 641, elapsed: 0.00251007080078125
ell 640, elapsed: 0.0008370876312255859
ell 639, elapsed: 0.0008499622344970703
ell 638, elapsed: 0.0009219646453857422
ell 632, elapsed: 0.001714944839477539
ell 631, elapsed: 0.0007750988006591797
ell 630, elapsed: 0.0008249282836914062
ell 629, elapsed: 0.0008549690246582031
ell 628, elapsed: 0.0008251667022705078
ell 622, elapsed: 0.0016269683837890625
ell 621, elapsed: 0.0008270740509033203
ell 620, elapsed: 0.0008749961853027344
ell 619, elapsed: 0.0008530616760253906
ell 618, elapsed: 0.0025730133056640625
ell 612, elapsed: 0.0015399456024169922
ell 611, elapsed: 0.0009560585021972656
ell 610, elapsed: 0.0008480548858642578
ell 609, elapsed: 0.0008509159088134766
ell 608, elapsed: 0.0008251667022705078
ell 602, elapsed: 0.003237009048461914
ell 601, elapsed: 0.0008440017700195312
ell 600, elapsed: 0.0009129047393798828
ell 599, elapsed: 0.0008401870727539062
ell 598, elapsed: 0.0008418560028076172
ell 592, elapsed: 0.0015549659729003906
ell 591, elapsed: 0.0024929046630859375
ell 590, elapsed: 0.0008368492126464844
ell 589, elapsed: 0.0009160041809082031
ell 588, elapsed: 0.0008478164672851562
ell 582, elapsed: 0.0015289783477783203
ell 581, elapsed: 0.0008280277252197266
ell 580, elapsed: 0.002521991729736328
ell 579, elapsed: 0.0008540153503417969
ell 578, elapsed: 0.0008349418640136719
ell 572, elapsed: 0.0015871524810791016
ell 571, elapsed: 0.0008029937744140625
ell 570, elapsed: 0.00080108642578125
ell 569, elapsed: 0.0024509429931640625
ell 568, elapsed: 0.0008599758148193359
ell 562, elapsed: 0.001580953598022461
ell 561, elapsed: 0.000865936279296875
ell 560, elapsed: 0.0008299350738525391
ell 559, elapsed: 0.0008320808410644531
ell 558, elapsed: 0.0008349418640136719
ell 552, elapsed: 0.0034339427947998047
ell 551, elapsed: 0.0008120536804199219
ell 550, elapsed: 0.0008380413055419922
ell 549, elapsed: 0.0007967948913574219
ell 548, elapsed: 0.0008058547973632812
ell 542, elapsed: 0.0031309127807617188
ell 541, elapsed: 0.0008380413055419922
ell 540, elapsed: 0.0008270740509033203
ell 539, elapsed: 0.0009241104125976562
ell 538, elapsed: 0.0008051395416259766
ell 532, elapsed: 0.0014960765838623047
ell 531, elapsed: 0.0008311271667480469
ell 530, elapsed: 0.0024650096893310547
ell 529, elapsed: 0.0008368492126464844
ell 528, elapsed: 0.0008440017700195312
ell 522, elapsed: 0.0017428398132324219
ell 521, elapsed: 0.0007548332214355469
ell 520, elapsed: 0.0009210109710693359
ell 519, elapsed: 0.0024449825286865234
ell 518, elapsed: 0.0008401870727539062
ell 512, elapsed: 0.0018851757049560547
ell 511, elapsed: 0.0008130073547363281
ell 510, elapsed: 0.0008268356323242188
ell 509, elapsed: 0.0008120536804199219
ell 508, elapsed: 0.002565145492553711
ell 502, elapsed: 0.001580953598022461
ell 501, elapsed: 0.02816009521484375
ell 500, elapsed: 0.0011458396911621094
ell 499, elapsed: 0.0008490085601806641
ell 498, elapsed: 0.0008461475372314453
ell 492, elapsed: 0.001589059829711914
ell 491, elapsed: 0.0008449554443359375
ell 490, elapsed: 0.0008480548858642578
ell 489, elapsed: 0.000843048095703125
ell 488, elapsed: 0.0012540817260742188
ell 482, elapsed: 0.0014989376068115234
ell 481, elapsed: 0.000823974609375
ell 480, elapsed: 0.0008649826049804688
ell 479, elapsed: 0.0009090900421142578
ell 478, elapsed: 0.0008988380432128906
ell 472, elapsed: 0.001882791519165039
ell 471, elapsed: 0.0009119510650634766
ell 470, elapsed: 0.0008881092071533203
ell 469, elapsed: 0.000888824462890625
ell 468, elapsed: 0.0008971691131591797
ell 462, elapsed: 0.0016930103302001953
ell 461, elapsed: 0.0009038448333740234
ell 460, elapsed: 0.0009088516235351562
ell 459, elapsed: 0.0009009838104248047
ell 458, elapsed: 0.0009710788726806641
ell 452, elapsed: 0.0017108917236328125
ell 451, elapsed: 0.0008609294891357422
ell 450, elapsed: 0.0008368492126464844
ell 449, elapsed: 0.0008959770202636719
ell 448, elapsed: 0.0009031295776367188
ell 442, elapsed: 0.0016880035400390625
ell 441, elapsed: 0.0009279251098632812
ell 440, elapsed: 0.0009169578552246094
ell 439, elapsed: 0.0008962154388427734
ell 438, elapsed: 0.000865936279296875
ell 432, elapsed: 0.0018918514251708984
ell 431, elapsed: 0.0008499622344970703
ell 430, elapsed: 0.0008988380432128906
ell 429, elapsed: 0.0009121894836425781
ell 428, elapsed: 0.0009090900421142578
ell 422, elapsed: 0.001798868179321289
ell 421, elapsed: 0.0008502006530761719
ell 420, elapsed: 0.0008978843688964844
ell 419, elapsed: 0.0009000301361083984
ell 418, elapsed: 0.0008940696716308594
ell 412, elapsed: 0.0018839836120605469
ell 411, elapsed: 0.0008120536804199219
ell 410, elapsed: 0.0009019374847412109
ell 409, elapsed: 0.0009021759033203125
ell 408, elapsed: 0.0009210109710693359
ell 402, elapsed: 0.0016970634460449219
ell 401, elapsed: 0.0009708404541015625
ell 400, elapsed: 0.001138925552368164
ell 399, elapsed: 0.0008587837219238281
ell 398, elapsed: 0.0008769035339355469
ell 392, elapsed: 0.0017538070678710938
ell 391, elapsed: 0.0009551048278808594
ell 390, elapsed: 0.0009448528289794922
ell 389, elapsed: 0.0009191036224365234
ell 388, elapsed: 0.0008859634399414062
ell 382, elapsed: 0.0017681121826171875
ell 381, elapsed: 0.0009579658508300781
ell 380, elapsed: 0.001062154769897461
ell 379, elapsed: 0.0010271072387695312
ell 378, elapsed: 0.0012099742889404297
ell 372, elapsed: 0.0016281604766845703
ell 371, elapsed: 0.0009529590606689453
ell 370, elapsed: 0.0009508132934570312
ell 369, elapsed: 0.0009069442749023438
ell 368, elapsed: 0.0008540153503417969
ell 362, elapsed: 0.0018458366394042969
ell 361, elapsed: 0.0008039474487304688
ell 360, elapsed: 0.0008420944213867188
ell 359, elapsed: 0.0008800029754638672
ell 358, elapsed: 0.0008440017700195312
ell 352, elapsed: 0.0018460750579833984
ell 351, elapsed: 0.000865936279296875
ell 350, elapsed: 0.0008289813995361328
ell 349, elapsed: 0.0008821487426757812
ell 348, elapsed: 0.000843048095703125
ell 342, elapsed: 0.0018160343170166016
ell 341, elapsed: 0.0007979869842529297
ell 340, elapsed: 0.0008380413055419922
ell 339, elapsed: 0.0008540153503417969
ell 338, elapsed: 0.000926971435546875
ell 332, elapsed: 0.0016939640045166016
ell 331, elapsed: 0.0009090900421142578
ell 330, elapsed: 0.0008540153503417969
ell 329, elapsed: 0.0008730888366699219
ell 328, elapsed: 0.0008378028869628906
ell 322, elapsed: 0.0018079280853271484
ell 321, elapsed: 0.0008289813995361328
ell 320, elapsed: 0.0009000301361083984
ell 319, elapsed: 0.0009062290191650391
ell 318, elapsed: 0.0008349418640136719
ell 312, elapsed: 0.0016779899597167969
ell 311, elapsed: 0.0008521080017089844
ell 310, elapsed: 0.0008471012115478516
ell 309, elapsed: 0.0008428096771240234
ell 308, elapsed: 0.000865936279296875
ell 302, elapsed: 0.001817941665649414
ell 301, elapsed: 0.0009098052978515625
ell 300, elapsed: 0.0009241104125976562
ell 299, elapsed: 0.0009019374847412109
ell 298, elapsed: 0.0008630752563476562
ell 292, elapsed: 0.0016369819641113281
ell 291, elapsed: 0.0009500980377197266
ell 290, elapsed: 0.000823974609375
ell 289, elapsed: 0.0008311271667480469
ell 288, elapsed: 0.0009019374847412109
ell 282, elapsed: 0.001964092254638672
ell 281, elapsed: 0.0007998943328857422
ell 280, elapsed: 0.0008420944213867188
ell 279, elapsed: 0.0008490085601806641
ell 278, elapsed: 0.0008819103240966797
ell 272, elapsed: 0.001840829849243164
ell 271, elapsed: 0.0008070468902587891
ell 270, elapsed: 0.0008409023284912109
ell 269, elapsed: 0.0008990764617919922
ell 268, elapsed: 0.0008969306945800781
ell 262, elapsed: 0.001692056655883789
ell 261, elapsed: 0.0008988380432128906
ell 260, elapsed: 0.0008978843688964844
ell 259, elapsed: 0.0008769035339355469
ell 258, elapsed: 0.0011670589447021484
ell 252, elapsed: 0.0017840862274169922
ell 251, elapsed: 0.0008180141448974609
ell 250, elapsed: 0.0008349418640136719
ell 249, elapsed: 0.0008699893951416016
ell 248, elapsed: 0.0008370876312255859
ell 242, elapsed: 0.0018301010131835938
ell 241, elapsed: 0.0008041858673095703
ell 240, elapsed: 0.0008349418640136719
ell 239, elapsed: 0.0007979869842529297
ell 238, elapsed: 0.0008780956268310547
ell 232, elapsed: 0.0019931793212890625
ell 231, elapsed: 0.0008471012115478516
ell 230, elapsed: 0.0008630752563476562
ell 229, elapsed: 0.0010609626770019531
ell 228, elapsed: 0.0008270740509033203
ell 222, elapsed: 0.0017540454864501953
ell 221, elapsed: 0.0007569789886474609
ell 220, elapsed: 0.0011088848114013672
ell 219, elapsed: 0.0008938312530517578
ell 218, elapsed: 0.0008909702301025391
ell 212, elapsed: 0.0016908645629882812
ell 211, elapsed: 0.00090789794921875
ell 210, elapsed: 0.0008971691131591797
ell 209, elapsed: 0.0008909702301025391
ell 208, elapsed: 0.0008950233459472656
ell 202, elapsed: 0.0016989707946777344
ell 201, elapsed: 0.0008919239044189453
ell 200, elapsed: 0.0008959770202636719
ell 199, elapsed: 0.0008878707885742188
ell 198, elapsed: 0.0009031295776367188
ell 192, elapsed: 0.0016548633575439453
ell 191, elapsed: 0.0008940696716308594
ell 190, elapsed: 0.0011780261993408203
ell 189, elapsed: 0.0008919239044189453
ell 188, elapsed: 0.0008938312530517578
ell 182, elapsed: 0.0016751289367675781
ell 181, elapsed: 0.0008969306945800781
ell 180, elapsed: 0.0008988380432128906
ell 179, elapsed: 0.0008940696716308594
ell 178, elapsed: 0.0008990764617919922
ell 172, elapsed: 0.0016810894012451172
ell 171, elapsed: 0.000904083251953125
ell 170, elapsed: 0.0008971691131591797
ell 169, elapsed: 0.0009088516235351562
ell 168, elapsed: 0.0009000301361083984
ell 162, elapsed: 0.0016939640045166016
ell 161, elapsed: 0.0009131431579589844
ell 160, elapsed: 0.0008959770202636719
ell 159, elapsed: 0.0008959770202636719
ell 158, elapsed: 0.0008981227874755859
ell 152, elapsed: 0.0016999244689941406
ell 151, elapsed: 0.0008938312530517578
ell 150, elapsed: 0.0008919239044189453
ell 149, elapsed: 0.0008900165557861328
ell 148, elapsed: 0.00090789794921875
ell 142, elapsed: 0.0018868446350097656
ell 141, elapsed: 0.0009059906005859375
ell 140, elapsed: 0.0009119510650634766
ell 139, elapsed: 0.0008950233459472656
ell 138, elapsed: 0.0009028911590576172
ell 132, elapsed: 0.0016720294952392578
ell 131, elapsed: 0.0009119510650634766
ell 130, elapsed: 0.0011639595031738281
ell 129, elapsed: 0.0009198188781738281
ell 128, elapsed: 0.0008969306945800781
ell 122, elapsed: 0.0016889572143554688
ell 121, elapsed: 0.0009009838104248047
ell 120, elapsed: 0.0008959770202636719
ell 119, elapsed: 0.0009200572967529297
ell 118, elapsed: 0.0008971691131591797
ell 112, elapsed: 0.0016620159149169922
ell 111, elapsed: 0.0009000301361083984
ell 110, elapsed: 0.0009129047393798828
ell 109, elapsed: 0.0008950233459472656
ell 108, elapsed: 0.0008900165557861328
ell 102, elapsed: 0.00168609619140625
ell 101, elapsed: 0.004452943801879883
ell 100, elapsed: 0.003511190414428711
ell 99, elapsed: 0.00467991828918457
ell 98, elapsed: 0.0034880638122558594
ell 92, elapsed: 0.006773948669433594
ell 91, elapsed: 0.004410982131958008
ell 90, elapsed: 0.003771066665649414
ell 89, elapsed: 0.0044040679931640625
ell 88, elapsed: 0.003484010696411133
ell 82, elapsed: 0.0056760311126708984
ell 81, elapsed: 0.0025010108947753906
ell 80, elapsed: 0.0024809837341308594
ell 79, elapsed: 0.002496957778930664
ell 78, elapsed: 0.002460956573486328
ell 72, elapsed: 0.006474971771240234
ell 71, elapsed: 0.0037689208984375
ell 70, elapsed: 0.003782033920288086
ell 69, elapsed: 0.0040280818939208984
ell 68, elapsed: 0.0034461021423339844
ell 62, elapsed: 0.006512880325317383
ell 61, elapsed: 0.004335165023803711
ell 60, elapsed: 0.003523111343383789
ell 59, elapsed: 0.003564119338989258
ell 58, elapsed: 0.0039370059967041016
ell 52, elapsed: 0.006548166275024414
ell 51, elapsed: 0.003537893295288086
ell 50, elapsed: 0.003522157669067383
ell 49, elapsed: 0.003777027130126953
ell 48, elapsed: 0.003751039505004883
ell 42, elapsed: 0.0066149234771728516
ell 41, elapsed: 0.0045719146728515625
ell 40, elapsed: 0.0038399696350097656
ell 39, elapsed: 0.0035228729248046875
ell 38, elapsed: 0.0038399696350097656
ell 32, elapsed: 0.006266117095947266
ell 31, elapsed: 0.002496004104614258
ell 30, elapsed: 0.0024847984313964844
ell 29, elapsed: 0.0031278133392333984
ell 28, elapsed: 0.003548145294189453
ell 22, elapsed: 0.006556034088134766
ell 21, elapsed: 0.0035419464111328125
ell 20, elapsed: 0.0035109519958496094
ell 19, elapsed: 0.003515958786010742
ell 18, elapsed: 0.0035169124603271484
ell 12, elapsed: 0.006456851959228516
ell 11, elapsed: 0.0034918785095214844
ell 10, elapsed: 0.003522157669067383
ell 9, elapsed: 0.0035219192504882812
ell 8, elapsed: 0.0035250186920166016
  0.872157 seconds (66.75 k allocations: 12.139 MiB, 3.11% gc time)
elapsed: 0.004287004470825195
step:          0.078291 sec (0 allocations: 0 byte, 0.0% gc time)
swapping:      0.000792 sec (0 allocations: 0 byte, 0.0% gc time)
calc_Mellell!: 0.041286 sec (0 allocations: 0 byte, 0.0% gc time)
  t0 :  0.011746 sec (0 allocations: 0 byte, 0.0% gc time)
  tm2 : 0.079774 sec (0 allocations: 0 byte, 0.0% gc time)
  tm2s: 0.008897 sec (0 allocations: 0 byte, 0.0% gc time)
  tm4 : 0.194178 sec (0 allocations: 0 byte, 0.0% gc time)
  tp2 : 0.0 sec (0 allocations: 0 byte, 0.0% gc time)
  tp2s: 0.0 sec (0 allocations: 0 byte, 0.0% gc time)
  tp4 : 0.0 sec (0 allocations: 0 byte, 0.0% gc time)
calc_wtdll!:   0.619642 sec (49.2 k allocations: 11.133 MB, 4.38% gc time)
calc_wljj!:    0.046362 sec (69 allocations: 1.078 KB, 0.0% gc time)
mult_prefac!:  0.0 sec (0 allocations: 0 byte, 0.0% gc time)
convert:       0.0 sec (0 allocations: 0 byte, 0.0% gc time)
write:         0.038514 sec (0 allocations: 0 byte, 0.0% gc time)
test_rand_2f1: 0.0 sec (0 allocations: 0 byte, 0.0% gc time)
Closing outfile out/MlCache/MlCache.bin...   0.000008 seconds
xi, l=0, nu=0:   0.402575 seconds (637.36 k allocations: 30.738 MiB, 3.98% gc time)
xi, l=0, nu=-2:  0.008784 seconds (415 allocations: 176.953 KiB)
Created 'out/xi.tsv'.
  q=1.1, R=0.6:	  0.743922 seconds (291.08 k allocations: 38.895 MiB, 1.68% gc time)
  q=1.1, R=0.7:	  0.932909 seconds (304.75 k allocations: 40.996 MiB, 2.90% gc time)
  q=1.1, R=0.8:	  0.883258 seconds (299.14 k allocations: 40.132 MiB)
  q=1.1, R=0.9:	  1.003544 seconds (293.57 k allocations: 39.286 MiB, 0.73% gc time)
  q=1.1, R=0.998:	 22.430704 seconds (10.67 M allocations: 823.453 MiB, 0.43% gc time)
  q=1.1, R=1.0:	  0.004289 seconds (10.24 k allocations: 768.375 KiB)

ℓ = 1000
Δℓ = 4
ΔℓRg1 = -4
N = 4096
q = 1.1
kmin = 1.0e-5
kmax = 1000.0
χ0 = 0.001
RR = RR.tsv
ℓmax = ℓmax.bin
f21 = f21.bin
kmin = 1.0e-5
kmax = 1000.0
dlrec    = 4
dlrecRg1 = -4
Output size: 1573632 bytes = 0.0014655590057373047 GiB
Output size: 786816 bytes = 0.0007327795028686523 GiB
Reading 'out/F21EllCache'...   0.001625 seconds (268 allocations: 533.531 KiB)
ellmax: 1002
lmaxcache: 1000
fell[:,1,1] = Complex{Float64}[1.7262928128202118e-224 - 4.2281979352226944e-240im, 1.7282693092099662e-224 - 4.233038955177176e-240im]
ell 1002, elapsed: 4.1961669921875e-5
ell 1001, elapsed: 0.0014188289642333984
ell 1000, elapsed: 0.0011332035064697266
ell 999, elapsed: 0.005812168121337891
ell 998, elapsed: 0.0055348873138427734
ell 44, elapsed: 0.6358509063720703
ell 43, elapsed: 0.007128000259399414
ell 42, elapsed: 0.007580995559692383
ell 41, elapsed: 0.007570981979370117
ell 40, elapsed: 0.007585048675537109
  0.689224 seconds (4.55 k allocations: 320.359 KiB)
elapsed: 0.008929014205932617
step:          0.632403 sec (0 allocations: 0 byte, 0.0% gc time)
swapping:      0.000659 sec (0 allocations: 0 byte, 0.0% gc time)
calc_Mellell!: 0.001494 sec (0 allocations: 0 byte, 0.0% gc time)
  t0 :  0.000882 sec (0 allocations: 0 byte, 0.0% gc time)
  tm2 : 0.011667 sec (0 allocations: 0 byte, 0.0% gc time)
  tm2s: 0.000706 sec (0 allocations: 0 byte, 0.0% gc time)
  tm4 : 0.033742 sec (0 allocations: 0 byte, 0.0% gc time)
  tp2 : 0.0 sec (0 allocations: 0 byte, 0.0% gc time)
  tp2s: 0.0 sec (0 allocations: 0 byte, 0.0% gc time)
  tp4 : 0.0 sec (0 allocations: 0 byte, 0.0% gc time)
calc_wtdll!:   0.047292 sec (480 allocations: 52.5 KB, 0.0% gc time)
calc_wljj!:    0.001481 sec (1 allocations: 16 byte, 0.0% gc time)
mult_prefac!:  0.0 sec (0 allocations: 0 byte, 0.0% gc time)
convert:       0.0 sec (0 allocations: 0 byte, 0.0% gc time)
write:         0.000866 sec (0 allocations: 0 byte, 0.0% gc time)
test_rand_2f1: 0.0 sec (0 allocations: 0 byte, 0.0% gc time)
Closing outfile out/MlCache/MlCache.bin...   0.000008 seconds
  1.667870 seconds (616.33 k allocations: 59.696 MiB, 2.13% gc time)
make_phi():   0.017521 seconds (224 allocations: 290.891 KiB)
  0.007083 seconds (8.92 k allocations: 921.984 KiB)
tskip:       1.0e-6 sec (0 allocations: 0 byte, 0.0% gc time)
tread:       0.000743 sec (19 allocations: 1.312 KB, 0.0% gc time)
tmultphi:    0.00041 sec (0 allocations: 0 byte, 0.0% gc time)
tbrfft:      0.004709 sec (8.907 k allocations: 920.672 KB, 0.0% gc time)
tmultprefac: 0.000952 sec (0 allocations: 0 byte, 0.0% gc time)
toutfunc:    0.000369 sec (0 allocations: 0 byte, 0.0% gc time)
Created 'out/wl42_jj00.tsv'.
Created 'out/wl42_jj02.tsv'.
    Testing TwoFAST tests passed 
