Julia Version 1.4.0-DEV.662
Commit ce498d65f8 (2019-12-25 11:44 UTC)
Platform Info:
  OS: Linux (x86_64-pc-linux-gnu)
  CPU: Intel(R) Xeon(R) Silver 4114 CPU @ 2.20GHz
  WORD_SIZE: 64
  LIBM: libopenlibm
  LLVM: libLLVM-8.0.1 (ORCJIT, skylake)
Environment:
  JULIA_DEPOT_PATH = ::/usr/local/share/julia

 Resolving package versions...
 Installed IncGammaBeta ───── v0.1.0
 Installed MKL_jll ────────── v2019.0.117+0
 Installed Reexport ───────── v0.2.0
 Installed AbstractFFTs ───── v0.5.0
 Installed FFTW ───────────── v1.2.0
 Installed SpecialFunctions ─ v0.8.0
 Installed BinaryProvider ─── v0.5.8
 Installed FFTW_jll ───────── v3.3.9+3
 Installed IntelOpenMP_jll ── v2018.0.3+0
 Installed BinDeps ────────── v1.0.0
 Installed URIParser ──────── v0.4.0
 Installed AbstractAlgebra ── v0.7.1
 Installed TwoFAST ────────── v0.1.0
 Installed Nemo ───────────── v0.15.1
  Updating `~/.julia/environments/v1.4/Project.toml`
  [0dd23c3e] + TwoFAST v0.1.0
  Updating `~/.julia/environments/v1.4/Manifest.toml`
  [c3fe647b] + AbstractAlgebra v0.7.1
  [621f4979] + AbstractFFTs v0.5.0
  [9e28174c] + BinDeps v1.0.0
  [b99e7846] + BinaryProvider v0.5.8
  [7a1cc6ca] + FFTW v1.2.0
  [f5851436] + FFTW_jll v3.3.9+3
  [5087d2c0] + IncGammaBeta v0.1.0
  [1d5cc7b8] + IntelOpenMP_jll v2018.0.3+0
  [856f044c] + MKL_jll v2019.0.117+0
  [2edaba10] + Nemo v0.15.1
  [189a3867] + Reexport v0.2.0
  [276daf66] + SpecialFunctions v0.8.0
  [0dd23c3e] + TwoFAST v0.1.0
  [30578b45] + URIParser v0.4.0
  [2a0f44e3] + Base64 
  [ade2ca70] + Dates 
  [8bb1440f] + DelimitedFiles 
  [8ba89e20] + Distributed 
  [b77e0a4c] + InteractiveUtils 
  [76f85450] + LibGit2 
  [8f399da3] + Libdl 
  [37e2e46d] + LinearAlgebra 
  [56ddb016] + Logging 
  [d6f4376e] + Markdown 
  [a63ad114] + Mmap 
  [44cfe95a] + Pkg 
  [de0858da] + Printf 
  [3fa0cd96] + REPL 
  [9a3f8284] + Random 
  [ea8e919c] + SHA 
  [9e88b42a] + Serialization 
  [6462fe0b] + Sockets 
  [2f01184e] + SparseArrays 
  [8dfed614] + Test 
  [cf7118a7] + UUIDs 
  [4ec0a83e] + Unicode 
  Building FFTW ────────────→ `~/.julia/packages/FFTW/qqcBj/deps/build.log`
  Updating `/tmp/jl_rUDmuS/Project.toml`
 [no changes]
  Updating `/tmp/jl_rUDmuS/Manifest.toml`
 [no changes]
  Building SpecialFunctions → `~/.julia/packages/SpecialFunctions/ne2iw/deps/build.log`
  Updating `/tmp/jl_sGhD6D/Project.toml`
 [no changes]
  Updating `/tmp/jl_sGhD6D/Manifest.toml`
 [no changes]
  Building Nemo ────────────→ `~/.julia/packages/Nemo/qzx0m/deps/build.log`
  Updating `/tmp/jl_ZCqOh3/Project.toml`
 [no changes]
  Updating `/tmp/jl_ZCqOh3/Manifest.toml`
 [no changes]
   Testing TwoFAST
 Installed Dierckx ─ v0.4.1
  Updating `/tmp/jl_2Q5LNe/Project.toml`
  [39dd38d3] + Dierckx v0.4.1
  Updating `/tmp/jl_2Q5LNe/Manifest.toml`
  [39dd38d3] + Dierckx v0.4.1
  Building Dierckx → `~/.julia/packages/Dierckx/9SY4A/deps/build.log`
  Updating `/tmp/jl_MxWKoE/Project.toml`
 [no changes]
  Updating `/tmp/jl_MxWKoE/Manifest.toml`
 [no changes]
Running sandbox
Status `/tmp/jl_2Q5LNe/Project.toml`
  [39dd38d3] Dierckx v0.4.1
  [7a1cc6ca] FFTW v1.2.0
  [5087d2c0] IncGammaBeta v0.1.0
  [2edaba10] Nemo v0.15.1
  [276daf66] SpecialFunctions v0.8.0
  [0dd23c3e] TwoFAST v0.1.0
  [8bb1440f] DelimitedFiles 
  [37e2e46d] LinearAlgebra 
  [56ddb016] Logging 
  [8dfed614] Test 

Welcome to Nemo version 0.15.1

Nemo comes with absolutely no warranty whatsoever


Welcome to Nemo version 0.15.1

Nemo comes with absolutely no warranty whatsoever

Testing ξ(r), ℓ=0, ν=-1 ... passed
Testing ξ(r), ℓ=0, ν=0 ... passed
Testing ξ(r), ℓ=0, ν=1 ... passed
Testing ξ(r), ℓ=0, ν=2 ... passed
Testing ξ(r), ℓ=0, ν=3 ... passed
Testing ξ(r), ℓ=1, ν=0 ... passed
Testing ξ(r), ℓ=1, ν=1 ... passed
Testing ξ(r), ℓ=1, ν=2 ... passed
Testing ξ(r), ℓ=1, ν=3 ... passed
Testing ξ(r), ℓ=2, ν=-1 ... passed
Testing ξ(r), ℓ=2, ν=0 ... passed
Testing ξ(r), ℓ=2, ν=1 ... passed
Testing ξ(r), ℓ=2, ν=2 ... passed
Testing ξ(r), ℓ=2, ν=3 ... passed
Testing ξ(r), ℓ=3, ν=-1 ... passed
Testing ξ(r), ℓ=3, ν=0 ... passed
Testing ξ(r), ℓ=3, ν=1 ... passed
Testing ξ(r), ℓ=3, ν=2 ... passed
Testing ξ(r), ℓ=3, ν=3 ... passed
Testing ξ(r), ℓ=4, ν=-1 ... passed
Testing ξ(r), ℓ=4, ν=0 ... passed
Testing ξ(r), ℓ=4, ν=1 ... passed
Testing ξ(r), ℓ=4, ν=2 ... passed
Testing ξ(r), ℓ=4, ν=3 ... passed
Testing ξ(r) ... passed
Testing ξ′(r) ... passed
Testing ξ″(r) ... passed
Calculating fmax: 
  dlrec    = 4
  dlrecRg1 = -4
  q=1.1, R=1.1:	  5.039061 seconds (1.20 M allocations: 67.954 MiB, 3.03% gc time)

  5.079070 seconds (1.22 M allocations: 69.064 MiB, 3.01% gc time)
ℓ = 1202
Δℓ = 4
ΔℓRg1 = -4
N = 1600
q = 1.1
kmin = 1.0e-5
kmax = 100000.00000000004
χ0 = 0.023029999999999995
RR = RR.tsv
ℓmax = ℓmax.bin
f21 = f21.bin
kmin = 1.0e-5
kmax = 100000.0
dlrec    = 4
dlrecRg1 = -4
Output size: 5741568 bytes = 0.005347251892089844 GiB
Output size: 51264 bytes = 4.774332046508789e-5 GiB
Reading 'out/F21EllCache'...   0.628219 seconds (318.67 k allocations: 16.381 MiB, 10.17% gc time)
ellmax: 1202
lmaxcache: 1202
fell[:,1,1] = Complex{Float64}[3.9583795592771634e-52 - 9.695233714158177e-68im, 3.990121772925759e-52 - 9.772979714843386e-68im]
ell 1202, elapsed: 0.0001659393310546875
ell 1201, elapsed: 2.6296260356903076
ell 1200, elapsed: 0.0005390644073486328
ell 1199, elapsed: 0.0005328655242919922
ell 1198, elapsed: 0.0005450248718261719
ell 1002, elapsed: 0.00970602035522461
ell 1001, elapsed: 0.0006170272827148438
ell 1000, elapsed: 0.00048089027404785156
ell 999, elapsed: 0.00047588348388671875
ell 998, elapsed: 0.00047397613525390625
ell 902, elapsed: 0.005388021469116211
ell 901, elapsed: 0.0004889965057373047
ell 900, elapsed: 0.00090789794921875
ell 899, elapsed: 0.00047397613525390625
ell 898, elapsed: 0.0004699230194091797
ell 802, elapsed: 0.005269050598144531
ell 801, elapsed: 0.0004889965057373047
ell 800, elapsed: 0.0004899501800537109
ell 799, elapsed: 0.00047016143798828125
ell 798, elapsed: 0.00047206878662109375
ell 702, elapsed: 0.005182027816772461
ell 701, elapsed: 0.0004901885986328125
ell 700, elapsed: 0.00046896934509277344
ell 699, elapsed: 0.0004749298095703125
ell 698, elapsed: 0.0004930496215820312
ell 602, elapsed: 0.005293846130371094
ell 601, elapsed: 0.0004868507385253906
ell 600, elapsed: 0.0004858970642089844
ell 599, elapsed: 0.0004730224609375
ell 598, elapsed: 0.00047206878662109375
ell 502, elapsed: 0.005313873291015625
ell 501, elapsed: 0.0004911422729492188
ell 500, elapsed: 0.00047397613525390625
ell 499, elapsed: 0.0004849433898925781
ell 498, elapsed: 0.0005350112915039062
ell 402, elapsed: 0.005192995071411133
ell 401, elapsed: 0.0004918575286865234
ell 400, elapsed: 0.00047397613525390625
ell 399, elapsed: 0.0004801750183105469
ell 398, elapsed: 0.00047087669372558594
ell 302, elapsed: 0.00486302375793457
ell 301, elapsed: 0.0004839897155761719
ell 300, elapsed: 0.0005400180816650391
ell 299, elapsed: 0.0004658699035644531
ell 298, elapsed: 0.0004661083221435547
ell 202, elapsed: 0.004943132400512695
ell 201, elapsed: 0.00048613548278808594
ell 200, elapsed: 0.0004699230194091797
ell 199, elapsed: 0.0005278587341308594
ell 198, elapsed: 0.00046706199645996094
ell 152, elapsed: 0.002508878707885742
ell 151, elapsed: 0.00047516822814941406
ell 150, elapsed: 0.00055694580078125
ell 149, elapsed: 0.00047397613525390625
ell 148, elapsed: 0.00046896934509277344
ell 127, elapsed: 0.0015099048614501953
ell 126, elapsed: 0.0004630088806152344
ell 125, elapsed: 0.0004649162292480469
ell 124, elapsed: 0.0005400180816650391
ell 123, elapsed: 0.0004630088806152344
ell 114, elapsed: 0.0009200572967529297
ell 113, elapsed: 0.0004889965057373047
ell 112, elapsed: 0.00046896934509277344
ell 111, elapsed: 0.00047087669372558594
ell 110, elapsed: 0.00046515464782714844
ell 102, elapsed: 0.0010700225830078125
ell 101, elapsed: 0.0004830360412597656
ell 100, elapsed: 0.0004649162292480469
ell 99, elapsed: 0.00046181678771972656
ell 98, elapsed: 0.00046896934509277344
ell 97, elapsed: 0.00049591064453125
ell 96, elapsed: 0.0005869865417480469
ell 95, elapsed: 0.0005700588226318359
ell 94, elapsed: 0.0005910396575927734
ell 93, elapsed: 0.0005040168762207031
ell 92, elapsed: 0.0005829334259033203
ell 91, elapsed: 0.0004971027374267578
ell 90, elapsed: 0.0005800724029541016
ell 89, elapsed: 0.0005121231079101562
ell 88, elapsed: 0.0006740093231201172
ell 87, elapsed: 0.0005109310150146484
ell 86, elapsed: 0.0005941390991210938
ell 85, elapsed: 0.0005009174346923828
ell 84, elapsed: 0.0005960464477539062
ell 83, elapsed: 0.0005168914794921875
ell 82, elapsed: 0.0006580352783203125
ell 81, elapsed: 0.0005061626434326172
ell 80, elapsed: 0.0005800724029541016
ell 79, elapsed: 0.0005190372467041016
ell 78, elapsed: 0.0005910396575927734
ell 77, elapsed: 0.0005040168762207031
ell 76, elapsed: 0.0005879402160644531
ell 75, elapsed: 0.0005898475646972656
ell 74, elapsed: 0.0005819797515869141
ell 73, elapsed: 0.0004990100860595703
ell 72, elapsed: 0.0005800724029541016
ell 71, elapsed: 0.0004990100860595703
ell 70, elapsed: 0.0005769729614257812
ell 69, elapsed: 0.0005028247833251953
ell 68, elapsed: 0.0006709098815917969
ell 67, elapsed: 0.0005009174346923828
ell 66, elapsed: 0.0005769729614257812
ell 65, elapsed: 0.00049591064453125
ell 64, elapsed: 0.0005719661712646484
ell 63, elapsed: 0.0004949569702148438
ell 62, elapsed: 0.0005700588226318359
ell 61, elapsed: 0.0005619525909423828
ell 60, elapsed: 0.0005638599395751953
ell 59, elapsed: 0.0004818439483642578
ell 58, elapsed: 0.0005509853363037109
ell 57, elapsed: 0.0004761219024658203
ell 56, elapsed: 0.0005600452423095703
ell 55, elapsed: 0.0004830360412597656
ell 54, elapsed: 0.0006518363952636719
ell 53, elapsed: 0.0005009174346923828
ell 52, elapsed: 0.0005810260772705078
ell 51, elapsed: 0.0005009174346923828
ell 50, elapsed: 0.0005929470062255859
ell 49, elapsed: 0.0005087852478027344
ell 48, elapsed: 0.0005810260772705078
ell 47, elapsed: 0.0005729198455810547
ell 46, elapsed: 0.0005738735198974609
ell 45, elapsed: 0.00049591064453125
ell 44, elapsed: 0.000576019287109375
ell 43, elapsed: 0.0005099773406982422
ell 42, elapsed: 0.0005860328674316406
ell 41, elapsed: 0.0004971027374267578
ell 40, elapsed: 0.0006639957427978516
ell 39, elapsed: 0.0005030632019042969
ell 38, elapsed: 0.0005800724029541016
ell 37, elapsed: 0.0004951953887939453
ell 36, elapsed: 0.00057220458984375
ell 35, elapsed: 0.0004978179931640625
ell 34, elapsed: 0.0005800724029541016
ell 33, elapsed: 0.0005769729614257812
ell 32, elapsed: 0.0005857944488525391
ell 31, elapsed: 0.0005090236663818359
ell 30, elapsed: 0.0005960464477539062
ell 29, elapsed: 0.0005180835723876953
ell 28, elapsed: 0.0006051063537597656
ell 27, elapsed: 0.0005650520324707031
ell 26, elapsed: 0.0006630420684814453
ell 25, elapsed: 0.0005130767822265625
ell 24, elapsed: 0.0005881786346435547
ell 23, elapsed: 0.0005130767822265625
ell 22, elapsed: 0.0005929470062255859
ell 21, elapsed: 0.0005099773406982422
ell 20, elapsed: 0.006094932556152344
ell 19, elapsed: 0.0005478858947753906
ell 18, elapsed: 0.0006060600280761719
ell 17, elapsed: 0.0005490779876708984
ell 16, elapsed: 0.0007429122924804688
ell 15, elapsed: 0.0005159378051757812
ell 14, elapsed: 0.0005829334259033203
ell 13, elapsed: 0.0005080699920654297
ell 12, elapsed: 0.0005869865417480469
ell 11, elapsed: 0.0005152225494384766
ell 10, elapsed: 0.0005948543548583984
ell 9, elapsed: 0.0005950927734375
ell 8, elapsed: 0.0005981922149658203
ell 7, elapsed: 0.0005040168762207031
ell 6, elapsed: 0.0005848407745361328
ell 5, elapsed: 0.0005009174346923828
ell 4, elapsed: 0.0005781650543212891
ell 3, elapsed: 0.0005059242248535156
ell 2, elapsed: 0.0005960464477539062
ell 1, elapsed: 0.0005059242248535156
ell 0, elapsed: 0.0005838871002197266
  3.544670 seconds (1.75 M allocations: 85.478 MiB, 1.98% gc time)
elapsed: 0.0006830692291259766
step:          0.734921 sec (402.561 k allocations: 20.278 MB, 0.0% gc time)
swapping:      0.000771 sec (0 allocations: 0 byte, 0.0% gc time)
calc_Mellell!: 0.69185 sec (296.4 k allocations: 14.959 MB, 0.0% gc time)
  t0 :  0.0 sec (0 allocations: 0 byte, 0.0% gc time)
  tm2 : 0.0 sec (0 allocations: 0 byte, 0.0% gc time)
  tm2s: 0.0 sec (0 allocations: 0 byte, 0.0% gc time)
  tm4 : 0.0 sec (0 allocations: 0 byte, 0.0% gc time)
  tp2 : 0.0 sec (0 allocations: 0 byte, 0.0% gc time)
  tp2s: 0.0 sec (0 allocations: 0 byte, 0.0% gc time)
  tp4 : 0.0 sec (0 allocations: 0 byte, 0.0% gc time)
calc_wtdll!:   1.332986 sec (525.859 k allocations: 26.376 MB, 3.56% gc time)
calc_wljj!:    0.00317 sec (6 allocations: 96 byte, 0.0% gc time)
mult_prefac!:  0.0 sec (0 allocations: 0 byte, 0.0% gc time)
convert:       0.0 sec (0 allocations: 0 byte, 0.0% gc time)
write:         0.005146 sec (0 allocations: 0 byte, 0.0% gc time)
test_rand_2f1: 0.0 sec (0 allocations: 0 byte, 0.0% gc time)
Closing outfile out/Ml21-cache.bin...   0.000124 seconds
  1.052079 seconds (8.66 k allocations: 420.969 KiB)
make_phi():   0.013352 seconds (8.20 k allocations: 238.016 KiB)
  0.221508 seconds (121.69 k allocations: 5.902 MiB)
tskip:       3.0e-5 sec (0 allocations: 0 byte, 0.0% gc time)
tread:       0.002851 sec (19 allocations: 2.172 KB, 0.0% gc time)
tmultphi:    0.042247 sec (26.022 k allocations: 1.338 MB, 0.0% gc time)
tbrfft:      0.004939 sec (896 allocations: 42.0 KB, 0.0% gc time)
tmultprefac: 0.004133 sec (0 allocations: 0 byte, 0.0% gc time)
toutfunc:    0.167186 sec (94.105 k allocations: 4.451 MB, 0.0% gc time)
Testing R=1.1 ... passed
Calculating fmax: 
  dlrec    = 4
  dlrecRg1 = -4
  q=1.1, R=1.0:	  0.001627 seconds (4.00 k allocations: 300.375 KiB)

  0.001790 seconds (4.04 k allocations: 334.734 KiB)
ℓ = 1202
Δℓ = 4
ΔℓRg1 = -4
N = 1600
q = 1.1
kmin = 1.0e-5
kmax = 100000.00000000004
χ0 = 0.023029999999999995
RR = RR.tsv
ℓmax = ℓmax.bin
f21 = f21.bin
kmin = 1.0e-5
kmax = 100000.0
dlrec    = 4
dlrecRg1 = -4
Output size: 61465536 bytes = 0.05724424123764038 GiB
Output size: 51264 bytes = 4.774332046508789e-5 GiB
Reading 'out/F21EllCache'...   0.001109 seconds (267 allocations: 84.656 KiB)
ellmax: 1202
lmaxcache: 1202
fell[:,1,1] = Complex{Float64}[809.6031528389767 - 1.9829558194077161e-13im, 0.0 + 0.0im]
ell 1202, elapsed: 2.9087066650390625e-5
ell 1201, elapsed: 0.015304088592529297
ell 1200, elapsed: 0.0004241466522216797
ell 1199, elapsed: 0.0005669593811035156
ell 1198, elapsed: 0.0006880760192871094
ell 1197, elapsed: 0.0005128383636474609
ell 1196, elapsed: 0.00039505958557128906
ell 1195, elapsed: 0.0004940032958984375
ell 1194, elapsed: 0.00039887428283691406
ell 1193, elapsed: 0.0004849433898925781
ell 1192, elapsed: 0.0004611015319824219
ell 1191, elapsed: 0.0006620883941650391
ell 1190, elapsed: 0.0005359649658203125
ell 1189, elapsed: 0.0005958080291748047
ell 1188, elapsed: 0.0005249977111816406
ell 1187, elapsed: 0.0006530284881591797
ell 1186, elapsed: 0.0004010200500488281
ell 1185, elapsed: 0.0006470680236816406
ell 1184, elapsed: 0.0007548332214355469
ell 1183, elapsed: 0.0004699230194091797
ell 1182, elapsed: 0.0003829002380371094
ell 1181, elapsed: 0.00046896934509277344
ell 1180, elapsed: 0.0004649162292480469
ell 1179, elapsed: 0.0006639957427978516
ell 1178, elapsed: 0.00039005279541015625
ell 1177, elapsed: 0.0004749298095703125
ell 1176, elapsed: 0.00039005279541015625
ell 1175, elapsed: 0.00046896934509277344
ell 1174, elapsed: 0.00038909912109375
ell 1173, elapsed: 0.000576019287109375
ell 1172, elapsed: 0.0005190372467041016
ell 1171, elapsed: 0.0004699230194091797
ell 1170, elapsed: 0.00038504600524902344
ell 1169, elapsed: 0.0005371570587158203
ell 1168, elapsed: 0.0005109310150146484
ell 1167, elapsed: 0.0007290840148925781
ell 1166, elapsed: 0.0004799365997314453
ell 1165, elapsed: 0.00046515464782714844
ell 1164, elapsed: 0.0003731250762939453
ell 1163, elapsed: 0.00046706199645996094
ell 1162, elapsed: 0.0003840923309326172
ell 1161, elapsed: 0.0005519390106201172
ell 1160, elapsed: 0.0005650520324707031
ell 1159, elapsed: 0.0006089210510253906
ell 1158, elapsed: 0.0004649162292480469
ell 1157, elapsed: 0.0006568431854248047
ell 1156, elapsed: 0.0005371570587158203
ell 1155, elapsed: 0.0008478164672851562
ell 1154, elapsed: 0.0004620552062988281
ell 1153, elapsed: 0.0006339550018310547
ell 1152, elapsed: 0.0003871917724609375
ell 1151, elapsed: 0.0004630088806152344
ell 1150, elapsed: 0.0003898143768310547
ell 1149, elapsed: 0.0004658699035644531
ell 1148, elapsed: 0.00044798851013183594
ell 1147, elapsed: 0.0008289813995361328
ell 1146, elapsed: 0.0004839897155761719
ell 1145, elapsed: 0.0005881786346435547
ell 1144, elapsed: 0.0005068778991699219
ell 1143, elapsed: 0.0004658699035644531
ell 1142, elapsed: 0.0005519390106201172
ell 1141, elapsed: 0.0007069110870361328
ell 1140, elapsed: 0.0004940032958984375
ell 1139, elapsed: 0.0007150173187255859
ell 1138, elapsed: 0.00045490264892578125
ell 1137, elapsed: 0.0006241798400878906
ell 1136, elapsed: 0.00045299530029296875
ell 1135, elapsed: 0.0006308555603027344
ell 1134, elapsed: 0.0005860328674316406
ell 1133, elapsed: 0.0005970001220703125
ell 1132, elapsed: 0.0006060600280761719
ell 1131, elapsed: 0.0007300376892089844
ell 1130, elapsed: 0.000553131103515625
ell 1129, elapsed: 0.0007359981536865234
ell 1128, elapsed: 0.0005550384521484375
ell 1127, elapsed: 0.0006690025329589844
ell 1126, elapsed: 0.0004918575286865234
ell 1125, elapsed: 0.0006270408630371094
ell 1124, elapsed: 0.0006108283996582031
ell 1123, elapsed: 0.0006530284881591797
ell 1122, elapsed: 0.0004620552062988281
ell 1121, elapsed: 0.0004849433898925781
ell 1120, elapsed: 0.0005400180816650391
ell 1119, elapsed: 0.0007259845733642578
ell 1118, elapsed: 0.0005118846893310547
ell 1117, elapsed: 0.0006601810455322266
ell 1116, elapsed: 0.00045299530029296875
ell 1115, elapsed: 0.0006010532379150391
ell 1114, elapsed: 0.00038814544677734375
ell 1113, elapsed: 0.00046896934509277344
ell 1112, elapsed: 0.0003769397735595703
ell 1111, elapsed: 0.0006248950958251953
ell 1110, elapsed: 0.00045800209045410156
ell 1109, elapsed: 0.0006639957427978516
ell 1108, elapsed: 0.0006198883056640625
ell 1107, elapsed: 0.00047016143798828125
ell 1106, elapsed: 0.0004630088806152344
ell 1105, elapsed: 0.0007250308990478516
ell 1104, elapsed: 0.0005238056182861328
ell 1103, elapsed: 0.00047087669372558594
ell 1102, elapsed: 0.0003898143768310547
ell 1101, elapsed: 0.0008299350738525391
ell 1100, elapsed: 0.0004019737243652344
ell 1099, elapsed: 0.0006339550018310547
ell 1098, elapsed: 0.00046896934509277344
ell 1097, elapsed: 0.0006508827209472656
ell 1096, elapsed: 0.000453948974609375
ell 1095, elapsed: 0.0006649494171142578
ell 1094, elapsed: 0.0005590915679931641
ell 1093, elapsed: 0.0005879402160644531
ell 1092, elapsed: 0.0006051063537597656
ell 1091, elapsed: 0.0007369518280029297
ell 1090, elapsed: 0.0005099773406982422
ell 1089, elapsed: 0.0004639625549316406
ell 1088, elapsed: 0.0006659030914306641
ell 1087, elapsed: 0.0005960464477539062
ell 1086, elapsed: 0.00043702125549316406
ell 1085, elapsed: 0.0006799697875976562
ell 1084, elapsed: 0.0004849433898925781
ell 1083, elapsed: 0.0006489753723144531
ell 1082, elapsed: 0.0006899833679199219
ell 1081, elapsed: 0.0006949901580810547
ell 1080, elapsed: 0.0005900859832763672
ell 1079, elapsed: 0.0007059574127197266
ell 1078, elapsed: 0.0006000995635986328
ell 1077, elapsed: 0.0005888938903808594
ell 1076, elapsed: 0.00039196014404296875
ell 1075, elapsed: 0.0005910396575927734
ell 1074, elapsed: 0.0005788803100585938
ell 1073, elapsed: 0.0007188320159912109
ell 1072, elapsed: 0.0005068778991699219
ell 1071, elapsed: 0.0006639957427978516
ell 1070, elapsed: 0.00047397613525390625
ell 1069, elapsed: 0.0007970333099365234
ell 1068, elapsed: 0.0004980564117431641
ell 1067, elapsed: 0.0007240772247314453
ell 1066, elapsed: 0.0004839897155761719
ell 1065, elapsed: 0.00046896934509277344
ell 1064, elapsed: 0.0003840923309326172
ell 1063, elapsed: 0.0004711151123046875
ell 1062, elapsed: 0.0004742145538330078
ell 1061, elapsed: 0.0006930828094482422
ell 1060, elapsed: 0.0005381107330322266
ell 1059, elapsed: 0.0007460117340087891
ell 1058, elapsed: 0.00043010711669921875
ell 1057, elapsed: 0.00046896934509277344
ell 1056, elapsed: 0.0005199909210205078
ell 1055, elapsed: 0.0006151199340820312
ell 1054, elapsed: 0.0004649162292480469
ell 1053, elapsed: 0.0007288455963134766
ell 1052, elapsed: 0.00044798851013183594
ell 1051, elapsed: 0.00045680999755859375
ell 1050, elapsed: 0.0004718303680419922
ell 1049, elapsed: 0.0007929801940917969
ell 1048, elapsed: 0.0004000663757324219
ell 1047, elapsed: 0.0005052089691162109
ell 1046, elapsed: 0.0005240440368652344
ell 1045, elapsed: 0.0006060600280761719
ell 1044, elapsed: 0.0004050731658935547
ell 1043, elapsed: 0.0005600452423095703
ell 1042, elapsed: 0.0005688667297363281
ell 1041, elapsed: 0.00055694580078125
ell 1040, elapsed: 0.00044989585876464844
ell 1039, elapsed: 0.0006279945373535156
ell 1038, elapsed: 0.0003800392150878906
ell 1037, elapsed: 0.0004630088806152344
ell 1036, elapsed: 0.00038909912109375
ell 1035, elapsed: 0.00046181678771972656
ell 1034, elapsed: 0.0004088878631591797
ell 1033, elapsed: 0.0004649162292480469
ell 1032, elapsed: 0.0003829002380371094
ell 1031, elapsed: 0.0006349086761474609
ell 1030, elapsed: 0.0004329681396484375
ell 1029, elapsed: 0.00045299530029296875
ell 1028, elapsed: 0.0003859996795654297
ell 1027, elapsed: 0.00047016143798828125
ell 1026, elapsed: 0.00043511390686035156
ell 1025, elapsed: 0.00047779083251953125
ell 1024, elapsed: 0.0005528926849365234
ell 1023, elapsed: 0.0006389617919921875
ell 1022, elapsed: 0.0005178451538085938
ell 1021, elapsed: 0.0006310939788818359
ell 1020, elapsed: 0.00038886070251464844
ell 1019, elapsed: 0.0004990100860595703
ell 1018, elapsed: 0.0005228519439697266
ell 1017, elapsed: 0.0005729198455810547
ell 1016, elapsed: 0.0005619525909423828
ell 1015, elapsed: 0.0005700588226318359
ell 1014, elapsed: 0.0003879070281982422
ell 1013, elapsed: 0.0004680156707763672
ell 1012, elapsed: 0.00047278404235839844
ell 1011, elapsed: 0.0007460117340087891
ell 1010, elapsed: 0.0004589557647705078
ell 1009, elapsed: 0.0004730224609375
ell 1008, elapsed: 0.0005400180816650391
ell 1007, elapsed: 0.0005230903625488281
ell 1006, elapsed: 0.0004379749298095703
ell 1005, elapsed: 0.0006549358367919922
ell 1004, elapsed: 0.0003800392150878906
ell 1003, elapsed: 0.0004658699035644531
ell 1002, elapsed: 0.0003972053527832031
ell 1001, elapsed: 0.00047206878662109375
ell 1000, elapsed: 0.0005538463592529297
ell 999, elapsed: 0.0007190704345703125
ell 998, elapsed: 0.0006010532379150391
ell 997, elapsed: 0.0007541179656982422
ell 996, elapsed: 0.0006020069122314453
ell 995, elapsed: 0.0007169246673583984
ell 994, elapsed: 0.0005190372467041016
ell 993, elapsed: 0.0006749629974365234
ell 992, elapsed: 0.0006251335144042969
ell 991, elapsed: 0.0007379055023193359
ell 990, elapsed: 0.000576019287109375
ell 989, elapsed: 0.0007259845733642578
ell 988, elapsed: 0.0004971027374267578
ell 987, elapsed: 0.0005598068237304688
ell 986, elapsed: 0.0006260871887207031
ell 985, elapsed: 0.000553131103515625
ell 984, elapsed: 0.0003829002380371094
ell 983, elapsed: 0.0005881786346435547
ell 982, elapsed: 0.0005791187286376953
ell 981, elapsed: 0.0006918907165527344
ell 980, elapsed: 0.0005970001220703125
ell 979, elapsed: 0.0007531642913818359
ell 978, elapsed: 0.0004839897155761719
ell 977, elapsed: 0.0006299018859863281
ell 976, elapsed: 0.00047707557678222656
ell 975, elapsed: 0.0006320476531982422
ell 974, elapsed: 0.00043082237243652344
ell 973, elapsed: 0.0006029605865478516
ell 972, elapsed: 0.0006139278411865234
ell 971, elapsed: 0.0007150173187255859
ell 970, elapsed: 0.0005819797515869141
ell 969, elapsed: 0.0006830692291259766
ell 968, elapsed: 0.0006000995635986328
ell 967, elapsed: 0.0007390975952148438
ell 966, elapsed: 0.0005500316619873047
ell 965, elapsed: 0.0006449222564697266
ell 964, elapsed: 0.0005369186401367188
ell 963, elapsed: 0.0006999969482421875
ell 962, elapsed: 0.0005960464477539062
ell 961, elapsed: 0.0005970001220703125
ell 960, elapsed: 0.00039386749267578125
ell 959, elapsed: 0.00047707557678222656
ell 958, elapsed: 0.0005300045013427734
ell 957, elapsed: 0.0006041526794433594
ell 956, elapsed: 0.0005300045013427734
ell 955, elapsed: 0.0005800724029541016
ell 954, elapsed: 0.0003910064697265625
ell 953, elapsed: 0.0006761550903320312
ell 952, elapsed: 0.0005431175231933594
ell 951, elapsed: 0.0006480216979980469
ell 950, elapsed: 0.0005300045013427734
ell 949, elapsed: 0.0006520748138427734
ell 948, elapsed: 0.00038909912109375
ell 947, elapsed: 0.0005919933319091797
ell 946, elapsed: 0.0005269050598144531
ell 945, elapsed: 0.0006840229034423828
ell 944, elapsed: 0.0004668235778808594
ell 943, elapsed: 0.0006139278411865234
ell 942, elapsed: 0.0005848407745361328
ell 941, elapsed: 0.0008180141448974609
ell 940, elapsed: 0.0006139278411865234
ell 939, elapsed: 0.0005872249603271484
ell 938, elapsed: 0.000392913818359375
ell 937, elapsed: 0.0006580352783203125
ell 936, elapsed: 0.0004820823669433594
ell 935, elapsed: 0.0006258487701416016
ell 934, elapsed: 0.0005431175231933594
ell 933, elapsed: 0.0006639957427978516
ell 932, elapsed: 0.0004999637603759766
ell 931, elapsed: 0.0004749298095703125
ell 930, elapsed: 0.0005290508270263672
ell 929, elapsed: 0.0006911754608154297
ell 928, elapsed: 0.0006091594696044922
ell 927, elapsed: 0.0007350444793701172
ell 926, elapsed: 0.0004849433898925781
ell 925, elapsed: 0.0006649494171142578
ell 924, elapsed: 0.0004909038543701172
ell 923, elapsed: 0.0006098747253417969
ell 922, elapsed: 0.0005898475646972656
ell 921, elapsed: 0.0005819797515869141
ell 920, elapsed: 0.0004611015319824219
ell 919, elapsed: 0.0007238388061523438
ell 918, elapsed: 0.0005979537963867188
ell 917, elapsed: 0.0006098747253417969
ell 916, elapsed: 0.0005359649658203125
ell 915, elapsed: 0.0007581710815429688
ell 914, elapsed: 0.0005052089691162109
ell 913, elapsed: 0.0006709098815917969
ell 912, elapsed: 0.0006048679351806641
ell 911, elapsed: 0.0007181167602539062
ell 910, elapsed: 0.0005168914794921875
ell 909, elapsed: 0.0007100105285644531
ell 908, elapsed: 0.00061798095703125
ell 907, elapsed: 0.0005869865417480469
ell 906, elapsed: 0.00047707557678222656
ell 905, elapsed: 0.0007340908050537109
ell 904, elapsed: 0.0004990100860595703
ell 903, elapsed: 0.0005979537963867188
ell 902, elapsed: 0.0005159378051757812
ell 901, elapsed: 0.00046515464782714844
ell 900, elapsed: 0.00039196014404296875
ell 899, elapsed: 0.00047707557678222656
ell 898, elapsed: 0.00038814544677734375
ell 897, elapsed: 0.0006320476531982422
ell 896, elapsed: 0.0004801750183105469
ell 895, elapsed: 0.0005009174346923828
ell 894, elapsed: 0.0005397796630859375
ell 893, elapsed: 0.0005450248718261719
ell 892, elapsed: 0.00039196014404296875
ell 891, elapsed: 0.0006299018859863281
ell 890, elapsed: 0.0004980564117431641
ell 889, elapsed: 0.0004668235778808594
ell 888, elapsed: 0.0003979206085205078
ell 887, elapsed: 0.0006170272827148438
ell 886, elapsed: 0.0004649162292480469
ell 885, elapsed: 0.0004630088806152344
ell 884, elapsed: 0.0005450248718261719
ell 883, elapsed: 0.0005369186401367188
ell 882, elapsed: 0.0003838539123535156
ell 881, elapsed: 0.0004639625549316406
ell 880, elapsed: 0.0005190372467041016
ell 879, elapsed: 0.0007300376892089844
ell 878, elapsed: 0.0005071163177490234
ell 877, elapsed: 0.0007231235504150391
ell 876, elapsed: 0.00048613548278808594
ell 875, elapsed: 0.00046706199645996094
ell 874, elapsed: 0.0004830360412597656
ell 873, elapsed: 0.0007278919219970703
ell 872, elapsed: 0.00043082237243652344
ell 871, elapsed: 0.0006561279296875
ell 870, elapsed: 0.00045418739318847656
ell 869, elapsed: 0.0006849765777587891
ell 868, elapsed: 0.0004138946533203125
ell 867, elapsed: 0.0007059574127197266
ell 866, elapsed: 0.0005538463592529297
ell 865, elapsed: 0.0007231235504150391
ell 864, elapsed: 0.0006070137023925781
ell 863, elapsed: 0.0005471706390380859
ell 862, elapsed: 0.0005168914794921875
ell 861, elapsed: 0.0007450580596923828
ell 860, elapsed: 0.0004298686981201172
ell 859, elapsed: 0.0006129741668701172
ell 858, elapsed: 0.0004401206970214844
ell 857, elapsed: 0.0006439685821533203
ell 856, elapsed: 0.0005319118499755859
ell 855, elapsed: 0.00046181678771972656
ell 854, elapsed: 0.00039505958557128906
ell 853, elapsed: 0.00043201446533203125
ell 852, elapsed: 0.0003941059112548828
ell 851, elapsed: 0.0003719329833984375
ell 850, elapsed: 0.0003139972686767578
ell 849, elapsed: 0.0003631114959716797
ell 848, elapsed: 0.00032591819763183594
ell 847, elapsed: 0.00040411949157714844
ell 846, elapsed: 0.00030994415283203125
ell 845, elapsed: 0.00038313865661621094
ell 844, elapsed: 0.0004069805145263672
ell 843, elapsed: 0.0006618499755859375
ell 842, elapsed: 0.0005841255187988281
ell 841, elapsed: 0.0005719661712646484
ell 840, elapsed: 0.0003647804260253906
ell 839, elapsed: 0.0003781318664550781
ell 838, elapsed: 0.00030994415283203125
ell 837, elapsed: 0.0004830360412597656
ell 836, elapsed: 0.0004780292510986328
ell 835, elapsed: 0.0006051063537597656
ell 834, elapsed: 0.00030612945556640625
ell 833, elapsed: 0.0006630420684814453
ell 832, elapsed: 0.00037598609924316406
ell 831, elapsed: 0.0004589557647705078
ell 830, elapsed: 0.0005450248718261719
ell 829, elapsed: 0.0005581378936767578
ell 828, elapsed: 0.000553131103515625
ell 827, elapsed: 0.0006580352783203125
ell 826, elapsed: 0.00038695335388183594
ell 825, elapsed: 0.00047206878662109375
ell 824, elapsed: 0.00039196014404296875
ell 823, elapsed: 0.0004699230194091797
ell 822, elapsed: 0.00038814544677734375
ell 821, elapsed: 0.00047898292541503906
ell 820, elapsed: 0.00038695335388183594
ell 819, elapsed: 0.0004699230194091797
ell 818, elapsed: 0.0003809928894042969
ell 817, elapsed: 0.0005748271942138672
ell 816, elapsed: 0.0006098747253417969
ell 815, elapsed: 0.0007190704345703125
ell 814, elapsed: 0.0006279945373535156
ell 813, elapsed: 0.0005631446838378906
ell 812, elapsed: 0.0003859996795654297
ell 811, elapsed: 0.0004661083221435547
ell 810, elapsed: 0.0003859996795654297
ell 809, elapsed: 0.0004639625549316406
ell 808, elapsed: 0.0005528926849365234
ell 807, elapsed: 0.0005629062652587891
ell 806, elapsed: 0.0005259513854980469
ell 805, elapsed: 0.0007281303405761719
ell 804, elapsed: 0.0006020069122314453
ell 803, elapsed: 0.0006489753723144531
ell 802, elapsed: 0.00055694580078125
ell 801, elapsed: 0.0005590915679931641
ell 800, elapsed: 0.0005450248718261719
ell 799, elapsed: 0.0007529258728027344
ell 798, elapsed: 0.0005168914794921875
ell 797, elapsed: 0.0006859302520751953
ell 796, elapsed: 0.00040912628173828125
ell 795, elapsed: 0.0004611015319824219
ell 794, elapsed: 0.0003781318664550781
ell 793, elapsed: 0.0007479190826416016
ell 792, elapsed: 0.0005030632019042969
ell 791, elapsed: 0.0006721019744873047
ell 790, elapsed: 0.0004940032958984375
ell 789, elapsed: 0.0006039142608642578
ell 788, elapsed: 0.0005168914794921875
ell 787, elapsed: 0.0006940364837646484
ell 786, elapsed: 0.0006048679351806641
ell 785, elapsed: 0.0007069110870361328
ell 784, elapsed: 0.0005929470062255859
ell 783, elapsed: 0.0005648136138916016
ell 782, elapsed: 0.00039386749267578125
ell 781, elapsed: 0.0006029605865478516
ell 780, elapsed: 0.0005071163177490234
ell 779, elapsed: 0.0006048679351806641
ell 778, elapsed: 0.0004858970642089844
ell 777, elapsed: 0.0006151199340820312
ell 776, elapsed: 0.0004999637603759766
ell 775, elapsed: 0.0004780292510986328
ell 774, elapsed: 0.00036907196044921875
ell 773, elapsed: 0.0004909038543701172
ell 772, elapsed: 0.00038695335388183594
ell 771, elapsed: 0.00047278404235839844
ell 770, elapsed: 0.0003819465637207031
ell 769, elapsed: 0.0004620552062988281
ell 768, elapsed: 0.00038313865661621094
ell 767, elapsed: 0.0004730224609375
ell 766, elapsed: 0.0005600452423095703
ell 765, elapsed: 0.0006561279296875
ell 764, elapsed: 0.0003948211669921875
ell 763, elapsed: 0.000637054443359375
ell 762, elapsed: 0.0004420280456542969
ell 761, elapsed: 0.0005791187286376953
ell 760, elapsed: 0.0006020069122314453
ell 759, elapsed: 0.000553131103515625
ell 758, elapsed: 0.0004761219024658203
ell 757, elapsed: 0.00047206878662109375
ell 756, elapsed: 0.0005071163177490234
ell 755, elapsed: 0.0007290840148925781
ell 754, elapsed: 0.0006051063537597656
ell 753, elapsed: 0.0007319450378417969
ell 752, elapsed: 0.0004649162292480469
ell 751, elapsed: 0.0005679130554199219
ell 750, elapsed: 0.0003898143768310547
ell 749, elapsed: 0.00047898292541503906
ell 748, elapsed: 0.0003840923309326172
ell 747, elapsed: 0.0004680156707763672
ell 746, elapsed: 0.0003829002380371094
ell 745, elapsed: 0.0006499290466308594
ell 744, elapsed: 0.0005409717559814453
ell 743, elapsed: 0.00045490264892578125
ell 742, elapsed: 0.0003712177276611328
ell 741, elapsed: 0.0004761219024658203
ell 740, elapsed: 0.0005409717559814453
ell 739, elapsed: 0.0005748271942138672
ell 738, elapsed: 0.00038504600524902344
ell 737, elapsed: 0.0004661083221435547
ell 736, elapsed: 0.0004749298095703125
ell 735, elapsed: 0.00044608116149902344
ell 734, elapsed: 0.0003800392150878906
ell 733, elapsed: 0.0004551410675048828
ell 732, elapsed: 0.0003859996795654297
ell 731, elapsed: 0.00045990943908691406
ell 730, elapsed: 0.0003879070281982422
ell 729, elapsed: 0.0006849765777587891
ell 728, elapsed: 0.0006821155548095703
ell 727, elapsed: 0.0005412101745605469
ell 726, elapsed: 0.0004930496215820312
ell 725, elapsed: 0.0007441043853759766
ell 724, elapsed: 0.0005209445953369141
ell 723, elapsed: 0.0004830360412597656
ell 722, elapsed: 0.0005440711975097656
ell 721, elapsed: 0.0008478164672851562
ell 720, elapsed: 0.0006010532379150391
ell 719, elapsed: 0.0007410049438476562
ell 718, elapsed: 0.0005660057067871094
ell 717, elapsed: 0.0007300376892089844
ell 716, elapsed: 0.0007309913635253906
ell 715, elapsed: 0.000576019287109375
ell 714, elapsed: 0.0003769397735595703
ell 713, elapsed: 0.0005500316619873047
ell 712, elapsed: 0.0004990100860595703
ell 711, elapsed: 0.00045609474182128906
ell 710, elapsed: 0.0005338191986083984
ell 709, elapsed: 0.0006690025329589844
ell 708, elapsed: 0.0003859996795654297
ell 707, elapsed: 0.0006399154663085938
ell 706, elapsed: 0.0004451274871826172
ell 705, elapsed: 0.0004470348358154297
ell 704, elapsed: 0.0005571842193603516
ell 703, elapsed: 0.0005879402160644531
ell 702, elapsed: 0.00035691261291503906
ell 701, elapsed: 0.0006589889526367188
ell 700, elapsed: 0.0004870891571044922
ell 699, elapsed: 0.0006780624389648438
ell 698, elapsed: 0.0005929470062255859
ell 697, elapsed: 0.0005819797515869141
ell 696, elapsed: 0.00048804283142089844
ell 695, elapsed: 0.00084686279296875
ell 694, elapsed: 0.00039005279541015625
ell 693, elapsed: 0.0006079673767089844
ell 692, elapsed: 0.0006210803985595703
ell 691, elapsed: 0.0006010532379150391
ell 690, elapsed: 0.0005459785461425781
ell 689, elapsed: 0.0008230209350585938
ell 688, elapsed: 0.0005619525909423828
ell 687, elapsed: 0.0007269382476806641
ell 686, elapsed: 0.0005109310150146484
ell 685, elapsed: 0.0006539821624755859
ell 684, elapsed: 0.00044798851013183594
ell 683, elapsed: 0.0005769729614257812
ell 682, elapsed: 0.0005581378936767578
ell 681, elapsed: 0.0007359981536865234
ell 680, elapsed: 0.0005052089691162109
ell 679, elapsed: 0.00047898292541503906
ell 678, elapsed: 0.0003819465637207031
ell 677, elapsed: 0.0006349086761474609
ell 676, elapsed: 0.0005049705505371094
ell 675, elapsed: 0.0004718303680419922
ell 674, elapsed: 0.0005397796630859375
ell 673, elapsed: 0.0006361007690429688
ell 672, elapsed: 0.000514984130859375
ell 671, elapsed: 0.0005950927734375
ell 670, elapsed: 0.0003809928894042969
ell 669, elapsed: 0.0005900859832763672
ell 668, elapsed: 0.0005331039428710938
ell 667, elapsed: 0.00045680999755859375
ell 666, elapsed: 0.0004858970642089844
ell 665, elapsed: 0.0007359981536865234
ell 664, elapsed: 0.0005300045013427734
ell 663, elapsed: 0.0004858970642089844
ell 662, elapsed: 0.0004169940948486328
ell 661, elapsed: 0.0006301403045654297
ell 660, elapsed: 0.00047016143798828125
ell 659, elapsed: 0.0006518363952636719
ell 658, elapsed: 0.00044989585876464844
ell 657, elapsed: 0.0006000995635986328
ell 656, elapsed: 0.0004780292510986328
ell 655, elapsed: 0.0006051063537597656
ell 654, elapsed: 0.0004990100860595703
ell 653, elapsed: 0.00047588348388671875
ell 652, elapsed: 0.00038909912109375
ell 651, elapsed: 0.0004658699035644531
ell 650, elapsed: 0.0003910064697265625
ell 649, elapsed: 0.00046896934509277344
ell 648, elapsed: 0.0005199909210205078
ell 647, elapsed: 0.0007479190826416016
ell 646, elapsed: 0.0004489421844482422
ell 645, elapsed: 0.0004630088806152344
ell 644, elapsed: 0.0005059242248535156
ell 643, elapsed: 0.0005970001220703125
ell 642, elapsed: 0.0005660057067871094
ell 641, elapsed: 0.0005548000335693359
ell 640, elapsed: 0.0004150867462158203
ell 639, elapsed: 0.0004820823669433594
ell 638, elapsed: 0.0004870891571044922
ell 637, elapsed: 0.0007328987121582031
ell 636, elapsed: 0.0004830360412597656
ell 635, elapsed: 0.0005948543548583984
ell 634, elapsed: 0.0005240440368652344
ell 633, elapsed: 0.0006577968597412109
ell 632, elapsed: 0.00046706199645996094
ell 631, elapsed: 0.0006420612335205078
ell 630, elapsed: 0.0005218982696533203
ell 629, elapsed: 0.0006670951843261719
ell 628, elapsed: 0.0005929470062255859
ell 627, elapsed: 0.0006160736083984375
ell 626, elapsed: 0.0005371570587158203
ell 625, elapsed: 0.0006468296051025391
ell 624, elapsed: 0.0005328655242919922
ell 623, elapsed: 0.0005881786346435547
ell 622, elapsed: 0.00037789344787597656
ell 621, elapsed: 0.00047707557678222656
ell 620, elapsed: 0.0004649162292480469
ell 619, elapsed: 0.0004820823669433594
ell 618, elapsed: 0.00038504600524902344
ell 617, elapsed: 0.00046896934509277344
ell 616, elapsed: 0.0004699230194091797
ell 615, elapsed: 0.0006489753723144531
ell 614, elapsed: 0.00038814544677734375
ell 613, elapsed: 0.0004761219024658203
ell 612, elapsed: 0.0004680156707763672
ell 611, elapsed: 0.0004820823669433594
ell 610, elapsed: 0.0003859996795654297
ell 609, elapsed: 0.0004830360412597656
ell 608, elapsed: 0.0003879070281982422
ell 607, elapsed: 0.0006811618804931641
ell 606, elapsed: 0.00041294097900390625
ell 605, elapsed: 0.0007309913635253906
ell 604, elapsed: 0.0004210472106933594
ell 603, elapsed: 0.00047898292541503906
ell 602, elapsed: 0.00055694580078125
ell 601, elapsed: 0.0005660057067871094
ell 600, elapsed: 0.00036597251892089844
ell 599, elapsed: 0.0004391670227050781
ell 598, elapsed: 0.0003559589385986328
ell 597, elapsed: 0.0005331039428710938
ell 596, elapsed: 0.0002970695495605469
ell 595, elapsed: 0.00036597251892089844
ell 594, elapsed: 0.0002880096435546875
ell 593, elapsed: 0.00035500526428222656
ell 592, elapsed: 0.000286102294921875
ell 591, elapsed: 0.00035309791564941406
ell 590, elapsed: 0.0002880096435546875
ell 589, elapsed: 0.00035500526428222656
ell 588, elapsed: 0.0002880096435546875
ell 587, elapsed: 0.0003669261932373047
ell 586, elapsed: 0.00030612945556640625
ell 585, elapsed: 0.0003809928894042969
ell 584, elapsed: 0.00029778480529785156
ell 583, elapsed: 0.0003561973571777344
ell 582, elapsed: 0.0002880096435546875
ell 581, elapsed: 0.0003509521484375
ell 580, elapsed: 0.00028896331787109375
ell 579, elapsed: 0.00035500526428222656
ell 578, elapsed: 0.00028705596923828125
ell 577, elapsed: 0.00034308433532714844
ell 576, elapsed: 0.00028705596923828125
ell 575, elapsed: 0.0003509521484375
ell 574, elapsed: 0.000308990478515625
ell 573, elapsed: 0.0003528594970703125
ell 572, elapsed: 0.00028705596923828125
ell 571, elapsed: 0.0003459453582763672
ell 570, elapsed: 0.00028586387634277344
ell 569, elapsed: 0.00034499168395996094
ell 568, elapsed: 0.000286102294921875
ell 567, elapsed: 0.0003418922424316406
ell 566, elapsed: 0.0002880096435546875
ell 565, elapsed: 0.00034809112548828125
ell 564, elapsed: 0.0002880096435546875
ell 563, elapsed: 0.0003838539123535156
ell 562, elapsed: 0.00029206275939941406
ell 561, elapsed: 0.0003478527069091797
ell 560, elapsed: 0.00028705596923828125
ell 559, elapsed: 0.00034689903259277344
ell 558, elapsed: 0.00028514862060546875
ell 557, elapsed: 0.00034880638122558594
ell 556, elapsed: 0.000286102294921875
ell 555, elapsed: 0.0003437995910644531
ell 554, elapsed: 0.000286102294921875
ell 553, elapsed: 0.00034689903259277344
ell 552, elapsed: 0.0044519901275634766
ell 551, elapsed: 0.0007088184356689453
ell 550, elapsed: 0.0006220340728759766
ell 549, elapsed: 0.0007498264312744141
ell 548, elapsed: 0.0005948543548583984
ell 547, elapsed: 0.0007429122924804688
ell 546, elapsed: 0.0006659030914306641
ell 545, elapsed: 0.0006380081176757812
ell 544, elapsed: 0.0006129741668701172
ell 543, elapsed: 0.0005979537963867188
ell 542, elapsed: 0.0005228519439697266
ell 541, elapsed: 0.0006039142608642578
ell 540, elapsed: 0.0006730556488037109
ell 539, elapsed: 0.0006380081176757812
ell 538, elapsed: 0.00039315223693847656
ell 537, elapsed: 0.00045990943908691406
ell 536, elapsed: 0.0004649162292480469
ell 535, elapsed: 0.0006380081176757812
ell 534, elapsed: 0.0004968643188476562
ell 533, elapsed: 0.0009300708770751953
ell 532, elapsed: 0.0004711151123046875
ell 531, elapsed: 0.0006959438323974609
ell 530, elapsed: 0.0004019737243652344
ell 529, elapsed: 0.0006740093231201172
ell 528, elapsed: 0.0005049705505371094
ell 527, elapsed: 0.0005919933319091797
ell 526, elapsed: 0.0005009174346923828
ell 525, elapsed: 0.0007309913635253906
ell 524, elapsed: 0.0005359649658203125
ell 523, elapsed: 0.0006189346313476562
ell 522, elapsed: 0.0004570484161376953
ell 521, elapsed: 0.0009338855743408203
ell 520, elapsed: 0.0005640983581542969
ell 519, elapsed: 0.0006041526794433594
ell 518, elapsed: 0.00038909912109375
ell 517, elapsed: 0.0006780624389648438
ell 516, elapsed: 0.00051116943359375
ell 515, elapsed: 0.00045299530029296875
ell 514, elapsed: 0.0008020401000976562
ell 513, elapsed: 0.0005860328674316406
ell 512, elapsed: 0.00038886070251464844
ell 511, elapsed: 0.0004699230194091797
ell 510, elapsed: 0.00038504600524902344
ell 509, elapsed: 0.0005919933319091797
ell 508, elapsed: 0.000514984130859375
ell 507, elapsed: 0.0005731582641601562
ell 506, elapsed: 0.00038695335388183594
ell 505, elapsed: 0.0004749298095703125
ell 504, elapsed: 0.0003840923309326172
ell 503, elapsed: 0.000469207763671875
ell 502, elapsed: 0.00038504600524902344
ell 501, elapsed: 0.0004749298095703125
ell 500, elapsed: 0.00038909912109375
ell 499, elapsed: 0.0007610321044921875
ell 498, elapsed: 0.0005018711090087891
ell 497, elapsed: 0.0004730224609375
ell 496, elapsed: 0.0005309581756591797
ell 495, elapsed: 0.0005660057067871094
ell 494, elapsed: 0.00038313865661621094
ell 493, elapsed: 0.00046706199645996094
ell 492, elapsed: 0.0004909038543701172
ell 491, elapsed: 0.0004818439483642578
ell 490, elapsed: 0.0005669593811035156
ell 489, elapsed: 0.0005400180816650391
ell 488, elapsed: 0.0004990100860595703
ell 487, elapsed: 0.000743865966796875
ell 486, elapsed: 0.0004658699035644531
ell 485, elapsed: 0.0010340213775634766
ell 484, elapsed: 0.0003600120544433594
ell 483, elapsed: 0.0005128383636474609
ell 482, elapsed: 0.0005431175231933594
ell 481, elapsed: 0.0004630088806152344
ell 480, elapsed: 0.00037598609924316406
ell 479, elapsed: 0.0005750656127929688
ell 478, elapsed: 0.0009279251098632812
ell 477, elapsed: 0.00045013427734375
ell 476, elapsed: 0.0003681182861328125
ell 475, elapsed: 0.0006279945373535156
ell 474, elapsed: 0.0004990100860595703
ell 473, elapsed: 0.00043082237243652344
ell 472, elapsed: 0.000370025634765625
ell 471, elapsed: 0.0008690357208251953
ell 470, elapsed: 0.0005519390106201172
ell 469, elapsed: 0.0007271766662597656
ell 468, elapsed: 0.00047516822814941406
ell 467, elapsed: 0.0006389617919921875
ell 466, elapsed: 0.0004608631134033203
ell 465, elapsed: 0.0007650852203369141
ell 464, elapsed: 0.0006101131439208984
ell 463, elapsed: 0.0005631446838378906
ell 462, elapsed: 0.0005528926849365234
ell 461, elapsed: 0.0006320476531982422
ell 460, elapsed: 0.0004799365997314453
ell 459, elapsed: 0.0007441043853759766
ell 458, elapsed: 0.0005428791046142578
ell 457, elapsed: 0.0005650520324707031
ell 456, elapsed: 0.0003960132598876953
ell 455, elapsed: 0.0004711151123046875
ell 454, elapsed: 0.0003788471221923828
ell 453, elapsed: 0.00067901611328125
ell 452, elapsed: 0.0006690025329589844
ell 451, elapsed: 0.0006339550018310547
ell 450, elapsed: 0.00039505958557128906
ell 449, elapsed: 0.0004749298095703125
ell 448, elapsed: 0.00039386749267578125
ell 447, elapsed: 0.00047588348388671875
ell 446, elapsed: 0.0005421638488769531
ell 445, elapsed: 0.0006799697875976562
ell 444, elapsed: 0.0003910064697265625
ell 443, elapsed: 0.0004851818084716797
ell 442, elapsed: 0.00038504600524902344
ell 441, elapsed: 0.0004830360412597656
ell 440, elapsed: 0.00038909912109375
ell 439, elapsed: 0.00047898292541503906
ell 438, elapsed: 0.0005440711975097656
ell 437, elapsed: 0.0006971359252929688
ell 436, elapsed: 0.0005290508270263672
ell 435, elapsed: 0.0005950927734375
ell 434, elapsed: 0.0004611015319824219
ell 433, elapsed: 0.0007340908050537109
ell 432, elapsed: 0.0004940032958984375
ell 431, elapsed: 0.0005919933319091797
ell 430, elapsed: 0.0005857944488525391
ell 429, elapsed: 0.0006809234619140625
ell 428, elapsed: 0.0005209445953369141
ell 427, elapsed: 0.0004780292510986328
ell 426, elapsed: 0.0005559921264648438
ell 425, elapsed: 0.0005710124969482422
ell 424, elapsed: 0.0003848075866699219
ell 423, elapsed: 0.0004761219024658203
ell 422, elapsed: 0.0004980564117431641
ell 421, elapsed: 0.0006220340728759766
ell 420, elapsed: 0.00038909912109375
ell 419, elapsed: 0.0006361007690429688
ell 418, elapsed: 0.00045418739318847656
ell 417, elapsed: 0.00046706199645996094
ell 416, elapsed: 0.00046896934509277344
ell 415, elapsed: 0.0004749298095703125
ell 414, elapsed: 0.00039005279541015625
ell 413, elapsed: 0.0004749298095703125
ell 412, elapsed: 0.0003879070281982422
ell 411, elapsed: 0.0004620552062988281
ell 410, elapsed: 0.0005490779876708984
ell 409, elapsed: 0.0008480548858642578
ell 408, elapsed: 0.0005118846893310547
ell 407, elapsed: 0.0007259845733642578
ell 406, elapsed: 0.00045490264892578125
ell 405, elapsed: 0.0006690025329589844
ell 404, elapsed: 0.0005118846893310547
ell 403, elapsed: 0.0004830360412597656
ell 402, elapsed: 0.00047707557678222656
ell 401, elapsed: 0.0004451274871826172
ell 400, elapsed: 0.0003628730773925781
ell 399, elapsed: 0.0004458427429199219
ell 398, elapsed: 0.0004611015319824219
ell 397, elapsed: 0.0007050037384033203
ell 396, elapsed: 0.0005671977996826172
ell 395, elapsed: 0.0006690025329589844
ell 394, elapsed: 0.0003600120544433594
ell 393, elapsed: 0.00043201446533203125
ell 392, elapsed: 0.0004620552062988281
ell 391, elapsed: 0.000614166259765625
ell 390, elapsed: 0.00037097930908203125
ell 389, elapsed: 0.0004329681396484375
ell 388, elapsed: 0.0003771781921386719
ell 387, elapsed: 0.0007631778717041016
ell 386, elapsed: 0.0004839897155761719
ell 385, elapsed: 0.0006499290466308594
ell 384, elapsed: 0.0005998611450195312
ell 383, elapsed: 0.0006580352783203125
ell 382, elapsed: 0.0005090236663818359
ell 381, elapsed: 0.0008418560028076172
ell 380, elapsed: 0.0004048347473144531
ell 379, elapsed: 0.0006740093231201172
ell 378, elapsed: 0.0004658699035644531
ell 377, elapsed: 0.0006630420684814453
ell 376, elapsed: 0.0006120204925537109
ell 375, elapsed: 0.0007379055023193359
ell 374, elapsed: 0.0003979206085205078
ell 373, elapsed: 0.0004849433898925781
ell 372, elapsed: 0.0003859996795654297
ell 371, elapsed: 0.0005581378936767578
ell 370, elapsed: 0.0005950927734375
ell 369, elapsed: 0.0005598068237304688
ell 368, elapsed: 0.0004608631134033203
ell 367, elapsed: 0.0007178783416748047
ell 366, elapsed: 0.00039505958557128906
ell 365, elapsed: 0.0004718303680419922
ell 364, elapsed: 0.00039196014404296875
ell 363, elapsed: 0.00047397613525390625
ell 362, elapsed: 0.000392913818359375
ell 361, elapsed: 0.0006530284881591797
ell 360, elapsed: 0.0005359649658203125
ell 359, elapsed: 0.0006308555603027344
ell 358, elapsed: 0.0004620552062988281
ell 357, elapsed: 0.0006189346313476562
ell 356, elapsed: 0.0004849433898925781
ell 355, elapsed: 0.0006849765777587891
ell 354, elapsed: 0.00041604042053222656
ell 353, elapsed: 0.0005838871002197266
ell 352, elapsed: 0.0005660057067871094
ell 351, elapsed: 0.0005500316619873047
ell 350, elapsed: 0.0005481243133544922
ell 349, elapsed: 0.0005650520324707031
ell 348, elapsed: 0.0005540847778320312
ell 347, elapsed: 0.0005948543548583984
ell 346, elapsed: 0.0006549358367919922
ell 345, elapsed: 0.0007500648498535156
ell 344, elapsed: 0.0005249977111816406
ell 343, elapsed: 0.0007469654083251953
ell 342, elapsed: 0.00043702125549316406
ell 341, elapsed: 0.0006170272827148438
ell 340, elapsed: 0.0006158351898193359
ell 339, elapsed: 0.0005900859832763672
ell 338, elapsed: 0.0005421638488769531
ell 337, elapsed: 0.0007460117340087891
ell 336, elapsed: 0.0005550384521484375
ell 335, elapsed: 0.0008718967437744141
ell 334, elapsed: 0.0005819797515869141
ell 333, elapsed: 0.0007240772247314453
ell 332, elapsed: 0.0004870891571044922
ell 331, elapsed: 0.0006029605865478516
ell 330, elapsed: 0.0005028247833251953
ell 329, elapsed: 0.0006740093231201172
ell 328, elapsed: 0.0004420280456542969
ell 327, elapsed: 0.0004718303680419922
ell 326, elapsed: 0.0005440711975097656
ell 325, elapsed: 0.0005860328674316406
ell 324, elapsed: 0.0005249977111816406
ell 323, elapsed: 0.0007460117340087891
ell 322, elapsed: 0.0004558563232421875
ell 321, elapsed: 0.0005970001220703125
ell 320, elapsed: 0.0006048679351806641
ell 319, elapsed: 0.0005788803100585938
ell 318, elapsed: 0.0003800392150878906
ell 317, elapsed: 0.00047397613525390625
ell 316, elapsed: 0.00044608116149902344
ell 315, elapsed: 0.0011200904846191406
ell 314, elapsed: 0.0004019737243652344
ell 313, elapsed: 0.00047898292541503906
ell 312, elapsed: 0.000514984130859375
ell 311, elapsed: 0.0005929470062255859
ell 310, elapsed: 0.0005509853363037109
ell 309, elapsed: 0.000762939453125
ell 308, elapsed: 0.00051116943359375
ell 307, elapsed: 0.0006539821624755859
ell 306, elapsed: 0.0005059242248535156
ell 305, elapsed: 0.0004718303680419922
ell 304, elapsed: 0.0002830028533935547
ell 303, elapsed: 0.0003590583801269531
ell 302, elapsed: 0.00043892860412597656
ell 301, elapsed: 0.0006060600280761719
ell 300, elapsed: 0.0002918243408203125
ell 299, elapsed: 0.0004980564117431641
ell 298, elapsed: 0.00047397613525390625
ell 297, elapsed: 0.0005619525909423828
ell 296, elapsed: 0.0004858970642089844
ell 295, elapsed: 0.0006279945373535156
ell 294, elapsed: 0.0005710124969482422
ell 293, elapsed: 0.0004658699035644531
ell 292, elapsed: 0.0003800392150878906
ell 291, elapsed: 0.00047707557678222656
ell 290, elapsed: 0.0005550384521484375
ell 289, elapsed: 0.0005679130554199219
ell 288, elapsed: 0.0003879070281982422
ell 287, elapsed: 0.0006570816040039062
ell 286, elapsed: 0.00055694580078125
ell 285, elapsed: 0.00048089027404785156
ell 284, elapsed: 0.0003840923309326172
ell 283, elapsed: 0.0006260871887207031
ell 282, elapsed: 0.0004711151123046875
ell 281, elapsed: 0.0006439685821533203
ell 280, elapsed: 0.0005350112915039062
ell 279, elapsed: 0.0006301403045654297
ell 278, elapsed: 0.0006089210510253906
ell 277, elapsed: 0.0007338523864746094
ell 276, elapsed: 0.0005171298980712891
ell 275, elapsed: 0.0004749298095703125
ell 274, elapsed: 0.0004608631134033203
ell 273, elapsed: 0.0007648468017578125
ell 272, elapsed: 0.00048613548278808594
ell 271, elapsed: 0.00047397613525390625
ell 270, elapsed: 0.0005259513854980469
ell 269, elapsed: 0.0005831718444824219
ell 268, elapsed: 0.0003788471221923828
ell 267, elapsed: 0.00045609474182128906
ell 266, elapsed: 0.0003809928894042969
ell 265, elapsed: 0.0004940032958984375
ell 264, elapsed: 0.0003800392150878906
ell 263, elapsed: 0.0004589557647705078
ell 262, elapsed: 0.0005500316619873047
ell 261, elapsed: 0.0005438327789306641
ell 260, elapsed: 0.000370025634765625
ell 259, elapsed: 0.00047087669372558594
ell 258, elapsed: 0.0003809928894042969
ell 257, elapsed: 0.0004930496215820312
ell 256, elapsed: 0.0003840923309326172
ell 255, elapsed: 0.0004570484161376953
ell 254, elapsed: 0.0003781318664550781
ell 253, elapsed: 0.0004630088806152344
ell 252, elapsed: 0.0003809928894042969
ell 251, elapsed: 0.0004551410675048828
ell 250, elapsed: 0.00037598609924316406
ell 249, elapsed: 0.0004520416259765625
ell 248, elapsed: 0.0005660057067871094
ell 247, elapsed: 0.0005359649658203125
ell 246, elapsed: 0.0003800392150878906
ell 245, elapsed: 0.00045490264892578125
ell 244, elapsed: 0.0003800392150878906
ell 243, elapsed: 0.0004570484161376953
ell 242, elapsed: 0.0003809928894042969
ell 241, elapsed: 0.00045299530029296875
ell 240, elapsed: 0.00040793418884277344
ell 239, elapsed: 0.00046706199645996094
ell 238, elapsed: 0.0003819465637207031
ell 237, elapsed: 0.0004601478576660156
ell 236, elapsed: 0.0003800392150878906
ell 235, elapsed: 0.0004520416259765625
ell 234, elapsed: 0.0003750324249267578
ell 233, elapsed: 0.00045108795166015625
ell 232, elapsed: 0.0003769397735595703
ell 231, elapsed: 0.0006029605865478516
ell 230, elapsed: 0.0004971027374267578
ell 229, elapsed: 0.0004570484161376953
ell 228, elapsed: 0.00037598609924316406
ell 227, elapsed: 0.00045490264892578125
ell 226, elapsed: 0.0003750324249267578
ell 225, elapsed: 0.0004439353942871094
ell 224, elapsed: 0.0003719329833984375
ell 223, elapsed: 0.00047898292541503906
ell 222, elapsed: 0.0003809928894042969
ell 221, elapsed: 0.0004532337188720703
ell 220, elapsed: 0.0003731250762939453
ell 219, elapsed: 0.0004010200500488281
ell 218, elapsed: 0.0003199577331542969
ell 217, elapsed: 0.0004749298095703125
ell 216, elapsed: 0.0003769397735595703
ell 215, elapsed: 0.00045800209045410156
ell 214, elapsed: 0.000392913818359375
ell 213, elapsed: 0.00046706199645996094
ell 212, elapsed: 0.0005350112915039062
ell 211, elapsed: 0.0006289482116699219
ell 210, elapsed: 0.0005488395690917969
ell 209, elapsed: 0.0006380081176757812
ell 208, elapsed: 0.0005331039428710938
ell 207, elapsed: 0.0006539821624755859
ell 206, elapsed: 0.0005588531494140625
ell 205, elapsed: 0.0005021095275878906
ell 204, elapsed: 0.0003960132598876953
ell 203, elapsed: 0.0004699230194091797
ell 202, elapsed: 0.0003960132598876953
ell 201, elapsed: 0.0004718303680419922
ell 200, elapsed: 0.0003941059112548828
ell 199, elapsed: 0.0005040168762207031
ell 198, elapsed: 0.0003981590270996094
ell 197, elapsed: 0.000476837158203125
ell 196, elapsed: 0.00039315223693847656
ell 195, elapsed: 0.0004839897155761719
ell 194, elapsed: 0.0003960132598876953
ell 193, elapsed: 0.0004730224609375
ell 192, elapsed: 0.0003960132598876953
ell 191, elapsed: 0.00047397613525390625
ell 190, elapsed: 0.0004360675811767578
ell 189, elapsed: 0.0004839897155761719
ell 188, elapsed: 0.0003960132598876953
ell 187, elapsed: 0.0004851818084716797
ell 186, elapsed: 0.00039887428283691406
ell 185, elapsed: 0.0004839897155761719
ell 184, elapsed: 0.00039505958557128906
ell 183, elapsed: 0.0004839897155761719
ell 182, elapsed: 0.0004260540008544922
ell 181, elapsed: 0.00048804283142089844
ell 180, elapsed: 0.0003979206085205078
ell 179, elapsed: 0.00048613548278808594
ell 178, elapsed: 0.00040984153747558594
ell 177, elapsed: 0.0004899501800537109
ell 176, elapsed: 0.0004019737243652344
ell 175, elapsed: 0.00047898292541503906
ell 174, elapsed: 0.00041103363037109375
ell 173, elapsed: 0.0004968643188476562
ell 172, elapsed: 0.0003979206085205078
ell 171, elapsed: 0.0004780292510986328
ell 170, elapsed: 0.0003979206085205078
ell 169, elapsed: 0.00047588348388671875
ell 168, elapsed: 0.00039505958557128906
ell 167, elapsed: 0.0004749298095703125
ell 166, elapsed: 0.00039315223693847656
ell 165, elapsed: 0.0006651878356933594
ell 164, elapsed: 0.000453948974609375
ell 163, elapsed: 0.0004839897155761719
ell 162, elapsed: 0.00039696693420410156
ell 161, elapsed: 0.00047707557678222656
ell 160, elapsed: 0.0003979206085205078
ell 159, elapsed: 0.0004839897155761719
ell 158, elapsed: 0.0003960132598876953
ell 157, elapsed: 0.0006818771362304688
ell 156, elapsed: 0.0004668235778808594
ell 155, elapsed: 0.0004849433898925781
ell 154, elapsed: 0.00039505958557128906
ell 153, elapsed: 0.0004780292510986328
ell 152, elapsed: 0.0005428791046142578
ell 151, elapsed: 0.0005400180816650391
ell 150, elapsed: 0.0003960132598876953
ell 149, elapsed: 0.000453948974609375
ell 148, elapsed: 0.0003762245178222656
ell 147, elapsed: 0.00045490264892578125
ell 146, elapsed: 0.00037980079650878906
ell 145, elapsed: 0.00045418739318847656
ell 144, elapsed: 0.0003769397735595703
ell 143, elapsed: 0.0006229877471923828
ell 142, elapsed: 0.00043487548828125
ell 141, elapsed: 0.0004811286926269531
ell 140, elapsed: 0.0003838539123535156
ell 139, elapsed: 0.00044608116149902344
ell 138, elapsed: 0.0003719329833984375
ell 137, elapsed: 0.00045800209045410156
ell 136, elapsed: 0.00037980079650878906
ell 135, elapsed: 0.0004611015319824219
ell 134, elapsed: 0.0003809928894042969
ell 133, elapsed: 0.0005090236663818359
ell 132, elapsed: 0.00038814544677734375
ell 131, elapsed: 0.0004711151123046875
ell 130, elapsed: 0.0003800392150878906
ell 129, elapsed: 0.0004520416259765625
ell 128, elapsed: 0.0003781318664550781
ell 127, elapsed: 0.00045490264892578125
ell 126, elapsed: 0.00037789344787597656
ell 125, elapsed: 0.0004520416259765625
ell 124, elapsed: 0.0004010200500488281
ell 123, elapsed: 0.0006749629974365234
ell 122, elapsed: 0.00039887428283691406
ell 121, elapsed: 0.0004489421844482422
ell 120, elapsed: 0.00037598609924316406
ell 119, elapsed: 0.0005309581756591797
ell 118, elapsed: 0.0005328655242919922
ell 117, elapsed: 0.0004801750183105469
ell 116, elapsed: 0.00041103363037109375
ell 115, elapsed: 0.00047087669372558594
ell 114, elapsed: 0.0005447864532470703
ell 113, elapsed: 0.0007300376892089844
ell 112, elapsed: 0.0005810260772705078
ell 111, elapsed: 0.0006170272827148438
ell 110, elapsed: 0.00038504600524902344
ell 109, elapsed: 0.0004999637603759766
ell 108, elapsed: 0.0003910064697265625
ell 107, elapsed: 0.0006279945373535156
ell 106, elapsed: 0.00047087669372558594
ell 105, elapsed: 0.0004730224609375
ell 104, elapsed: 0.0003829002380371094
ell 103, elapsed: 0.0006699562072753906
ell 102, elapsed: 0.0005469322204589844
ell 101, elapsed: 0.00045490264892578125
ell 100, elapsed: 0.0003619194030761719
ell 99, elapsed: 0.00043392181396484375
ell 98, elapsed: 0.0003638267517089844
ell 97, elapsed: 0.0005898475646972656
ell 96, elapsed: 0.0004909038543701172
ell 95, elapsed: 0.0005910396575927734
ell 94, elapsed: 0.0006191730499267578
ell 93, elapsed: 0.0006229877471923828
ell 92, elapsed: 0.00037407875061035156
ell 91, elapsed: 0.0004639625549316406
ell 90, elapsed: 0.00036215782165527344
ell 89, elapsed: 0.0004379749298095703
ell 88, elapsed: 0.00035881996154785156
ell 87, elapsed: 0.0004551410675048828
ell 86, elapsed: 0.0006248950958251953
ell 85, elapsed: 0.0005660057067871094
ell 84, elapsed: 0.0005459785461425781
ell 83, elapsed: 0.0006031990051269531
ell 82, elapsed: 0.0005419254302978516
ell 81, elapsed: 0.0006120204925537109
ell 80, elapsed: 0.0005228519439697266
ell 79, elapsed: 0.0006148815155029297
ell 78, elapsed: 0.0003879070281982422
ell 77, elapsed: 0.0005960464477539062
ell 76, elapsed: 0.0006110668182373047
ell 75, elapsed: 0.0006489753723144531
ell 74, elapsed: 0.0005490779876708984
ell 73, elapsed: 0.0006878376007080078
ell 72, elapsed: 0.0005419254302978516
ell 71, elapsed: 0.0007338523864746094
ell 70, elapsed: 0.0004489421844482422
ell 69, elapsed: 0.0006580352783203125
ell 68, elapsed: 0.0005898475646972656
ell 67, elapsed: 0.0006029605865478516
ell 66, elapsed: 0.00047206878662109375
ell 65, elapsed: 0.0006570816040039062
ell 64, elapsed: 0.00040793418884277344
ell 63, elapsed: 0.0004870891571044922
ell 62, elapsed: 0.0004100799560546875
ell 61, elapsed: 0.00047779083251953125
ell 60, elapsed: 0.000392913818359375
ell 59, elapsed: 0.0004949569702148438
ell 58, elapsed: 0.0004630088806152344
ell 57, elapsed: 0.0006520748138427734
ell 56, elapsed: 0.00047206878662109375
ell 55, elapsed: 0.0006480216979980469
ell 54, elapsed: 0.00039505958557128906
ell 53, elapsed: 0.0006830692291259766
ell 52, elapsed: 0.0005238056182861328
ell 51, elapsed: 0.00047707557678222656
ell 50, elapsed: 0.0005681514739990234
ell 49, elapsed: 0.0006189346313476562
ell 48, elapsed: 0.00037384033203125
ell 47, elapsed: 0.0006530284881591797
ell 46, elapsed: 0.0006270408630371094
ell 45, elapsed: 0.0007669925689697266
ell 44, elapsed: 0.0005059242248535156
ell 43, elapsed: 0.0006639957427978516
ell 42, elapsed: 0.0004382133483886719
ell 41, elapsed: 0.0006260871887207031
ell 40, elapsed: 0.0004470348358154297
ell 39, elapsed: 0.0004718303680419922
ell 38, elapsed: 0.0005428791046142578
ell 37, elapsed: 0.0005590915679931641
ell 36, elapsed: 0.00037097930908203125
ell 35, elapsed: 0.0005850791931152344
ell 34, elapsed: 0.0005300045013427734
ell 33, elapsed: 0.0006668567657470703
ell 32, elapsed: 0.0006561279296875
ell 31, elapsed: 0.0006740093231201172
ell 30, elapsed: 0.0005290508270263672
ell 29, elapsed: 0.00046896934509277344
ell 28, elapsed: 0.0005249977111816406
ell 27, elapsed: 0.0007340908050537109
ell 26, elapsed: 0.0006580352783203125
ell 25, elapsed: 0.0006680488586425781
ell 24, elapsed: 0.0005140304565429688
ell 23, elapsed: 0.0007281303405761719
ell 22, elapsed: 0.00061798095703125
ell 21, elapsed: 0.0005900859832763672
ell 20, elapsed: 0.0003941059112548828
ell 19, elapsed: 0.0005030632019042969
ell 18, elapsed: 0.00039386749267578125
ell 17, elapsed: 0.0004820823669433594
ell 16, elapsed: 0.0003800392150878906
ell 15, elapsed: 0.00045299530029296875
ell 14, elapsed: 0.00036406517028808594
ell 13, elapsed: 0.00045609474182128906
ell 12, elapsed: 0.0004570484161376953
ell 11, elapsed: 0.0007429122924804688
ell 10, elapsed: 0.0004711151123046875
ell 9, elapsed: 0.0004611015319824219
ell 8, elapsed: 0.00038909912109375
ell 7, elapsed: 0.0006151199340820312
ell 6, elapsed: 0.0006258487701416016
ell 5, elapsed: 0.0006170272827148438
ell 4, elapsed: 0.0004839897155761719
ell 3, elapsed: 0.0006618499755859375
ell 2, elapsed: 0.0005118846893310547
ell 1, elapsed: 0.0006198883056640625
ell 0, elapsed: 0.0003910064697265625
  0.692307 seconds (41.19 k allocations: 2.939 MiB)
elapsed: 0.0008220672607421875
step:          0.076275 sec (0 allocations: 0 byte, 0.0% gc time)
swapping:      0.001011 sec (0 allocations: 0 byte, 0.0% gc time)
calc_Mellell!: 0.011846 sec (0 allocations: 0 byte, 0.0% gc time)
  t0 :  0.002657 sec (0 allocations: 0 byte, 0.0% gc time)
  tm2 : 0.107434 sec (0 allocations: 0 byte, 0.0% gc time)
  tm2s: 0.002081 sec (0 allocations: 0 byte, 0.0% gc time)
  tm4 : 0.283958 sec (0 allocations: 0 byte, 0.0% gc time)
  tp2 : 0.0 sec (0 allocations: 0 byte, 0.0% gc time)
  tp2s: 0.0 sec (0 allocations: 0 byte, 0.0% gc time)
  tp4 : 0.0 sec (0 allocations: 0 byte, 0.0% gc time)
calc_wtdll!:   0.415373 sec (9.87 k allocations: 1.043 MB, 0.0% gc time)
calc_wljj!:    0.04446 sec (689 allocations: 10.766 KB, 0.0% gc time)
mult_prefac!:  0.0 sec (0 allocations: 0 byte, 0.0% gc time)
convert:       0.0 sec (0 allocations: 0 byte, 0.0% gc time)
write:         0.063731 sec (0 allocations: 0 byte, 0.0% gc time)
test_rand_2f1: 0.0 sec (0 allocations: 0 byte, 0.0% gc time)
Closing outfile out/Ml21-cache.bin...   0.024891 seconds
  0.000526 seconds (52 allocations: 28.297 KiB)
make_phi():   0.002573 seconds (8.20 k allocations: 238.016 KiB)
  0.181016 seconds (146.69 k allocations: 3.629 MiB)
tskip:       0.001253 sec (0 allocations: 0 byte, 0.0% gc time)
tread:       0.025131 sec (19 allocations: 10.688 KB, 0.0% gc time)
tmultphi:    0.014693 sec (0 allocations: 0 byte, 0.0% gc time)
tbrfft:      0.04284 sec (9.592 k allocations: 449.625 KB, 0.0% gc time)
tmultprefac: 0.035839 sec (0 allocations: 0 byte, 0.0% gc time)
toutfunc:    0.059357 sec (129.905 k allocations: 2.421 MB, 0.0% gc time)
Testing R=1.0 ... passed
Calculating fmax: 
  dlrec    = 4
  dlrecRg1 = -4
  q=1.1, R=0.9:	  0.511798 seconds (116.47 k allocations: 15.614 MiB, 3.27% gc time)

  0.512084 seconds (116.51 k allocations: 15.648 MiB, 3.27% gc time)
ℓ = 1202
Δℓ = 4
ΔℓRg1 = -4
N = 1600
q = 1.1
kmin = 1.0e-5
kmax = 100000.00000000004
χ0 = 0.023029999999999995
RR = RR.tsv
ℓmax = ℓmax.bin
f21 = f21.bin
kmin = 1.0e-5
kmax = 100000.0
dlrec    = 4
dlrecRg1 = -4
Output size: 5741568 bytes = 0.005347251892089844 GiB
Output size: 51264 bytes = 4.774332046508789e-5 GiB
Reading 'out/F21EllCache'...   0.001137 seconds (267 allocations: 84.656 KiB)
ellmax: 1202
lmaxcache: 1202
fell[:,1,1] = Complex{Float64}[1.3482014726274674e-57 - 3.302141236118086e-73im, 1.357860004724329e-57 - 3.3257978169518355e-73im]
ell 1202, elapsed: 2.002716064453125e-5
ell 1201, elapsed: 0.0006678104400634766
ell 1200, elapsed: 0.0006380081176757812
ell 1199, elapsed: 0.0006101131439208984
ell 1198, elapsed: 0.0007240772247314453
ell 1002, elapsed: 0.011162996292114258
ell 1001, elapsed: 0.0006480216979980469
ell 1000, elapsed: 0.0005691051483154297
ell 999, elapsed: 0.0005629062652587891
ell 998, elapsed: 0.0005650520324707031
ell 902, elapsed: 0.005990028381347656
ell 901, elapsed: 0.0005340576171875
ell 900, elapsed: 0.0005550384521484375
ell 899, elapsed: 0.0005550384521484375
ell 898, elapsed: 0.000537872314453125
ell 802, elapsed: 0.006779909133911133
ell 801, elapsed: 0.0005710124969482422
ell 800, elapsed: 0.0005691051483154297
ell 799, elapsed: 0.0005638599395751953
ell 798, elapsed: 0.0006890296936035156
ell 702, elapsed: 0.006102085113525391
ell 701, elapsed: 0.0005850791931152344
ell 700, elapsed: 0.0005500316619873047
ell 699, elapsed: 0.0006749629974365234
ell 698, elapsed: 0.0004830360412597656
ell 602, elapsed: 0.006217002868652344
ell 601, elapsed: 0.0005640983581542969
ell 600, elapsed: 0.0006878376007080078
ell 599, elapsed: 0.0005609989166259766
ell 598, elapsed: 0.0005538463592529297
ell 502, elapsed: 0.012108087539672852
ell 501, elapsed: 0.0004658699035644531
ell 500, elapsed: 0.0005068778991699219
ell 499, elapsed: 0.00034809112548828125
ell 498, elapsed: 0.000347137451171875
ell 402, elapsed: 0.005570173263549805
ell 401, elapsed: 0.00038695335388183594
ell 400, elapsed: 0.0003581047058105469
ell 399, elapsed: 0.0003540515899658203
ell 398, elapsed: 0.00035691261291503906
ell 302, elapsed: 0.004984140396118164
ell 301, elapsed: 0.016517162322998047
ell 300, elapsed: 0.00036597251892089844
ell 299, elapsed: 0.0003619194030761719
ell 298, elapsed: 0.00046896934509277344
ell 202, elapsed: 0.005498170852661133
ell 201, elapsed: 0.0003771781921386719
ell 200, elapsed: 0.000370025634765625
ell 199, elapsed: 0.0003590583801269531
ell 198, elapsed: 0.0003600120544433594
ell 152, elapsed: 0.002766132354736328
ell 151, elapsed: 0.000370025634765625
ell 150, elapsed: 0.0003638267517089844
ell 149, elapsed: 0.00035691261291503906
ell 148, elapsed: 0.00035500526428222656
ell 127, elapsed: 0.0015549659729003906
ell 126, elapsed: 0.0003578662872314453
ell 125, elapsed: 0.0003581047058105469
ell 124, elapsed: 0.00035190582275390625
ell 123, elapsed: 0.01652979850769043
ell 114, elapsed: 0.0008409023284912109
ell 113, elapsed: 0.0003581047058105469
ell 112, elapsed: 0.00035309791564941406
ell 111, elapsed: 0.0003509521484375
ell 110, elapsed: 0.0003571510314941406
ell 102, elapsed: 0.0008809566497802734
ell 101, elapsed: 0.0003688335418701172
ell 100, elapsed: 0.00035500526428222656
ell 99, elapsed: 0.00035691261291503906
ell 98, elapsed: 0.00047588348388671875
ell 97, elapsed: 0.0004088878631591797
ell 96, elapsed: 0.0004851818084716797
ell 95, elapsed: 0.0004119873046875
ell 94, elapsed: 0.00047206878662109375
ell 93, elapsed: 0.0004000663757324219
ell 92, elapsed: 0.0004839897155761719
ell 91, elapsed: 0.0003979206085205078
ell 90, elapsed: 0.00047206878662109375
ell 89, elapsed: 0.0003960132598876953
ell 88, elapsed: 0.00046896934509277344
ell 87, elapsed: 0.0003960132598876953
ell 86, elapsed: 0.00046706199645996094
ell 85, elapsed: 0.0003998279571533203
ell 84, elapsed: 0.0004820823669433594
ell 83, elapsed: 0.0004010200500488281
ell 82, elapsed: 0.00046706199645996094
ell 81, elapsed: 0.000392913818359375
ell 80, elapsed: 0.0004680156707763672
ell 79, elapsed: 0.00039696693420410156
ell 78, elapsed: 0.0004639625549316406
ell 77, elapsed: 0.00039196014404296875
ell 76, elapsed: 0.0004649162292480469
ell 75, elapsed: 0.0045659542083740234
ell 74, elapsed: 0.0005059242248535156
ell 73, elapsed: 0.0004019737243652344
ell 72, elapsed: 0.0004730224609375
ell 71, elapsed: 0.0003979206085205078
ell 70, elapsed: 0.0004680156707763672
ell 69, elapsed: 0.00039696693420410156
ell 68, elapsed: 0.00046515464782714844
ell 67, elapsed: 0.0004100799560546875
ell 66, elapsed: 0.00047397613525390625
ell 65, elapsed: 0.0003941059112548828
ell 64, elapsed: 0.0004680156707763672
ell 63, elapsed: 0.0003941059112548828
ell 62, elapsed: 0.0004699230194091797
ell 61, elapsed: 0.0003998279571533203
ell 60, elapsed: 0.0004680156707763672
ell 59, elapsed: 0.00039887428283691406
ell 58, elapsed: 0.0005009174346923828
ell 57, elapsed: 0.0005278587341308594
ell 56, elapsed: 0.0007309913635253906
ell 55, elapsed: 0.0005340576171875
ell 54, elapsed: 0.00047087669372558594
ell 53, elapsed: 0.0003879070281982422
ell 52, elapsed: 0.00047397613525390625
ell 51, elapsed: 0.0004069805145263672
ell 50, elapsed: 0.0004799365997314453
ell 49, elapsed: 0.000392913818359375
ell 48, elapsed: 0.00047898292541503906
ell 47, elapsed: 0.00039505958557128906
ell 46, elapsed: 0.0004749298095703125
ell 45, elapsed: 0.0003960132598876953
ell 44, elapsed: 0.0006678104400634766
ell 43, elapsed: 0.00045490264892578125
ell 42, elapsed: 0.0004811286926269531
ell 41, elapsed: 0.0004780292510986328
ell 40, elapsed: 0.0006561279296875
ell 39, elapsed: 0.00038814544677734375
ell 38, elapsed: 0.0004730224609375
ell 37, elapsed: 0.0003910064697265625
ell 36, elapsed: 0.000476837158203125
ell 35, elapsed: 0.00041294097900390625
ell 34, elapsed: 0.000476837158203125
ell 33, elapsed: 0.0003910064697265625
ell 32, elapsed: 0.0004870891571044922
ell 31, elapsed: 0.00039505958557128906
ell 30, elapsed: 0.0004928112030029297
ell 29, elapsed: 0.000453948974609375
ell 28, elapsed: 0.0006620883941650391
ell 27, elapsed: 0.0004210472106933594
ell 26, elapsed: 0.0004830360412597656
ell 25, elapsed: 0.0003998279571533203
ell 24, elapsed: 0.00047516822814941406
ell 23, elapsed: 0.00039887428283691406
ell 22, elapsed: 0.00047707557678222656
ell 21, elapsed: 0.0003941059112548828
ell 20, elapsed: 0.00047087669372558594
ell 19, elapsed: 0.00039887428283691406
ell 18, elapsed: 0.0004889965057373047
ell 17, elapsed: 0.0003998279571533203
ell 16, elapsed: 0.0004730224609375
ell 15, elapsed: 0.00040411949157714844
ell 14, elapsed: 0.00047588348388671875
ell 13, elapsed: 0.0003979206085205078
ell 12, elapsed: 0.0004668235778808594
ell 11, elapsed: 0.00039696693420410156
ell 10, elapsed: 0.0005049705505371094
ell 9, elapsed: 0.0003998279571533203
ell 8, elapsed: 0.0004718303680419922
ell 7, elapsed: 0.0003979206085205078
ell 6, elapsed: 0.00046706199645996094
ell 5, elapsed: 0.0004019737243652344
ell 4, elapsed: 0.0004711151123046875
ell 3, elapsed: 0.0004010200500488281
ell 2, elapsed: 0.0004680156707763672
ell 1, elapsed: 0.00040602684020996094
ell 0, elapsed: 0.00046706199645996094
  0.183362 seconds (10.83 k allocations: 697.938 KiB)
elapsed: 0.0005030632019042969
step:          0.063657 sec (0 allocations: 0 byte, 0.0% gc time)
swapping:      0.000602 sec (0 allocations: 0 byte, 0.0% gc time)
calc_Mellell!: 0.017702 sec (0 allocations: 0 byte, 0.0% gc time)
  t0 :  0.000592 sec (0 allocations: 0 byte, 0.0% gc time)
  tm2 : 0.03037 sec (0 allocations: 0 byte, 0.0% gc time)
  tm2s: 0.000388 sec (0 allocations: 0 byte, 0.0% gc time)
  tm4 : 0.042496 sec (0 allocations: 0 byte, 0.0% gc time)
  tp2 : 0.0 sec (0 allocations: 0 byte, 0.0% gc time)
  tp2s: 0.0 sec (0 allocations: 0 byte, 0.0% gc time)
  tp4 : 0.0 sec (0 allocations: 0 byte, 0.0% gc time)
calc_wtdll!:   0.074421 sec (1.344 k allocations: 147.0 KB, 0.0% gc time)
calc_wljj!:    0.004238 sec (6 allocations: 96 byte, 0.0% gc time)
mult_prefac!:  0.0 sec (0 allocations: 0 byte, 0.0% gc time)
convert:       0.0 sec (0 allocations: 0 byte, 0.0% gc time)
write:         0.005116 sec (0 allocations: 0 byte, 0.0% gc time)
test_rand_2f1: 0.0 sec (0 allocations: 0 byte, 0.0% gc time)
Closing outfile out/Ml21-cache.bin...   0.002460 seconds
  0.000570 seconds (52 allocations: 28.297 KiB)
make_phi():   0.002524 seconds (8.20 k allocations: 238.016 KiB)
  0.017736 seconds (12.10 k allocations: 322.000 KiB)
tskip:       2.4e-5 sec (0 allocations: 0 byte, 0.0% gc time)
tread:       0.002311 sec (19 allocations: 2.172 KB, 0.0% gc time)
tmultphi:    0.00141 sec (0 allocations: 0 byte, 0.0% gc time)
tbrfft:      0.004148 sec (896 allocations: 42.0 KB, 0.0% gc time)
tmultprefac: 0.004012 sec (0 allocations: 0 byte, 0.0% gc time)
toutfunc:    0.005849 sec (10.528 k allocations: 206.5 KB, 0.0% gc time)
Testing R=0.9 ... passed
Calculating fmax: 
  dlrec    = 4
  dlrecRg1 = -4
  q=1.1, R=0.8:	  0.399285 seconds (113.61 k allocations: 15.166 MiB)

  0.399567 seconds (113.65 k allocations: 15.200 MiB)
ℓ = 1202
Δℓ = 4
ΔℓRg1 = -4
N = 1600
q = 1.1
kmin = 1.0e-5
kmax = 100000.00000000004
χ0 = 0.023029999999999995
RR = RR.tsv
ℓmax = ℓmax.bin
f21 = f21.bin
kmin = 1.0e-5
kmax = 100000.0
dlrec    = 4
dlrecRg1 = -4
Output size: 5741568 bytes = 0.005347251892089844 GiB
Output size: 51264 bytes = 4.774332046508789e-5 GiB
Reading 'out/F21EllCache'...   0.001064 seconds (267 allocations: 84.656 KiB)
ellmax: 1202
lmaxcache: 1202
fell[:,1,1] = Complex{Float64}[7.519068145690986e-120 - 1.8416405474382574e-135im, 7.541664537386155e-120 - 1.847175067190611e-135im]
ell 1202, elapsed: 2.002716064453125e-5
ell 1201, elapsed: 0.0008091926574707031
ell 1200, elapsed: 0.0006470680236816406
ell 1199, elapsed: 0.0006170272827148438
ell 1198, elapsed: 0.0006160736083984375
ell 1002, elapsed: 0.01017308235168457
ell 1001, elapsed: 0.0004329681396484375
ell 1000, elapsed: 0.0005459785461425781
ell 999, elapsed: 0.0005469322204589844
ell 998, elapsed: 0.00047707557678222656
ell 902, elapsed: 0.005322933197021484
ell 901, elapsed: 0.0003612041473388672
ell 900, elapsed: 0.00034999847412109375
ell 899, elapsed: 0.0004050731658935547
ell 898, elapsed: 0.0005590915679931641
ell 802, elapsed: 0.00527501106262207
ell 801, elapsed: 0.00045800209045410156
ell 800, elapsed: 0.00035691261291503906
ell 799, elapsed: 0.0004329681396484375
ell 798, elapsed: 0.0005578994750976562
ell 702, elapsed: 0.005621910095214844
ell 701, elapsed: 0.0003581047058105469
ell 700, elapsed: 0.00035190582275390625
ell 699, elapsed: 0.00036597251892089844
ell 698, elapsed: 0.00034809112548828125
ell 602, elapsed: 0.006382942199707031
ell 601, elapsed: 0.00041794776916503906
ell 600, elapsed: 0.0005960464477539062
ell 599, elapsed: 0.0005440711975097656
ell 598, elapsed: 0.0005450248718261719
ell 502, elapsed: 0.005313873291015625
ell 501, elapsed: 0.0004928112030029297
ell 500, elapsed: 0.0005459785461425781
ell 499, elapsed: 0.0006411075592041016
ell 498, elapsed: 0.0005238056182861328
ell 402, elapsed: 0.005393028259277344
ell 401, elapsed: 0.0003590583801269531
ell 400, elapsed: 0.0003478527069091797
ell 399, elapsed: 0.00034618377685546875
ell 398, elapsed: 0.00043201446533203125
ell 302, elapsed: 0.0051000118255615234
ell 301, elapsed: 0.000392913818359375
ell 300, elapsed: 0.00036597251892089844
ell 299, elapsed: 0.00036215782165527344
ell 298, elapsed: 0.00036787986755371094
ell 202, elapsed: 0.005434989929199219
ell 201, elapsed: 0.0003819465637207031
ell 200, elapsed: 0.00043582916259765625
ell 199, elapsed: 0.0005328655242919922
ell 198, elapsed: 0.0003571510314941406
ell 152, elapsed: 0.002971172332763672
ell 151, elapsed: 0.00037288665771484375
ell 150, elapsed: 0.0003609657287597656
ell 149, elapsed: 0.0003628730773925781
ell 148, elapsed: 0.00035881996154785156
ell 127, elapsed: 0.0016949176788330078
ell 126, elapsed: 0.0003628730773925781
ell 125, elapsed: 0.0003669261932373047
ell 124, elapsed: 0.00051116943359375
ell 123, elapsed: 0.0004482269287109375
ell 114, elapsed: 0.0008149147033691406
ell 113, elapsed: 0.0003490447998046875
ell 112, elapsed: 0.0003628730773925781
ell 111, elapsed: 0.00041604042053222656
ell 110, elapsed: 0.0005431175231933594
ell 102, elapsed: 0.0011630058288574219
ell 101, elapsed: 0.0005230903625488281
ell 100, elapsed: 0.0004239082336425781
ell 99, elapsed: 0.00034499168395996094
ell 98, elapsed: 0.0003647804260253906
ell 97, elapsed: 0.0003910064697265625
ell 96, elapsed: 0.0005021095275878906
ell 95, elapsed: 0.00037789344787597656
ell 94, elapsed: 0.00047397613525390625
ell 93, elapsed: 0.0003898143768310547
ell 92, elapsed: 0.0004680156707763672
ell 91, elapsed: 0.00038886070251464844
ell 90, elapsed: 0.0004699230194091797
ell 89, elapsed: 0.00040721893310546875
ell 88, elapsed: 0.00047206878662109375
ell 87, elapsed: 0.0003921985626220703
ell 86, elapsed: 0.0004780292510986328
ell 85, elapsed: 0.0003859996795654297
ell 84, elapsed: 0.0004661083221435547
ell 83, elapsed: 0.0005600452423095703
ell 82, elapsed: 0.0007600784301757812
ell 81, elapsed: 0.0004010200500488281
ell 80, elapsed: 0.0004870891571044922
ell 79, elapsed: 0.0004329681396484375
ell 78, elapsed: 0.0005800724029541016
ell 77, elapsed: 0.0003910064697265625
ell 76, elapsed: 0.00047016143798828125
ell 75, elapsed: 0.00039505958557128906
ell 74, elapsed: 0.0004980564117431641
ell 73, elapsed: 0.0004570484161376953
ell 72, elapsed: 0.0005030632019042969
ell 71, elapsed: 0.0004401206970214844
ell 70, elapsed: 0.00048613548278808594
ell 69, elapsed: 0.00040912628173828125
ell 68, elapsed: 0.0005497932434082031
ell 67, elapsed: 0.00044989585876464844
ell 66, elapsed: 0.0006542205810546875
ell 65, elapsed: 0.0005071163177490234
ell 64, elapsed: 0.0005409717559814453
ell 63, elapsed: 0.000614166259765625
ell 62, elapsed: 0.0007190704345703125
ell 61, elapsed: 0.0005109310150146484
ell 60, elapsed: 0.0005040168762207031
ell 59, elapsed: 0.0006680488586425781
ell 58, elapsed: 0.0008199214935302734
ell 57, elapsed: 0.0006210803985595703
ell 56, elapsed: 0.0006251335144042969
ell 55, elapsed: 0.0005710124969482422
ell 54, elapsed: 0.0007710456848144531
ell 53, elapsed: 0.0006291866302490234
ell 52, elapsed: 0.0007340908050537109
ell 51, elapsed: 0.0006330013275146484
ell 50, elapsed: 0.0007388591766357422
ell 49, elapsed: 0.0004918575286865234
ell 48, elapsed: 0.00067901611328125
ell 47, elapsed: 0.00043511390686035156
ell 46, elapsed: 0.00046896934509277344
ell 45, elapsed: 0.0005011558532714844
ell 44, elapsed: 0.0007269382476806641
ell 43, elapsed: 0.00047087669372558594
ell 42, elapsed: 0.0006129741668701172
ell 41, elapsed: 0.00049591064453125
ell 40, elapsed: 0.00047278404235839844
ell 39, elapsed: 0.0003941059112548828
ell 38, elapsed: 0.0004699230194091797
ell 37, elapsed: 0.0003910064697265625
ell 36, elapsed: 0.00045990943908691406
ell 35, elapsed: 0.0003960132598876953
ell 34, elapsed: 0.0004649162292480469
ell 33, elapsed: 0.0003859996795654297
ell 32, elapsed: 0.0004830360412597656
ell 31, elapsed: 0.0003921985626220703
ell 30, elapsed: 0.0004630088806152344
ell 29, elapsed: 0.00038814544677734375
ell 28, elapsed: 0.00046896934509277344
ell 27, elapsed: 0.00055694580078125
ell 26, elapsed: 0.0005538463592529297
ell 25, elapsed: 0.0003859996795654297
ell 24, elapsed: 0.00048613548278808594
ell 23, elapsed: 0.0003819465637207031
ell 22, elapsed: 0.0004608631134033203
ell 21, elapsed: 0.0003840923309326172
ell 20, elapsed: 0.0006310939788818359
ell 19, elapsed: 0.0006120204925537109
ell 18, elapsed: 0.0007390975952148438
ell 17, elapsed: 0.0006699562072753906
[...]
ell 789, elapsed: 0.0007708072662353516
ell 788, elapsed: 0.0007829666137695312
ell 782, elapsed: 0.001477956771850586
ell 781, elapsed: 0.0007619857788085938
ell 780, elapsed: 0.0007679462432861328
ell 779, elapsed: 0.0008699893951416016
ell 778, elapsed: 0.0007829666137695312
ell 772, elapsed: 0.0015230178833007812
ell 771, elapsed: 0.0007810592651367188
ell 770, elapsed: 0.0008788108825683594
ell 769, elapsed: 0.0007679462432861328
ell 768, elapsed: 0.0007669925689697266
ell 762, elapsed: 0.0014870166778564453
ell 761, elapsed: 0.0008609294891357422
ell 760, elapsed: 0.0007798671722412109
ell 759, elapsed: 0.0007719993591308594
ell 758, elapsed: 0.0007731914520263672
ell 752, elapsed: 0.0017940998077392578
ell 751, elapsed: 0.00072479248046875
ell 750, elapsed: 0.0007741451263427734
ell 749, elapsed: 0.0007672309875488281
ell 748, elapsed: 0.0007929801940917969
ell 742, elapsed: 0.0016529560089111328
ell 741, elapsed: 0.0007150173187255859
ell 740, elapsed: 0.0007700920104980469
ell 739, elapsed: 0.0007801055908203125
ell 738, elapsed: 0.0007829666137695312
ell 732, elapsed: 0.0016739368438720703
ell 731, elapsed: 0.0007250308990478516
ell 730, elapsed: 0.0007870197296142578
ell 729, elapsed: 0.0007731914520263672
ell 728, elapsed: 0.0007679462432861328
ell 722, elapsed: 0.0016829967498779297
ell 721, elapsed: 0.0007958412170410156
ell 720, elapsed: 0.0007789134979248047
ell 719, elapsed: 0.0007660388946533203
ell 718, elapsed: 0.0007760524749755859
ell 712, elapsed: 0.0015850067138671875
ell 711, elapsed: 0.0007739067077636719
ell 710, elapsed: 0.0007660388946533203
ell 709, elapsed: 0.0007669925689697266
ell 708, elapsed: 0.0007660388946533203
ell 702, elapsed: 0.0015759468078613281
ell 701, elapsed: 0.0007719993591308594
ell 700, elapsed: 0.0007679462432861328
ell 699, elapsed: 0.0007600784301757812
ell 698, elapsed: 0.00086212158203125
ell 692, elapsed: 0.00150299072265625
ell 691, elapsed: 0.0007719993591308594
ell 690, elapsed: 0.0007679462432861328
ell 689, elapsed: 0.0008590221405029297
ell 688, elapsed: 0.0007729530334472656
ell 682, elapsed: 0.001703023910522461
ell 681, elapsed: 0.0007650852203369141
ell 680, elapsed: 0.0008721351623535156
ell 679, elapsed: 0.0007760524749755859
ell 678, elapsed: 0.0007810592651367188
ell 672, elapsed: 0.001708984375
ell 671, elapsed: 0.0007719993591308594
ell 670, elapsed: 0.0007700920104980469
ell 669, elapsed: 0.0007681846618652344
ell 668, elapsed: 0.0007660388946533203
ell 662, elapsed: 0.0015728473663330078
ell 661, elapsed: 0.0007669925689697266
ell 660, elapsed: 0.0007648468017578125
ell 659, elapsed: 0.0007619857788085938
ell 658, elapsed: 0.0009028911590576172
ell 652, elapsed: 0.0016710758209228516
ell 651, elapsed: 0.000720977783203125
ell 650, elapsed: 0.0007698535919189453
ell 649, elapsed: 0.0010628700256347656
ell 648, elapsed: 0.0007789134979248047
ell 642, elapsed: 0.0014789104461669922
ell 641, elapsed: 0.0007710456848144531
ell 640, elapsed: 0.0008141994476318359
ell 639, elapsed: 0.0007638931274414062
ell 638, elapsed: 0.0007669925689697266
ell 632, elapsed: 0.0014901161193847656
ell 631, elapsed: 0.0007848739624023438
ell 630, elapsed: 0.0007779598236083984
ell 629, elapsed: 0.0007691383361816406
ell 628, elapsed: 0.0007829666137695312
ell 622, elapsed: 0.0015301704406738281
ell 621, elapsed: 0.0007939338684082031
ell 620, elapsed: 0.0007920265197753906
ell 619, elapsed: 0.0007789134979248047
ell 618, elapsed: 0.0007739067077636719
ell 612, elapsed: 0.0016880035400390625
ell 611, elapsed: 0.0007278919219970703
ell 610, elapsed: 0.0007700920104980469
ell 609, elapsed: 0.0007560253143310547
ell 608, elapsed: 0.000782012939453125
ell 602, elapsed: 0.001486063003540039
ell 601, elapsed: 0.0007719993591308594
ell 600, elapsed: 0.0007679462432861328
ell 599, elapsed: 0.0007889270782470703
ell 598, elapsed: 0.000782012939453125
ell 592, elapsed: 0.0015180110931396484
ell 591, elapsed: 0.0007679462432861328
ell 590, elapsed: 0.0007798671722412109
ell 589, elapsed: 0.0007700920104980469
ell 588, elapsed: 0.0007641315460205078
ell 582, elapsed: 0.0016608238220214844
ell 581, elapsed: 0.0007472038269042969
ell 580, elapsed: 0.0007829666137695312
ell 579, elapsed: 0.0007741451263427734
ell 578, elapsed: 0.0007731914520263672
ell 572, elapsed: 0.0016820430755615234
ell 571, elapsed: 0.0007271766662597656
ell 570, elapsed: 0.0007770061492919922
ell 569, elapsed: 0.0007698535919189453
ell 568, elapsed: 0.0007719993591308594
ell 562, elapsed: 0.0015239715576171875
ell 561, elapsed: 0.0007710456848144531
ell 560, elapsed: 0.0007758140563964844
ell 559, elapsed: 0.0007700920104980469
ell 558, elapsed: 0.00078582763671875
ell 552, elapsed: 0.001672983169555664
ell 551, elapsed: 0.0007300376892089844
ell 550, elapsed: 0.0007729530334472656
ell 549, elapsed: 0.0007839202880859375
ell 548, elapsed: 0.0007669925689697266
ell 542, elapsed: 0.0016930103302001953
ell 541, elapsed: 0.0008471012115478516
ell 540, elapsed: 0.0008380413055419922
ell 539, elapsed: 0.0008320808410644531
ell 538, elapsed: 0.0007910728454589844
ell 532, elapsed: 0.001608133316040039
ell 531, elapsed: 0.0007891654968261719
ell 530, elapsed: 0.0007619857788085938
ell 529, elapsed: 0.0007610321044921875
ell 528, elapsed: 0.0007550716400146484
ell 522, elapsed: 0.00150299072265625
ell 521, elapsed: 0.0007560253143310547
ell 520, elapsed: 0.0007557868957519531
ell 519, elapsed: 0.0007560253143310547
ell 518, elapsed: 0.0007779598236083984
ell 512, elapsed: 0.0014710426330566406
ell 511, elapsed: 0.0007569789886474609
ell 510, elapsed: 0.0007600784301757812
ell 509, elapsed: 0.0007739067077636719
ell 508, elapsed: 0.0007569789886474609
ell 502, elapsed: 0.0014760494232177734
ell 501, elapsed: 0.0007569789886474609
ell 500, elapsed: 0.0007710456848144531
ell 499, elapsed: 0.0007569789886474609
ell 498, elapsed: 0.0007588863372802734
ell 492, elapsed: 0.0017178058624267578
ell 491, elapsed: 0.0008189678192138672
ell 490, elapsed: 0.0008289813995361328
ell 489, elapsed: 0.0008530616760253906
ell 488, elapsed: 0.0008220672607421875
ell 482, elapsed: 0.0016238689422607422
ell 481, elapsed: 0.0008368492126464844
ell 480, elapsed: 0.0008368492126464844
ell 479, elapsed: 0.0008289813995361328
ell 478, elapsed: 0.0008440017700195312
ell 472, elapsed: 0.0016548633575439453
ell 471, elapsed: 0.0008349418640136719
ell 470, elapsed: 0.0008499622344970703
ell 469, elapsed: 0.0008389949798583984
ell 468, elapsed: 0.0007648468017578125
ell 462, elapsed: 0.0015048980712890625
ell 461, elapsed: 0.0007638931274414062
ell 460, elapsed: 0.0007779598236083984
ell 459, elapsed: 0.0007541179656982422
ell 458, elapsed: 0.0007619857788085938
ell 452, elapsed: 0.0015108585357666016
ell 451, elapsed: 0.0007870197296142578
ell 450, elapsed: 0.0007631778717041016
ell 449, elapsed: 0.0007569789886474609
ell 448, elapsed: 0.0007610321044921875
ell 442, elapsed: 0.0015230178833007812
ell 441, elapsed: 0.0007600784301757812
ell 440, elapsed: 0.0007631778717041016
ell 439, elapsed: 0.0007529258728027344
ell 438, elapsed: 0.0007669925689697266
ell 432, elapsed: 0.0015139579772949219
ell 431, elapsed: 0.0007631778717041016
ell 430, elapsed: 0.0007669925689697266
ell 429, elapsed: 0.0007581710815429688
ell 428, elapsed: 0.0007581710815429688
ell 422, elapsed: 0.0014748573303222656
ell 421, elapsed: 0.000762939453125
ell 420, elapsed: 0.0007600784301757812
ell 419, elapsed: 0.0007710456848144531
ell 418, elapsed: 0.0008580684661865234
ell 412, elapsed: 0.001644134521484375
ell 411, elapsed: 0.0009491443634033203
ell 410, elapsed: 0.0009019374847412109
ell 409, elapsed: 0.0009407997131347656
ell 408, elapsed: 0.0009920597076416016
ell 402, elapsed: 0.0019659996032714844
ell 401, elapsed: 0.0009968280792236328
ell 400, elapsed: 0.0010020732879638672
ell 399, elapsed: 0.0009829998016357422
ell 398, elapsed: 0.0010669231414794922
ell 392, elapsed: 0.0019350051879882812
ell 391, elapsed: 0.0009899139404296875
ell 390, elapsed: 0.0009989738464355469
ell 389, elapsed: 0.0009839534759521484
ell 388, elapsed: 0.000988006591796875
ell 382, elapsed: 0.001940011978149414
ell 381, elapsed: 0.0009961128234863281
ell 380, elapsed: 0.0009899139404296875
ell 379, elapsed: 0.000988006591796875
ell 378, elapsed: 0.0009980201721191406
ell 372, elapsed: 0.0019359588623046875
ell 371, elapsed: 0.000990152359008789
ell 370, elapsed: 0.0009748935699462891
ell 369, elapsed: 0.0010149478912353516
ell 368, elapsed: 0.0010120868682861328
ell 362, elapsed: 0.001947164535522461
ell 361, elapsed: 0.0010099411010742188
ell 360, elapsed: 0.0010180473327636719
ell 359, elapsed: 0.0010111331939697266
ell 358, elapsed: 0.0010089874267578125
ell 352, elapsed: 0.0019838809967041016
ell 351, elapsed: 0.0010128021240234375
ell 350, elapsed: 0.0009889602661132812
ell 349, elapsed: 0.0010030269622802734
ell 348, elapsed: 0.0010080337524414062
ell 342, elapsed: 0.001962900161743164
ell 341, elapsed: 0.001010894775390625
ell 340, elapsed: 0.0010068416595458984
ell 339, elapsed: 0.0009889602661132812
ell 338, elapsed: 0.0010099411010742188
ell 332, elapsed: 0.001965045928955078
ell 331, elapsed: 0.0010030269622802734
ell 330, elapsed: 0.0010089874267578125
ell 329, elapsed: 0.0010149478912353516
ell 328, elapsed: 0.0010151863098144531
ell 322, elapsed: 0.0019609928131103516
ell 321, elapsed: 0.0010099411010742188
ell 320, elapsed: 0.001010894775390625
ell 319, elapsed: 0.0010190010070800781
ell 318, elapsed: 0.0009810924530029297
ell 312, elapsed: 0.0019290447235107422
ell 311, elapsed: 0.0009989738464355469
ell 310, elapsed: 0.000982046127319336
ell 309, elapsed: 0.000988006591796875
ell 308, elapsed: 0.0009851455688476562
ell 302, elapsed: 0.0019440650939941406
ell 301, elapsed: 0.0009851455688476562
ell 300, elapsed: 0.0009889602661132812
ell 299, elapsed: 0.001007080078125
ell 298, elapsed: 0.0009839534759521484
ell 292, elapsed: 0.0019168853759765625
ell 291, elapsed: 0.001071929931640625
ell 290, elapsed: 0.0009911060333251953
ell 289, elapsed: 0.0009860992431640625
ell 288, elapsed: 0.0012960433959960938
ell 282, elapsed: 0.0019309520721435547
ell 281, elapsed: 0.0009958744049072266
ell 280, elapsed: 0.0009989738464355469
ell 279, elapsed: 0.000993967056274414
ell 278, elapsed: 0.000990152359008789
ell 272, elapsed: 0.0019500255584716797
ell 271, elapsed: 0.001007080078125
ell 270, elapsed: 0.001007080078125
ell 269, elapsed: 0.0010027885437011719
ell 268, elapsed: 0.001004934310913086
ell 262, elapsed: 0.0019180774688720703
ell 261, elapsed: 0.0009961128234863281
ell 260, elapsed: 0.0010061264038085938
ell 259, elapsed: 0.0009908676147460938
ell 258, elapsed: 0.0009958744049072266
ell 252, elapsed: 0.0019278526306152344
ell 251, elapsed: 0.0010020732879638672
ell 250, elapsed: 0.0009949207305908203
ell 249, elapsed: 0.0009891986846923828
ell 248, elapsed: 0.0010249614715576172
ell 242, elapsed: 0.0018949508666992188
ell 241, elapsed: 0.0010068416595458984
ell 240, elapsed: 0.0010879039764404297
ell 239, elapsed: 0.0009899139404296875
ell 238, elapsed: 0.0009908676147460938
ell 232, elapsed: 0.0020139217376708984
ell 231, elapsed: 0.0009961128234863281
ell 230, elapsed: 0.0009911060333251953
ell 229, elapsed: 0.0010800361633300781
ell 228, elapsed: 0.0009970664978027344
ell 222, elapsed: 0.0019080638885498047
ell 221, elapsed: 0.0010979175567626953
ell 220, elapsed: 0.001001119613647461
ell 219, elapsed: 0.0010008811950683594
ell 218, elapsed: 0.0009920597076416016
ell 212, elapsed: 0.00201416015625
ell 211, elapsed: 0.0010008811950683594
ell 210, elapsed: 0.0009918212890625
ell 209, elapsed: 0.0010900497436523438
ell 208, elapsed: 0.000993967056274414
ell 202, elapsed: 0.0019199848175048828
ell 201, elapsed: 0.0010929107666015625
ell 200, elapsed: 0.0009899139404296875
ell 199, elapsed: 0.0009870529174804688
ell 198, elapsed: 0.0009799003601074219
ell 192, elapsed: 0.0019981861114501953
ell 191, elapsed: 0.0009920597076416016
ell 190, elapsed: 0.000988006591796875
ell 189, elapsed: 0.001110076904296875
ell 188, elapsed: 0.0009860992431640625
ell 182, elapsed: 0.002003908157348633
ell 181, elapsed: 0.0009889602661132812
ell 180, elapsed: 0.0009918212890625
ell 179, elapsed: 0.0009889602661132812
ell 178, elapsed: 0.0010859966278076172
ell 172, elapsed: 0.0019028186798095703
ell 171, elapsed: 0.0010080337524414062
ell 170, elapsed: 0.0010700225830078125
ell 169, elapsed: 0.000993967056274414
ell 168, elapsed: 0.000993967056274414
ell 162, elapsed: 0.0018138885498046875
ell 161, elapsed: 0.0006458759307861328
ell 160, elapsed: 0.0006358623504638672
ell 159, elapsed: 0.0006320476531982422
ell 158, elapsed: 0.0006351470947265625
ell 152, elapsed: 0.0013811588287353516
ell 151, elapsed: 0.0010089874267578125
ell 150, elapsed: 0.0010118484497070312
ell 149, elapsed: 0.0010089874267578125
ell 148, elapsed: 0.0010077953338623047
ell 142, elapsed: 0.0019278526306152344
ell 141, elapsed: 0.0010128021240234375
ell 140, elapsed: 0.0010170936584472656
ell 139, elapsed: 0.0010068416595458984
ell 138, elapsed: 0.001016855239868164
ell 132, elapsed: 0.0019488334655761719
ell 131, elapsed: 0.0010139942169189453
ell 130, elapsed: 0.001013040542602539
ell 129, elapsed: 0.0010230541229248047
ell 128, elapsed: 0.0010039806365966797
ell 122, elapsed: 0.0019321441650390625
ell 121, elapsed: 0.0010209083557128906
ell 120, elapsed: 0.001001119613647461
ell 119, elapsed: 0.0010089874267578125
ell 118, elapsed: 0.001010894775390625
ell 112, elapsed: 0.002084016799926758
ell 111, elapsed: 0.0009450912475585938
ell 110, elapsed: 0.0010099411010742188
ell 109, elapsed: 0.0010080337524414062
ell 108, elapsed: 0.0010089874267578125
ell 102, elapsed: 0.0018780231475830078
ell 101, elapsed: 0.0038580894470214844
ell 100, elapsed: 0.0041120052337646484
ell 99, elapsed: 0.0041239261627197266
ell 98, elapsed: 0.003837108612060547
ell 92, elapsed: 0.007175922393798828
ell 91, elapsed: 0.004104137420654297
ell 90, elapsed: 0.004168033599853516
ell 89, elapsed: 0.0041599273681640625
ell 88, elapsed: 0.0042629241943359375
ell 82, elapsed: 0.007536172866821289
ell 81, elapsed: 0.0039000511169433594
ell 80, elapsed: 0.0038979053497314453
ell 79, elapsed: 0.0038840770721435547
ell 78, elapsed: 0.0038909912109375
ell 72, elapsed: 0.007246971130371094
ell 71, elapsed: 0.0038840770721435547
ell 70, elapsed: 0.004364013671875
ell 69, elapsed: 0.0038759708404541016
ell 68, elapsed: 0.004173994064331055
ell 62, elapsed: 0.00722503662109375
ell 61, elapsed: 0.003899097442626953
ell 60, elapsed: 0.0038759708404541016
ell 59, elapsed: 0.003907203674316406
ell 58, elapsed: 0.004426002502441406
ell 52, elapsed: 0.007676124572753906
ell 51, elapsed: 0.004721164703369141
ell 50, elapsed: 0.005261898040771484
ell 49, elapsed: 0.005075931549072266
ell 48, elapsed: 0.004191160202026367
ell 42, elapsed: 0.00857400894165039
ell 41, elapsed: 0.0049800872802734375
ell 40, elapsed: 0.004870891571044922
ell 39, elapsed: 0.004608869552612305
ell 38, elapsed: 0.004637002944946289
ell 32, elapsed: 0.0071489810943603516
ell 31, elapsed: 0.004463911056518555
ell 30, elapsed: 0.0037119388580322266
ell 29, elapsed: 0.0041239261627197266
ell 28, elapsed: 0.003983974456787109
ell 22, elapsed: 0.00727081298828125
ell 21, elapsed: 0.004302024841308594
ell 20, elapsed: 0.004137992858886719
ell 19, elapsed: 0.0044629573822021484
ell 18, elapsed: 0.003932952880859375
ell 12, elapsed: 0.007071018218994141
ell 11, elapsed: 0.004742860794067383
ell 10, elapsed: 0.003429889678955078
ell 9, elapsed: 0.0035278797149658203
ell 8, elapsed: 0.005012989044189453
  0.873267 seconds (66.75 k allocations: 12.139 MiB, 2.67% gc time)
elapsed: 0.005983114242553711
step:          0.082459 sec (0 allocations: 0 byte, 0.0% gc time)
swapping:      0.000837 sec (0 allocations: 0 byte, 0.0% gc time)
calc_Mellell!: 0.0366 sec (0 allocations: 0 byte, 0.0% gc time)
  t0 :  0.010373 sec (0 allocations: 0 byte, 0.0% gc time)
  tm2 : 0.083343 sec (0 allocations: 0 byte, 0.0% gc time)
  tm2s: 0.009465 sec (0 allocations: 0 byte, 0.0% gc time)
  tm4 : 0.211238 sec (0 allocations: 0 byte, 0.0% gc time)
  tp2 : 0.0 sec (0 allocations: 0 byte, 0.0% gc time)
  tp2s: 0.0 sec (0 allocations: 0 byte, 0.0% gc time)
  tp4 : 0.0 sec (0 allocations: 0 byte, 0.0% gc time)
calc_wtdll!:   0.616221 sec (49.2 k allocations: 11.133 MB, 3.79% gc time)
calc_wljj!:    0.04099 sec (69 allocations: 1.078 KB, 0.0% gc time)
mult_prefac!:  0.0 sec (0 allocations: 0 byte, 0.0% gc time)
convert:       0.0 sec (0 allocations: 0 byte, 0.0% gc time)
write:         0.041236 sec (0 allocations: 0 byte, 0.0% gc time)
test_rand_2f1: 0.0 sec (0 allocations: 0 byte, 0.0% gc time)
Closing outfile out/MlCache/MlCache.bin...   0.000012 seconds
xi, l=0, nu=0:   0.483977 seconds (551.85 k allocations: 26.842 MiB, 5.61% gc time)
xi, l=0, nu=-2:  0.002460 seconds (144 allocations: 149.562 KiB)
Created 'out/xi.tsv'.
  q=1.1, R=0.6:	  0.802505 seconds (291.08 k allocations: 38.895 MiB, 2.66% gc time)
  q=1.1, R=0.7:	  0.898536 seconds (304.75 k allocations: 40.996 MiB, 1.98% gc time)
  q=1.1, R=0.8:	  0.881953 seconds (299.14 k allocations: 40.132 MiB)
  q=1.1, R=0.9:	  1.145892 seconds (293.57 k allocations: 39.286 MiB, 1.19% gc time)
  q=1.1, R=0.998:	 22.364107 seconds (10.67 M allocations: 823.453 MiB, 0.44% gc time)
  q=1.1, R=1.0:	  0.005399 seconds (10.24 k allocations: 768.375 KiB)

ℓ = 1000
Δℓ = 4
ΔℓRg1 = -4
N = 4096
q = 1.1
kmin = 1.0e-5
kmax = 1000.0
χ0 = 0.001
RR = RR.tsv
ℓmax = ℓmax.bin
f21 = f21.bin
kmin = 1.0e-5
kmax = 1000.0
dlrec    = 4
dlrecRg1 = -4
Output size: 1573632 bytes = 0.0014655590057373047 GiB
Output size: 786816 bytes = 0.0007327795028686523 GiB
Reading 'out/F21EllCache'...   0.001642 seconds (268 allocations: 533.531 KiB)
ellmax: 1002
lmaxcache: 1000
fell[:,1,1] = Complex{Float64}[1.7262928128202118e-224 - 4.2281979352226944e-240im, 1.7282693092099662e-224 - 4.233038955177176e-240im]
ell 1002, elapsed: 2.09808349609375e-5
ell 1001, elapsed: 0.0013248920440673828
ell 1000, elapsed: 0.0011739730834960938
ell 999, elapsed: 0.006398916244506836
ell 998, elapsed: 0.0062029361724853516
ell 44, elapsed: 0.6617209911346436
ell 43, elapsed: 0.005357027053833008
ell 42, elapsed: 0.005549907684326172
ell 41, elapsed: 0.005795001983642578
ell 40, elapsed: 0.005677938461303711
  0.706388 seconds (4.55 k allocations: 320.359 KiB)
elapsed: 0.006850004196166992
step:          0.656607 sec (0 allocations: 0 byte, 0.0% gc time)
swapping:      0.000618 sec (0 allocations: 0 byte, 0.0% gc time)
calc_Mellell!: 0.001366 sec (0 allocations: 0 byte, 0.0% gc time)
  t0 :  0.00099 sec (0 allocations: 0 byte, 0.0% gc time)
  tm2 : 0.010209 sec (0 allocations: 0 byte, 0.0% gc time)
  tm2s: 0.000758 sec (0 allocations: 0 byte, 0.0% gc time)
  tm4 : 0.028793 sec (0 allocations: 0 byte, 0.0% gc time)
  tp2 : 0.0 sec (0 allocations: 0 byte, 0.0% gc time)
  tp2s: 0.0 sec (0 allocations: 0 byte, 0.0% gc time)
  tp4 : 0.0 sec (0 allocations: 0 byte, 0.0% gc time)
calc_wtdll!:   0.041099 sec (480 allocations: 52.5 KB, 0.0% gc time)
calc_wljj!:    0.001522 sec (1 allocations: 16 byte, 0.0% gc time)
mult_prefac!:  0.0 sec (0 allocations: 0 byte, 0.0% gc time)
convert:       0.0 sec (0 allocations: 0 byte, 0.0% gc time)
write:         0.000987 sec (0 allocations: 0 byte, 0.0% gc time)
test_rand_2f1: 0.0 sec (0 allocations: 0 byte, 0.0% gc time)
Closing outfile out/MlCache/MlCache.bin...   0.001276 seconds
  0.533389 seconds (54 allocations: 67.203 KiB)
make_phi():   0.010172 seconds (80 allocations: 276.297 KiB)
  0.003729 seconds (108 allocations: 5.812 KiB)
tskip:       1.0e-6 sec (0 allocations: 0 byte, 0.0% gc time)
tread:       0.000941 sec (19 allocations: 1.312 KB, 0.0% gc time)
tmultphi:    0.000433 sec (0 allocations: 0 byte, 0.0% gc time)
tbrfft:      0.001186 sec (96 allocations: 4.5 KB, 0.0% gc time)
tmultprefac: 0.000976 sec (0 allocations: 0 byte, 0.0% gc time)
toutfunc:    0.000296 sec (0 allocations: 0 byte, 0.0% gc time)
Created 'out/wl42_jj00.tsv'.
Created 'out/wl42_jj02.tsv'.
   Testing TwoFAST tests passed 
