Julia Version 1.4.0-DEV.666
Commit 2835347ff0 (2019-12-26 15:28 UTC)
Platform Info:
  OS: Linux (x86_64-pc-linux-gnu)
  CPU: Intel(R) Xeon(R) Silver 4114 CPU @ 2.20GHz
  WORD_SIZE: 64
  LIBM: libopenlibm
  LLVM: libLLVM-8.0.1 (ORCJIT, skylake)
Environment:
  JULIA_DEPOT_PATH = ::/usr/local/share/julia

 Resolving package versions...
 Installed Reexport ───────── v0.2.0
 Installed IntelOpenMP_jll ── v2018.0.3+0
 Installed FFTW_jll ───────── v3.3.9+3
 Installed MKL_jll ────────── v2019.0.117+0
 Installed URIParser ──────── v0.4.0
 Installed AbstractAlgebra ── v0.7.1
 Installed Nemo ───────────── v0.15.1
 Installed BinaryProvider ─── v0.5.8
 Installed AbstractFFTs ───── v0.5.0
 Installed FFTW ───────────── v1.2.0
 Installed IncGammaBeta ───── v0.1.0
 Installed SpecialFunctions ─ v0.8.0
 Installed BinDeps ────────── v1.0.0
 Installed TwoFAST ────────── v0.1.0
  Updating `~/.julia/environments/v1.4/Project.toml`
  [0dd23c3e] + TwoFAST v0.1.0
  Updating `~/.julia/environments/v1.4/Manifest.toml`
  [c3fe647b] + AbstractAlgebra v0.7.1
  [621f4979] + AbstractFFTs v0.5.0
  [9e28174c] + BinDeps v1.0.0
  [b99e7846] + BinaryProvider v0.5.8
  [7a1cc6ca] + FFTW v1.2.0
  [f5851436] + FFTW_jll v3.3.9+3
  [5087d2c0] + IncGammaBeta v0.1.0
  [1d5cc7b8] + IntelOpenMP_jll v2018.0.3+0
  [856f044c] + MKL_jll v2019.0.117+0
  [2edaba10] + Nemo v0.15.1
  [189a3867] + Reexport v0.2.0
  [276daf66] + SpecialFunctions v0.8.0
  [0dd23c3e] + TwoFAST v0.1.0
  [30578b45] + URIParser v0.4.0
  [2a0f44e3] + Base64 
  [ade2ca70] + Dates 
  [8bb1440f] + DelimitedFiles 
  [8ba89e20] + Distributed 
  [b77e0a4c] + InteractiveUtils 
  [76f85450] + LibGit2 
  [8f399da3] + Libdl 
  [37e2e46d] + LinearAlgebra 
  [56ddb016] + Logging 
  [d6f4376e] + Markdown 
  [a63ad114] + Mmap 
  [44cfe95a] + Pkg 
  [de0858da] + Printf 
  [3fa0cd96] + REPL 
  [9a3f8284] + Random 
  [ea8e919c] + SHA 
  [9e88b42a] + Serialization 
  [6462fe0b] + Sockets 
  [2f01184e] + SparseArrays 
  [8dfed614] + Test 
  [cf7118a7] + UUIDs 
  [4ec0a83e] + Unicode 
  Building Nemo ────────────→ `~/.julia/packages/Nemo/qzx0m/deps/build.log`
  Updating `/tmp/jl_BONjDD/Project.toml`
 [no changes]
  Updating `/tmp/jl_BONjDD/Manifest.toml`
 [no changes]
  Building SpecialFunctions → `~/.julia/packages/SpecialFunctions/ne2iw/deps/build.log`
  Updating `/tmp/jl_63V8nc/Project.toml`
 [no changes]
  Updating `/tmp/jl_63V8nc/Manifest.toml`
 [no changes]
  Building FFTW ────────────→ `~/.julia/packages/FFTW/qqcBj/deps/build.log`
  Updating `/tmp/jl_X1If9X/Project.toml`
 [no changes]
  Updating `/tmp/jl_X1If9X/Manifest.toml`
 [no changes]
   Testing TwoFAST
 Installed Dierckx ─ v0.4.1
  Updating `/tmp/jl_8rlp2R/Project.toml`
  [39dd38d3] + Dierckx v0.4.1
  Updating `/tmp/jl_8rlp2R/Manifest.toml`
  [39dd38d3] + Dierckx v0.4.1
  Building Dierckx → `~/.julia/packages/Dierckx/9SY4A/deps/build.log`
  Updating `/tmp/jl_QF41xH/Project.toml`
 [no changes]
  Updating `/tmp/jl_QF41xH/Manifest.toml`
 [no changes]
Running sandbox
Status `/tmp/jl_8rlp2R/Project.toml`
  [39dd38d3] Dierckx v0.4.1
  [7a1cc6ca] FFTW v1.2.0
  [5087d2c0] IncGammaBeta v0.1.0
  [2edaba10] Nemo v0.15.1
  [276daf66] SpecialFunctions v0.8.0
  [0dd23c3e] TwoFAST v0.1.0
  [8bb1440f] DelimitedFiles 
  [37e2e46d] LinearAlgebra 
  [56ddb016] Logging 
  [8dfed614] Test 

Welcome to Nemo version 0.15.1

Nemo comes with absolutely no warranty whatsoever


Welcome to Nemo version 0.15.1

Nemo comes with absolutely no warranty whatsoever

Testing ξ(r), ℓ=0, ν=-1 ... passed
Testing ξ(r), ℓ=0, ν=0 ... passed
Testing ξ(r), ℓ=0, ν=1 ... passed
Testing ξ(r), ℓ=0, ν=2 ... passed
Testing ξ(r), ℓ=0, ν=3 ... passed
Testing ξ(r), ℓ=1, ν=0 ... passed
Testing ξ(r), ℓ=1, ν=1 ... passed
Testing ξ(r), ℓ=1, ν=2 ... passed
Testing ξ(r), ℓ=1, ν=3 ... passed
Testing ξ(r), ℓ=2, ν=-1 ... passed
Testing ξ(r), ℓ=2, ν=0 ... passed
Testing ξ(r), ℓ=2, ν=1 ... passed
Testing ξ(r), ℓ=2, ν=2 ... passed
Testing ξ(r), ℓ=2, ν=3 ... passed
Testing ξ(r), ℓ=3, ν=-1 ... passed
Testing ξ(r), ℓ=3, ν=0 ... passed
Testing ξ(r), ℓ=3, ν=1 ... passed
Testing ξ(r), ℓ=3, ν=2 ... passed
Testing ξ(r), ℓ=3, ν=3 ... passed
Testing ξ(r), ℓ=4, ν=-1 ... passed
Testing ξ(r), ℓ=4, ν=0 ... passed
Testing ξ(r), ℓ=4, ν=1 ... passed
Testing ξ(r), ℓ=4, ν=2 ... passed
Testing ξ(r), ℓ=4, ν=3 ... passed
Testing ξ(r) ... passed
Testing ξ′(r) ... passed
Testing ξ″(r) ... passed
Calculating fmax: 
  dlrec    = 4
  dlrecRg1 = -4
  q=1.1, R=1.1:	  4.740245 seconds (1.20 M allocations: 67.954 MiB, 3.62% gc time)

  4.776727 seconds (1.22 M allocations: 69.064 MiB, 3.59% gc time)
ℓ = 1202
Δℓ = 4
ΔℓRg1 = -4
N = 1600
q = 1.1
kmin = 1.0e-5
kmax = 100000.00000000004
χ0 = 0.023029999999999995
RR = RR.tsv
ℓmax = ℓmax.bin
f21 = f21.bin
kmin = 1.0e-5
kmax = 100000.0
dlrec    = 4
dlrecRg1 = -4
Output size: 5741568 bytes = 0.005347251892089844 GiB
Output size: 51264 bytes = 4.774332046508789e-5 GiB
Reading 'out/F21EllCache'...   0.540333 seconds (318.66 k allocations: 16.379 MiB, 4.43% gc time)
ellmax: 1202
lmaxcache: 1202
fell[:,1,1] = Complex{Float64}[3.9583795592771634e-52 - 9.695233714158177e-68im, 3.990121772925759e-52 - 9.772979714843386e-68im]
ell 1202, elapsed: 0.00011205673217773438
ell 1201, elapsed: 2.0712029933929443
ell 1200, elapsed: 0.0008080005645751953
ell 1199, elapsed: 0.0007119178771972656
ell 1198, elapsed: 0.0006859302520751953
ell 1002, elapsed: 0.00982809066772461
ell 1001, elapsed: 0.0004909038543701172
ell 1000, elapsed: 0.00047206878662109375
ell 999, elapsed: 0.0004780292510986328
ell 998, elapsed: 0.0004889965057373047
ell 902, elapsed: 0.004873037338256836
ell 901, elapsed: 0.0004968643188476562
ell 900, elapsed: 0.00047516822814941406
ell 899, elapsed: 0.00047087669372558594
ell 898, elapsed: 0.0004730224609375
ell 802, elapsed: 0.005066871643066406
ell 801, elapsed: 0.0005550384521484375
ell 800, elapsed: 0.0005669593811035156
ell 799, elapsed: 0.0005409717559814453
ell 798, elapsed: 0.0005369186401367188
ell 702, elapsed: 0.0049359798431396484
ell 701, elapsed: 0.0005400180816650391
ell 700, elapsed: 0.0005631446838378906
ell 699, elapsed: 0.0005700588226318359
ell 698, elapsed: 0.0005490779876708984
ell 602, elapsed: 0.005138874053955078
ell 601, elapsed: 0.0006630420684814453
ell 600, elapsed: 0.00055694580078125
ell 599, elapsed: 0.0005860328674316406
ell 598, elapsed: 0.0005710124969482422
ell 502, elapsed: 0.0050029754638671875
ell 501, elapsed: 0.0005590915679931641
ell 500, elapsed: 0.0005471706390380859
ell 499, elapsed: 0.0005619525909423828
ell 498, elapsed: 0.0005311965942382812
ell 402, elapsed: 0.0050809383392333984
ell 401, elapsed: 0.0005960464477539062
ell 400, elapsed: 0.0005450248718261719
ell 399, elapsed: 0.0005490779876708984
ell 398, elapsed: 0.0005500316619873047
ell 302, elapsed: 0.004976034164428711
ell 301, elapsed: 0.0005719661712646484
ell 300, elapsed: 0.000537872314453125
ell 299, elapsed: 0.0005428791046142578
ell 298, elapsed: 0.0005450248718261719
ell 202, elapsed: 0.005294084548950195
ell 201, elapsed: 0.0005290508270263672
ell 200, elapsed: 0.0005590915679931641
ell 199, elapsed: 0.0005040168762207031
ell 198, elapsed: 0.0005440711975097656
ell 152, elapsed: 0.0028519630432128906
ell 151, elapsed: 0.00047898292541503906
ell 150, elapsed: 0.0004699230194091797
ell 149, elapsed: 0.0004730224609375
ell 148, elapsed: 0.00049591064453125
ell 127, elapsed: 0.001516103744506836
ell 126, elapsed: 0.0004718303680419922
ell 125, elapsed: 0.0004680156707763672
ell 124, elapsed: 0.0004849433898925781
ell 123, elapsed: 0.00047516822814941406
ell 114, elapsed: 0.0009241104125976562
ell 113, elapsed: 0.0004730224609375
ell 112, elapsed: 0.0004749298095703125
ell 111, elapsed: 0.0004680156707763672
ell 110, elapsed: 0.0004680156707763672
ell 102, elapsed: 0.0009419918060302734
ell 101, elapsed: 0.0004870891571044922
ell 100, elapsed: 0.00046706199645996094
ell 99, elapsed: 0.0004658699035644531
ell 98, elapsed: 0.0004730224609375
ell 97, elapsed: 0.000514984130859375
ell 96, elapsed: 0.0006089210510253906
ell 95, elapsed: 0.0005099773406982422
ell 94, elapsed: 0.0006089210510253906
ell 93, elapsed: 0.0005011558532714844
ell 92, elapsed: 0.0005779266357421875
ell 91, elapsed: 0.0004990100860595703
ell 90, elapsed: 0.000576019287109375
ell 89, elapsed: 0.0005028247833251953
ell 88, elapsed: 0.0005819797515869141
ell 87, elapsed: 0.0005209445953369141
ell 86, elapsed: 0.0005991458892822266
ell 85, elapsed: 0.0005128383636474609
ell 84, elapsed: 0.0006060600280761719
ell 83, elapsed: 0.0005021095275878906
ell 82, elapsed: 0.0005848407745361328
ell 81, elapsed: 0.0005249977111816406
ell 80, elapsed: 0.00061798095703125
ell 79, elapsed: 0.0005331039428710938
ell 78, elapsed: 0.0006201267242431641
ell 77, elapsed: 0.0005130767822265625
ell 76, elapsed: 0.0005848407745361328
ell 75, elapsed: 0.0005080699920654297
ell 74, elapsed: 0.0006148815155029297
ell 73, elapsed: 0.0005879402160644531
ell 72, elapsed: 0.0005919933319091797
ell 71, elapsed: 0.0005090236663818359
ell 70, elapsed: 0.0005908012390136719
ell 69, elapsed: 0.0005600452423095703
ell 68, elapsed: 0.0006439685821533203
ell 67, elapsed: 0.0005669593811035156
ell 66, elapsed: 0.0007200241088867188
ell 65, elapsed: 0.0006320476531982422
ell 64, elapsed: 0.0005931854248046875
ell 63, elapsed: 0.0005180835723876953
ell 62, elapsed: 0.0005910396575927734
ell 61, elapsed: 0.0005359649658203125
ell 60, elapsed: 0.0005960464477539062
ell 59, elapsed: 0.0005140304565429688
ell 58, elapsed: 0.0005910396575927734
ell 57, elapsed: 0.0004980564117431641
ell 56, elapsed: 0.0005860328674316406
ell 55, elapsed: 0.0005030632019042969
ell 54, elapsed: 0.000579833984375
ell 53, elapsed: 0.0005068778991699219
ell 52, elapsed: 0.0005872249603271484
ell 51, elapsed: 0.0005588531494140625
ell 50, elapsed: 0.0006339550018310547
ell 49, elapsed: 0.0005171298980712891
ell 48, elapsed: 0.0006451606750488281
ell 47, elapsed: 0.0005171298980712891
ell 46, elapsed: 0.0005710124969482422
ell 45, elapsed: 0.0004930496215820312
ell 44, elapsed: 0.0005669593811035156
ell 43, elapsed: 0.0004987716674804688
ell 42, elapsed: 0.0005691051483154297
ell 41, elapsed: 0.0004980564117431641
ell 40, elapsed: 0.0005779266357421875
ell 39, elapsed: 0.0005750656127929688
ell 38, elapsed: 0.0006449222564697266
ell 37, elapsed: 0.0005178451538085938
ell 36, elapsed: 0.0006108283996582031
ell 35, elapsed: 0.0005660057067871094
ell 34, elapsed: 0.0006608963012695312
ell 33, elapsed: 0.0005431175231933594
ell 32, elapsed: 0.0006120204925537109
ell 31, elapsed: 0.0005490779876708984
ell 30, elapsed: 0.0006859302520751953
ell 29, elapsed: 0.0005269050598144531
ell 28, elapsed: 0.0005910396575927734
ell 27, elapsed: 0.0005228519439697266
ell 26, elapsed: 0.0005979537963867188
ell 25, elapsed: 0.0005171298980712891
ell 24, elapsed: 0.0005979537963867188
ell 23, elapsed: 0.0005259513854980469
ell 22, elapsed: 0.0005900859832763672
ell 21, elapsed: 0.0005228519439697266
ell 20, elapsed: 0.0006048679351806641
ell 19, elapsed: 0.0005190372467041016
ell 18, elapsed: 0.0005939006805419922
ell 17, elapsed: 0.0005209445953369141
ell 16, elapsed: 0.0006110668182373047
ell 15, elapsed: 0.0005080699920654297
ell 14, elapsed: 0.0005769729614257812
ell 13, elapsed: 0.0005321502685546875
ell 12, elapsed: 0.0006160736083984375
ell 11, elapsed: 0.0005609989166259766
ell 10, elapsed: 0.0005829334259033203
ell 9, elapsed: 0.0005350112915039062
ell 8, elapsed: 0.0005960464477539062
ell 7, elapsed: 0.000514984130859375
ell 6, elapsed: 0.0005919933319091797
ell 5, elapsed: 0.0005190372467041016
ell 4, elapsed: 0.0005898475646972656
ell 3, elapsed: 0.0005221366882324219
ell 2, elapsed: 0.0006070137023925781
ell 1, elapsed: 0.0005571842193603516
ell 0, elapsed: 0.0006620883941650391
  2.965405 seconds (1.75 M allocations: 85.477 MiB, 2.14% gc time)
elapsed: 0.001294851303100586
step:          0.726404 sec (402.561 k allocations: 20.278 MB, 0.0% gc time)
swapping:      0.000542 sec (0 allocations: 0 byte, 0.0% gc time)
calc_Mellell!: 0.470259 sec (296.399 k allocations: 14.958 MB, 0.0% gc time)
  t0 :  0.0 sec (0 allocations: 0 byte, 0.0% gc time)
  tm2 : 0.0 sec (0 allocations: 0 byte, 0.0% gc time)
  tm2s: 0.0 sec (0 allocations: 0 byte, 0.0% gc time)
  tm4 : 0.0 sec (0 allocations: 0 byte, 0.0% gc time)
  tp2 : 0.0 sec (0 allocations: 0 byte, 0.0% gc time)
  tp2s: 0.0 sec (0 allocations: 0 byte, 0.0% gc time)
  tp4 : 0.0 sec (0 allocations: 0 byte, 0.0% gc time)
calc_wtdll!:   0.999474 sec (525.859 k allocations: 26.376 MB, 2.77% gc time)
calc_wljj!:    0.003168 sec (6 allocations: 96 byte, 0.0% gc time)
mult_prefac!:  0.0 sec (0 allocations: 0 byte, 0.0% gc time)
convert:       0.0 sec (0 allocations: 0 byte, 0.0% gc time)
write:         0.004903 sec (0 allocations: 0 byte, 0.0% gc time)
test_rand_2f1: 0.0 sec (0 allocations: 0 byte, 0.0% gc time)
Closing outfile out/Ml21-cache.bin...   0.000108 seconds
  1.024914 seconds (8.66 k allocations: 420.969 KiB)
make_phi():   0.013886 seconds (8.20 k allocations: 238.016 KiB)
  0.274664 seconds (121.69 k allocations: 5.902 MiB, 14.86% gc time)
tskip:       2.3e-5 sec (0 allocations: 0 byte, 0.0% gc time)
tread:       0.002506 sec (19 allocations: 2.172 KB, 0.0% gc time)
tmultphi:    0.043684 sec (26.022 k allocations: 1.338 MB, 0.0% gc time)
tbrfft:      0.004424 sec (896 allocations: 42.0 KB, 0.0% gc time)
tmultprefac: 0.003745 sec (0 allocations: 0 byte, 0.0% gc time)
toutfunc:    0.220208 sec (94.104 k allocations: 4.451 MB, 18.53% gc time)
Testing R=1.1 ... passed
Calculating fmax: 
  dlrec    = 4
  dlrecRg1 = -4
  q=1.1, R=1.0:	  0.001941 seconds (4.00 k allocations: 300.375 KiB)

  0.002120 seconds (4.04 k allocations: 335.062 KiB)
ℓ = 1202
Δℓ = 4
ΔℓRg1 = -4
N = 1600
q = 1.1
kmin = 1.0e-5
kmax = 100000.00000000004
χ0 = 0.023029999999999995
RR = RR.tsv
ℓmax = ℓmax.bin
f21 = f21.bin
kmin = 1.0e-5
kmax = 100000.0
dlrec    = 4
dlrecRg1 = -4
Output size: 61465536 bytes = 0.05724424123764038 GiB
Output size: 51264 bytes = 4.774332046508789e-5 GiB
Reading 'out/F21EllCache'...   0.001081 seconds (267 allocations: 84.656 KiB)
ellmax: 1202
lmaxcache: 1202
fell[:,1,1] = Complex{Float64}[809.6031528389767 - 1.9829558194077161e-13im, 0.0 + 0.0im]
ell 1202, elapsed: 2.6941299438476562e-5
ell 1201, elapsed: 0.015947818756103516
ell 1200, elapsed: 0.0005919933319091797
ell 1199, elapsed: 0.0004329681396484375
ell 1198, elapsed: 0.0003528594970703125
ell 1197, elapsed: 0.0004038810729980469
ell 1196, elapsed: 0.00039696693420410156
ell 1195, elapsed: 0.0004971027374267578
ell 1194, elapsed: 0.0004889965057373047
ell 1193, elapsed: 0.00074005126953125
ell 1192, elapsed: 0.0005009174346923828
ell 1191, elapsed: 0.0004899501800537109
ell 1190, elapsed: 0.0003848075866699219
ell 1189, elapsed: 0.0004661083221435547
ell 1188, elapsed: 0.0004951953887939453
ell 1187, elapsed: 0.0007059574127197266
ell 1186, elapsed: 0.0006148815155029297
ell 1185, elapsed: 0.0007419586181640625
ell 1184, elapsed: 0.0004010200500488281
ell 1183, elapsed: 0.0004909038543701172
ell 1182, elapsed: 0.00040411949157714844
ell 1181, elapsed: 0.0004780292510986328
ell 1180, elapsed: 0.000408172607421875
ell 1179, elapsed: 0.0004868507385253906
ell 1178, elapsed: 0.0004050731658935547
ell 1177, elapsed: 0.0005598068237304688
ell 1176, elapsed: 0.00036215782165527344
ell 1175, elapsed: 0.0004379749298095703
ell 1174, elapsed: 0.0003590583801269531
ell 1173, elapsed: 0.000431060791015625
ell 1172, elapsed: 0.0003600120544433594
ell 1171, elapsed: 0.00043702125549316406
ell 1170, elapsed: 0.0003609657287597656
ell 1169, elapsed: 0.00043392181396484375
ell 1168, elapsed: 0.00039696693420410156
ell 1167, elapsed: 0.00042700767517089844
ell 1166, elapsed: 0.0004189014434814453
ell 1165, elapsed: 0.0005068778991699219
ell 1164, elapsed: 0.00042510032653808594
ell 1163, elapsed: 0.0005080699920654297
ell 1162, elapsed: 0.0004220008850097656
ell 1161, elapsed: 0.0005071163177490234
ell 1160, elapsed: 0.0004451274871826172
ell 1159, elapsed: 0.0005118846893310547
ell 1158, elapsed: 0.00042510032653808594
ell 1157, elapsed: 0.0005018711090087891
ell 1156, elapsed: 0.0004229545593261719
ell 1155, elapsed: 0.0005121231079101562
ell 1154, elapsed: 0.00043201446533203125
ell 1153, elapsed: 0.000514984130859375
ell 1152, elapsed: 0.0004398822784423828
ell 1151, elapsed: 0.000514984130859375
ell 1150, elapsed: 0.0004229545593261719
ell 1149, elapsed: 0.0005068778991699219
ell 1148, elapsed: 0.0004208087921142578
ell 1147, elapsed: 0.0005018711090087891
ell 1146, elapsed: 0.0004210472106933594
ell 1145, elapsed: 0.0005052089691162109
ell 1144, elapsed: 0.0004780292510986328
ell 1143, elapsed: 0.0005209445953369141
ell 1142, elapsed: 0.00042819976806640625
ell 1141, elapsed: 0.0005090236663818359
ell 1140, elapsed: 0.00042700767517089844
ell 1139, elapsed: 0.0005121231079101562
ell 1138, elapsed: 0.0004279613494873047
ell 1137, elapsed: 0.0005109310150146484
ell 1136, elapsed: 0.0004360675811767578
ell 1135, elapsed: 0.0005190372467041016
ell 1134, elapsed: 0.0004119873046875
ell 1133, elapsed: 0.0004820823669433594
ell 1132, elapsed: 0.0005168914794921875
ell 1131, elapsed: 0.0007729530334472656
ell 1130, elapsed: 0.0004239082336425781
ell 1129, elapsed: 0.0005319118499755859
ell 1128, elapsed: 0.0004150867462158203
ell 1127, elapsed: 0.0004918575286865234
ell 1126, elapsed: 0.0004210472106933594
ell 1125, elapsed: 0.0005218982696533203
ell 1124, elapsed: 0.00043201446533203125
ell 1123, elapsed: 0.0004849433898925781
ell 1122, elapsed: 0.0004169940948486328
ell 1121, elapsed: 0.0005049705505371094
ell 1120, elapsed: 0.0004260540008544922
ell 1119, elapsed: 0.0005140304565429688
ell 1118, elapsed: 0.00041794776916503906
ell 1117, elapsed: 0.0005059242248535156
ell 1116, elapsed: 0.00041794776916503906
ell 1115, elapsed: 0.0005009174346923828
ell 1114, elapsed: 0.00041413307189941406
ell 1113, elapsed: 0.0009949207305908203
ell 1112, elapsed: 0.0004229545593261719
ell 1111, elapsed: 0.0005118846893310547
ell 1110, elapsed: 0.00041604042053222656
ell 1109, elapsed: 0.0005080699920654297
ell 1108, elapsed: 0.0004010200500488281
ell 1107, elapsed: 0.0005040168762207031
ell 1106, elapsed: 0.0004138946533203125
ell 1105, elapsed: 0.0005159378051757812
ell 1104, elapsed: 0.00041794776916503906
ell 1103, elapsed: 0.0005018711090087891
ell 1102, elapsed: 0.0005362033843994141
ell 1101, elapsed: 0.0006070137023925781
ell 1100, elapsed: 0.0004069805145263672
ell 1099, elapsed: 0.0004971027374267578
ell 1098, elapsed: 0.0005171298980712891
ell 1097, elapsed: 0.0005159378051757812
ell 1096, elapsed: 0.00041484832763671875
ell 1095, elapsed: 0.0004999637603759766
ell 1094, elapsed: 0.0004200935363769531
ell 1093, elapsed: 0.0005030632019042969
ell 1092, elapsed: 0.0004189014434814453
ell 1091, elapsed: 0.0005049705505371094
ell 1090, elapsed: 0.0004329681396484375
ell 1089, elapsed: 0.0005068778991699219
ell 1088, elapsed: 0.0005860328674316406
ell 1087, elapsed: 0.0005800724029541016
ell 1086, elapsed: 0.0004191398620605469
ell 1085, elapsed: 0.0004978179931640625
ell 1084, elapsed: 0.0004189014434814453
ell 1083, elapsed: 0.0005190372467041016
ell 1082, elapsed: 0.0004210472106933594
ell 1081, elapsed: 0.0005040168762207031
ell 1080, elapsed: 0.00041794776916503906
ell 1079, elapsed: 0.0005059242248535156
ell 1078, elapsed: 0.00038814544677734375
ell 1077, elapsed: 0.0006251335144042969
ell 1076, elapsed: 0.0005009174346923828
ell 1075, elapsed: 0.0006010532379150391
ell 1074, elapsed: 0.000614166259765625
ell 1073, elapsed: 0.0006618499755859375
ell 1072, elapsed: 0.00038695335388183594
ell 1071, elapsed: 0.0004889965057373047
ell 1070, elapsed: 0.000392913818359375
ell 1069, elapsed: 0.000637054443359375
ell 1068, elapsed: 0.00048613548278808594
ell 1067, elapsed: 0.000640869140625
ell 1066, elapsed: 0.0005140304565429688
ell 1065, elapsed: 0.0006499290466308594
ell 1064, elapsed: 0.0004990100860595703
ell 1063, elapsed: 0.0005991458892822266
ell 1062, elapsed: 0.0005288124084472656
ell 1061, elapsed: 0.0006039142608642578
ell 1060, elapsed: 0.0004971027374267578
ell 1059, elapsed: 0.0006608963012695312
ell 1058, elapsed: 0.0005970001220703125
ell 1057, elapsed: 0.0005619525909423828
ell 1056, elapsed: 0.0005040168762207031
ell 1055, elapsed: 0.00067901611328125
ell 1054, elapsed: 0.00039196014404296875
ell 1053, elapsed: 0.000476837158203125
ell 1052, elapsed: 0.0004918575286865234
ell 1051, elapsed: 0.0007300376892089844
ell 1050, elapsed: 0.0005872249603271484
ell 1049, elapsed: 0.0006639957427978516
ell 1048, elapsed: 0.000537872314453125
ell 1047, elapsed: 0.0007259845733642578
ell 1046, elapsed: 0.0005350112915039062
ell 1045, elapsed: 0.0004811286926269531
ell 1044, elapsed: 0.00038814544677734375
ell 1043, elapsed: 0.0004761219024658203
ell 1042, elapsed: 0.0005860328674316406
ell 1041, elapsed: 0.0007200241088867188
ell 1040, elapsed: 0.00047898292541503906
ell 1039, elapsed: 0.0004749298095703125
ell 1038, elapsed: 0.0003859996795654297
ell 1037, elapsed: 0.000476837158203125
ell 1036, elapsed: 0.0003941059112548828
ell 1035, elapsed: 0.0006508827209472656
ell 1034, elapsed: 0.000537872314453125
ell 1033, elapsed: 0.0007321834564208984
ell 1032, elapsed: 0.0004761219024658203
ell 1031, elapsed: 0.0006618499755859375
ell 1030, elapsed: 0.0005321502685546875
ell 1029, elapsed: 0.0006361007690429688
ell 1028, elapsed: 0.0004029273986816406
ell 1027, elapsed: 0.00046706199645996094
ell 1026, elapsed: 0.0003819465637207031
ell 1025, elapsed: 0.0006189346313476562
ell 1024, elapsed: 0.0005259513854980469
ell 1023, elapsed: 0.0006699562072753906
ell 1022, elapsed: 0.0003960132598876953
ell 1021, elapsed: 0.0004661083221435547
ell 1020, elapsed: 0.0004379749298095703
ell 1019, elapsed: 0.0006768703460693359
ell 1018, elapsed: 0.0003991127014160156
ell 1017, elapsed: 0.0004718303680419922
ell 1016, elapsed: 0.00038886070251464844
ell 1015, elapsed: 0.0004870891571044922
ell 1014, elapsed: 0.0003840923309326172
ell 1013, elapsed: 0.00047397613525390625
ell 1012, elapsed: 0.0005369186401367188
ell 1011, elapsed: 0.0007281303405761719
ell 1010, elapsed: 0.00043702125549316406
ell 1009, elapsed: 0.00047898292541503906
ell 1008, elapsed: 0.0003981590270996094
ell 1007, elapsed: 0.0004799365997314453
ell 1006, elapsed: 0.00038504600524902344
ell 1005, elapsed: 0.0006470680236816406
ell 1004, elapsed: 0.0004680156707763672
ell 1003, elapsed: 0.0006699562072753906
ell 1002, elapsed: 0.0005130767822265625
ell 1001, elapsed: 0.0005850791931152344
ell 1000, elapsed: 0.0005309581756591797
ell 999, elapsed: 0.00048089027404785156
ell 998, elapsed: 0.0004069805145263672
ell 997, elapsed: 0.0006420612335205078
ell 996, elapsed: 0.0004680156707763672
ell 995, elapsed: 0.00047397613525390625
ell 994, elapsed: 0.00038504600524902344
ell 993, elapsed: 0.0006330013275146484
ell 992, elapsed: 0.0004761219024658203
ell 991, elapsed: 0.0005941390991210938
ell 990, elapsed: 0.0006041526794433594
ell 989, elapsed: 0.0006060600280761719
ell 988, elapsed: 0.00038909912109375
ell 987, elapsed: 0.00047898292541503906
ell 986, elapsed: 0.0004730224609375
ell 985, elapsed: 0.0006399154663085938
ell 984, elapsed: 0.0004019737243652344
ell 983, elapsed: 0.0004668235778808594
ell 982, elapsed: 0.0005128383636474609
ell 981, elapsed: 0.0005819797515869141
ell 980, elapsed: 0.0005099773406982422
ell 979, elapsed: 0.0006399154663085938
ell 978, elapsed: 0.00038886070251464844
ell 977, elapsed: 0.0004742145538330078
ell 976, elapsed: 0.0006630420684814453
ell 975, elapsed: 0.0004620552062988281
ell 974, elapsed: 0.00038695335388183594
ell 973, elapsed: 0.00047707557678222656
ell 972, elapsed: 0.0003821849822998047
ell 971, elapsed: 0.0005948543548583984
ell 970, elapsed: 0.0004940032958984375
ell 969, elapsed: 0.0007898807525634766
ell 968, elapsed: 0.0003979206085205078
ell 967, elapsed: 0.0004820823669433594
ell 966, elapsed: 0.00038504600524902344
ell 965, elapsed: 0.00047087669372558594
ell 964, elapsed: 0.00040221214294433594
ell 963, elapsed: 0.0004849433898925781
ell 962, elapsed: 0.0003859996795654297
ell 961, elapsed: 0.0009949207305908203
ell 960, elapsed: 0.0003910064697265625
ell 959, elapsed: 0.0004658699035644531
ell 958, elapsed: 0.0003840923309326172
ell 957, elapsed: 0.0004699230194091797
ell 956, elapsed: 0.0003819465637207031
ell 955, elapsed: 0.0004730224609375
ell 954, elapsed: 0.0003859996795654297
ell 953, elapsed: 0.0008070468902587891
ell 952, elapsed: 0.0005609989166259766
ell 951, elapsed: 0.0005438327789306641
ell 950, elapsed: 0.0003790855407714844
ell 949, elapsed: 0.00047397613525390625
ell 948, elapsed: 0.0003859996795654297
ell 947, elapsed: 0.0004649162292480469
ell 946, elapsed: 0.0009229183197021484
ell 945, elapsed: 0.0004851818084716797
ell 944, elapsed: 0.0003840923309326172
ell 943, elapsed: 0.0005991458892822266
ell 942, elapsed: 0.0004909038543701172
ell 941, elapsed: 0.00047278404235839844
ell 940, elapsed: 0.00038886070251464844
ell 939, elapsed: 0.0008080005645751953
ell 938, elapsed: 0.00038886070251464844
ell 937, elapsed: 0.0004851818084716797
ell 936, elapsed: 0.00038909912109375
ell 935, elapsed: 0.0004930496215820312
ell 934, elapsed: 0.00039696693420410156
ell 933, elapsed: 0.0004699230194091797
ell 932, elapsed: 0.0003800392150878906
ell 931, elapsed: 0.0010001659393310547
ell 930, elapsed: 0.00039005279541015625
ell 929, elapsed: 0.00047397613525390625
ell 928, elapsed: 0.00038909912109375
ell 927, elapsed: 0.00046896934509277344
ell 926, elapsed: 0.0007870197296142578
ell 925, elapsed: 0.0004930496215820312
ell 924, elapsed: 0.0003829002380371094
ell 923, elapsed: 0.00047516822814941406
ell 922, elapsed: 0.0003879070281982422
ell 921, elapsed: 0.00048089027404785156
ell 920, elapsed: 0.0003859996795654297
ell 919, elapsed: 0.00047087669372558594
ell 918, elapsed: 0.0003979206085205078
ell 917, elapsed: 0.00047016143798828125
ell 916, elapsed: 0.0017910003662109375
ell 915, elapsed: 0.0032868385314941406
ell 914, elapsed: 0.0023000240325927734
ell 913, elapsed: 0.0005581378936767578
ell 912, elapsed: 0.00039887428283691406
ell 911, elapsed: 0.0004830360412597656
ell 910, elapsed: 0.00038909912109375
ell 909, elapsed: 0.0004830360412597656
ell 908, elapsed: 0.00039005279541015625
ell 907, elapsed: 0.0009949207305908203
ell 906, elapsed: 0.0005390644073486328
ell 905, elapsed: 0.000640869140625
ell 904, elapsed: 0.00039315223693847656
ell 903, elapsed: 0.00047898292541503906
ell 902, elapsed: 0.00038814544677734375
ell 901, elapsed: 0.0009801387786865234
ell 900, elapsed: 0.00039005279541015625
ell 899, elapsed: 0.0004830360412597656
ell 898, elapsed: 0.0003948211669921875
ell 897, elapsed: 0.00047016143798828125
ell 896, elapsed: 0.00038909912109375
ell 895, elapsed: 0.00047278404235839844
ell 894, elapsed: 0.00038814544677734375
ell 893, elapsed: 0.0009829998016357422
ell 892, elapsed: 0.0003871917724609375
ell 891, elapsed: 0.00047707557678222656
ell 890, elapsed: 0.00039505958557128906
ell 889, elapsed: 0.00048089027404785156
ell 888, elapsed: 0.00039005279541015625
ell 887, elapsed: 0.00047087669372558594
ell 886, elapsed: 0.0009059906005859375
ell 885, elapsed: 0.0004780292510986328
ell 884, elapsed: 0.00038695335388183594
ell 883, elapsed: 0.0004749298095703125
ell 882, elapsed: 0.0003829002380371094
ell 881, elapsed: 0.00047016143798828125
ell 880, elapsed: 0.0003910064697265625
ell 879, elapsed: 0.0004730224609375
ell 878, elapsed: 0.0007829666137695312
ell 877, elapsed: 0.0004911422729492188
ell 876, elapsed: 0.0003800392150878906
ell 875, elapsed: 0.00047206878662109375
ell 874, elapsed: 0.0003840923309326172
ell 873, elapsed: 0.0004749298095703125
ell 872, elapsed: 0.0003859996795654297
ell 871, elapsed: 0.0004761219024658203
ell 870, elapsed: 0.00039505958557128906
ell 869, elapsed: 0.0006258487701416016
ell 868, elapsed: 0.0004699230194091797
ell 867, elapsed: 0.00047588348388671875
ell 866, elapsed: 0.00039005279541015625
ell 865, elapsed: 0.0004730224609375
ell 864, elapsed: 0.00039196014404296875
ell 863, elapsed: 0.0006961822509765625
ell 862, elapsed: 0.0003910064697265625
ell 861, elapsed: 0.0004930496215820312
ell 860, elapsed: 0.0003859996795654297
ell 859, elapsed: 0.0004839897155761719
ell 858, elapsed: 0.0003948211669921875
ell 857, elapsed: 0.0004749298095703125
ell 856, elapsed: 0.00039315223693847656
ell 855, elapsed: 0.0011780261993408203
ell 854, elapsed: 0.0005528926849365234
ell 853, elapsed: 0.0005559921264648438
ell 852, elapsed: 0.00039005279541015625
ell 851, elapsed: 0.0004680156707763672
ell 850, elapsed: 0.00038695335388183594
ell 849, elapsed: 0.0006139278411865234
ell 848, elapsed: 0.000392913818359375
ell 847, elapsed: 0.0004820823669433594
ell 846, elapsed: 0.00039005279541015625
ell 845, elapsed: 0.000476837158203125
ell 844, elapsed: 0.0003859996795654297
ell 843, elapsed: 0.0004730224609375
ell 842, elapsed: 0.00038814544677734375
ell 841, elapsed: 0.00047588348388671875
ell 840, elapsed: 0.0003948211669921875
ell 839, elapsed: 0.00048804283142089844
ell 838, elapsed: 0.00038504600524902344
ell 837, elapsed: 0.0020859241485595703
ell 836, elapsed: 0.0004630088806152344
ell 835, elapsed: 0.0004849433898925781
ell 834, elapsed: 0.00039005279541015625
ell 833, elapsed: 0.000698089599609375
ell 832, elapsed: 0.0006508827209472656
ell 831, elapsed: 0.0006501674652099609
ell 830, elapsed: 0.000392913818359375
ell 829, elapsed: 0.0004928112030029297
ell 828, elapsed: 0.0004000663757324219
ell 827, elapsed: 0.0004971027374267578
ell 826, elapsed: 0.0005650520324707031
ell 825, elapsed: 0.0004799365997314453
ell 824, elapsed: 0.0005609989166259766
ell 823, elapsed: 0.0006520748138427734
ell 822, elapsed: 0.0005700588226318359
ell 821, elapsed: 0.00047397613525390625
ell 820, elapsed: 0.0003840923309326172
ell 819, elapsed: 0.0004630088806152344
ell 818, elapsed: 0.0003859996795654297
ell 817, elapsed: 0.00047588348388671875
ell 816, elapsed: 0.00038695335388183594
ell 815, elapsed: 0.0006201267242431641
ell 814, elapsed: 0.0003838539123535156
ell 813, elapsed: 0.00046896934509277344
ell 812, elapsed: 0.00038504600524902344
ell 811, elapsed: 0.00047397613525390625
ell 810, elapsed: 0.0003859996795654297
ell 809, elapsed: 0.0004761219024658203
ell 808, elapsed: 0.00038695335388183594
ell 807, elapsed: 0.0006189346313476562
ell 806, elapsed: 0.0007359981536865234
ell 805, elapsed: 0.0004780292510986328
ell 804, elapsed: 0.00038695335388183594
ell 803, elapsed: 0.00046896934509277344
ell 802, elapsed: 0.0003840923309326172
ell 801, elapsed: 0.00047707557678222656
ell 800, elapsed: 0.0003790855407714844
ell 799, elapsed: 0.0005979537963867188
ell 798, elapsed: 0.00039005279541015625
ell 797, elapsed: 0.0004780292510986328
ell 796, elapsed: 0.0003840923309326172
ell 795, elapsed: 0.0004730224609375
ell 794, elapsed: 0.0003848075866699219
ell 793, elapsed: 0.0004730224609375
ell 792, elapsed: 0.00038695335388183594
ell 791, elapsed: 0.0006208419799804688
ell 790, elapsed: 0.0003840923309326172
ell 789, elapsed: 0.0004792213439941406
ell 788, elapsed: 0.0003859996795654297
ell 787, elapsed: 0.0008528232574462891
ell 786, elapsed: 0.000392913818359375
ell 785, elapsed: 0.0004780292510986328
ell 784, elapsed: 0.00038695335388183594
ell 783, elapsed: 0.00048613548278808594
ell 782, elapsed: 0.00038504600524902344
ell 781, elapsed: 0.00047898292541503906
ell 780, elapsed: 0.0006120204925537109
ell 779, elapsed: 0.00047898292541503906
ell 778, elapsed: 0.0006480216979980469
ell 777, elapsed: 0.000476837158203125
ell 776, elapsed: 0.00039887428283691406
ell 775, elapsed: 0.00047206878662109375
ell 774, elapsed: 0.0005958080291748047
ell 773, elapsed: 0.0004718303680419922
ell 772, elapsed: 0.0003829002380371094
ell 771, elapsed: 0.00047898292541503906
ell 770, elapsed: 0.0010280609130859375
ell 769, elapsed: 0.00049591064453125
ell 768, elapsed: 0.0003859996795654297
ell 767, elapsed: 0.0010509490966796875
ell 766, elapsed: 0.0005440711975097656
ell 765, elapsed: 0.0005538463592529297
ell 764, elapsed: 0.00038695335388183594
ell 763, elapsed: 0.0015377998352050781
ell 762, elapsed: 0.0003859996795654297
ell 761, elapsed: 0.0004730224609375
ell 760, elapsed: 0.0003859996795654297
ell 759, elapsed: 0.0004711151123046875
ell 758, elapsed: 0.00038504600524902344
ell 757, elapsed: 0.0004761219024658203
ell 756, elapsed: 0.0005278587341308594
ell 755, elapsed: 0.0004839897155761719
ell 754, elapsed: 0.0003898143768310547
ell 753, elapsed: 0.00047278404235839844
ell 752, elapsed: 0.0003819465637207031
ell 751, elapsed: 0.00047206878662109375
ell 750, elapsed: 0.0003840923309326172
ell 749, elapsed: 0.00047087669372558594
ell 748, elapsed: 0.0005278587341308594
ell 747, elapsed: 0.0004830360412597656
ell 746, elapsed: 0.0003859996795654297
ell 745, elapsed: 0.00048279762268066406
ell 744, elapsed: 0.00038695335388183594
ell 743, elapsed: 0.0009090900421142578
ell 742, elapsed: 0.0003921985626220703
ell 741, elapsed: 0.0004730224609375
ell 740, elapsed: 0.0008950233459472656
ell 739, elapsed: 0.0004858970642089844
ell 738, elapsed: 0.00039196014404296875
ell 737, elapsed: 0.0004780292510986328
ell 736, elapsed: 0.00038504600524902344
ell 735, elapsed: 0.001119852066040039
ell 734, elapsed: 0.0004119873046875
ell 733, elapsed: 0.0004780292510986328
ell 732, elapsed: 0.00039505958557128906
ell 731, elapsed: 0.000469207763671875
ell 730, elapsed: 0.00038504600524902344
ell 729, elapsed: 0.00047278404235839844
ell 728, elapsed: 0.00038909912109375
ell 727, elapsed: 0.00046896934509277344
ell 726, elapsed: 0.0005290508270263672
ell 725, elapsed: 0.0004849433898925781
ell 724, elapsed: 0.0003879070281982422
ell 723, elapsed: 0.0004680156707763672
ell 722, elapsed: 0.0003848075866699219
ell 721, elapsed: 0.00047206878662109375
ell 720, elapsed: 0.00038909912109375
ell 719, elapsed: 0.0004730224609375
ell 718, elapsed: 0.0003859996795654297
ell 717, elapsed: 0.0006871223449707031
ell 716, elapsed: 0.00039315223693847656
ell 715, elapsed: 0.0004799365997314453
ell 714, elapsed: 0.00038886070251464844
ell 713, elapsed: 0.000476837158203125
ell 712, elapsed: 0.00039196014404296875
ell 711, elapsed: 0.00047898292541503906
ell 710, elapsed: 0.0003859996795654297
ell 709, elapsed: 0.0006670951843261719
ell 708, elapsed: 0.00038695335388183594
ell 707, elapsed: 0.0004761219024658203
ell 706, elapsed: 0.00039005279541015625
ell 705, elapsed: 0.0004820823669433594
ell 704, elapsed: 0.0003859996795654297
ell 703, elapsed: 0.00047588348388671875
ell 702, elapsed: 0.00038886070251464844
ell 701, elapsed: 0.0005171298980712891
ell 700, elapsed: 0.00038695335388183594
ell 699, elapsed: 0.0004780292510986328
ell 698, elapsed: 0.00038695335388183594
ell 697, elapsed: 0.0004677772521972656
ell 696, elapsed: 0.0003859996795654297
ell 695, elapsed: 0.0004839897155761719
ell 694, elapsed: 0.00038909912109375
ell 693, elapsed: 0.0005288124084472656
ell 692, elapsed: 0.00039505958557128906
ell 691, elapsed: 0.00047707557678222656
ell 690, elapsed: 0.00038695335388183594
ell 689, elapsed: 0.0004868507385253906
ell 688, elapsed: 0.00038886070251464844
ell 687, elapsed: 0.0004661083221435547
ell 686, elapsed: 0.0003910064697265625
ell 685, elapsed: 0.0004749298095703125
ell 684, elapsed: 0.0003960132598876953
ell 683, elapsed: 0.0004780292510986328
ell 682, elapsed: 0.00039315223693847656
ell 681, elapsed: 0.00047397613525390625
ell 680, elapsed: 0.00038695335388183594
ell 679, elapsed: 0.0004799365997314453
ell 678, elapsed: 0.0003829002380371094
ell 677, elapsed: 0.0004661083221435547
ell 676, elapsed: 0.0004432201385498047
ell 675, elapsed: 0.00047278404235839844
ell 674, elapsed: 0.0003981590270996094
ell 673, elapsed: 0.0004820823669433594
ell 672, elapsed: 0.00039196014404296875
ell 671, elapsed: 0.0004858970642089844
ell 670, elapsed: 0.00039386749267578125
ell 669, elapsed: 0.0004839897155761719
ell 668, elapsed: 0.000453948974609375
ell 667, elapsed: 0.00047397613525390625
ell 666, elapsed: 0.000392913818359375
ell 665, elapsed: 0.0004730224609375
ell 664, elapsed: 0.00039076805114746094
ell 663, elapsed: 0.0004918575286865234
ell 662, elapsed: 0.0004019737243652344
ell 661, elapsed: 0.0004830360412597656
ell 660, elapsed: 0.0003921985626220703
ell 659, elapsed: 0.0004909038543701172
ell 658, elapsed: 0.00038504600524902344
ell 657, elapsed: 0.0004889965057373047
ell 656, elapsed: 0.00039005279541015625
ell 655, elapsed: 0.0004749298095703125
ell 654, elapsed: 0.0003859996795654297
ell 653, elapsed: 0.0004611015319824219
ell 652, elapsed: 0.0003840923309326172
ell 651, elapsed: 0.0005311965942382812
ell 650, elapsed: 0.0003879070281982422
ell 649, elapsed: 0.00047397613525390625
ell 648, elapsed: 0.00038909912109375
ell 647, elapsed: 0.00047588348388671875
ell 646, elapsed: 0.00038504600524902344
ell 645, elapsed: 0.0004711151123046875
ell 644, elapsed: 0.0003838539123535156
ell 643, elapsed: 0.0005340576171875
ell 642, elapsed: 0.0004000663757324219
ell 641, elapsed: 0.00047397613525390625
ell 640, elapsed: 0.00038695335388183594
ell 639, elapsed: 0.0004711151123046875
ell 638, elapsed: 0.00039005279541015625
ell 637, elapsed: 0.00046896934509277344
ell 636, elapsed: 0.00039196014404296875
ell 635, elapsed: 0.0004761219024658203
ell 634, elapsed: 0.0004630088806152344
ell 633, elapsed: 0.0005278587341308594
ell 632, elapsed: 0.00041294097900390625
ell 631, elapsed: 0.0005011558532714844
ell 630, elapsed: 0.00041794776916503906
ell 629, elapsed: 0.0005278587341308594
ell 628, elapsed: 0.00043392181396484375
ell 627, elapsed: 0.000514984130859375
ell 626, elapsed: 0.0004229545593261719
ell 625, elapsed: 0.0005080699920654297
ell 624, elapsed: 0.0004398822784423828
ell 623, elapsed: 0.0005970001220703125
ell 622, elapsed: 0.0004749298095703125
ell 621, elapsed: 0.0005691051483154297
ell 620, elapsed: 0.0004868507385253906
ell 619, elapsed: 0.0005660057067871094
ell 618, elapsed: 0.0004930496215820312
ell 617, elapsed: 0.0005939006805419922
ell 616, elapsed: 0.0004909038543701172
ell 615, elapsed: 0.0006151199340820312
ell 614, elapsed: 0.0004868507385253906
ell 613, elapsed: 0.0005750656127929688
ell 612, elapsed: 0.0004889965057373047
ell 611, elapsed: 0.0004918575286865234
ell 610, elapsed: 0.00038695335388183594
ell 609, elapsed: 0.0004870891571044922
ell 608, elapsed: 0.0003821849822998047
ell 607, elapsed: 0.0004649162292480469
ell 606, elapsed: 0.0003829002380371094
ell 605, elapsed: 0.0004680156707763672
ell 604, elapsed: 0.0003829002380371094
ell 603, elapsed: 0.0004639625549316406
ell 602, elapsed: 0.0003800392150878906
ell 601, elapsed: 0.00046515464782714844
ell 600, elapsed: 0.0005860328674316406
ell 599, elapsed: 0.00055694580078125
ell 598, elapsed: 0.000492095947265625
ell 597, elapsed: 0.0007519721984863281
ell 596, elapsed: 0.0004730224609375
ell 595, elapsed: 0.0005860328674316406
ell 594, elapsed: 0.00046896934509277344
ell 593, elapsed: 0.00055694580078125
ell 592, elapsed: 0.0004649162292480469
ell 591, elapsed: 0.0005559921264648438
ell 590, elapsed: 0.0004658699035644531
ell 589, elapsed: 0.0005931854248046875
ell 588, elapsed: 0.00047397613525390625
ell 587, elapsed: 0.0005660057067871094
ell 586, elapsed: 0.00046706199645996094
ell 585, elapsed: 0.0005681514739990234
ell 584, elapsed: 0.00047016143798828125
ell 583, elapsed: 0.0006079673767089844
ell 582, elapsed: 0.0004909038543701172
ell 581, elapsed: 0.0005688667297363281
ell 580, elapsed: 0.00046896934509277344
ell 579, elapsed: 0.0005941390991210938
ell 578, elapsed: 0.0004718303680419922
ell 577, elapsed: 0.0006020069122314453
ell 576, elapsed: 0.0004680156707763672
ell 575, elapsed: 0.0005609989166259766
ell 574, elapsed: 0.0004668235778808594
ell 573, elapsed: 0.0005629062652587891
ell 572, elapsed: 0.0004699230194091797
ell 571, elapsed: 0.0006051063537597656
ell 570, elapsed: 0.0004699230194091797
ell 569, elapsed: 0.0005590915679931641
ell 568, elapsed: 0.00046896934509277344
ell 567, elapsed: 0.0005650520324707031
ell 566, elapsed: 0.0004649162292480469
ell 565, elapsed: 0.0005910396575927734
ell 564, elapsed: 0.00047397613525390625
ell 563, elapsed: 0.0005860328674316406
ell 562, elapsed: 0.00046896934509277344
ell 561, elapsed: 0.0005609989166259766
ell 560, elapsed: 0.0004241466522216797
ell 559, elapsed: 0.00047016143798828125
ell 558, elapsed: 0.0003859996795654297
ell 557, elapsed: 0.00047588348388671875
ell 556, elapsed: 0.00038504600524902344
ell 555, elapsed: 0.00047206878662109375
ell 554, elapsed: 0.0003879070281982422
ell 553, elapsed: 0.00047397613525390625
ell 552, elapsed: 0.0004069805145263672
ell 551, elapsed: 0.0007040500640869141
ell 550, elapsed: 0.00047898292541503906
ell 549, elapsed: 0.0005550384521484375
ell 548, elapsed: 0.00047016143798828125
ell 547, elapsed: 0.0005638599395751953
ell 546, elapsed: 0.0004680156707763672
ell 545, elapsed: 0.0004918575286865234
ell 544, elapsed: 0.0003910064697265625
ell 543, elapsed: 0.00048089027404785156
ell 542, elapsed: 0.00039196014404296875
ell 541, elapsed: 0.0004820823669433594
ell 540, elapsed: 0.0004990100860595703
ell 539, elapsed: 0.0006160736083984375
ell 538, elapsed: 0.0005791187286376953
ell 537, elapsed: 0.0005748271942138672
ell 536, elapsed: 0.00047898292541503906
ell 535, elapsed: 0.0005660057067871094
ell 534, elapsed: 0.0004742145538330078
ell 533, elapsed: 0.0005691051483154297
ell 532, elapsed: 0.00042510032653808594
ell 531, elapsed: 0.0004818439483642578
ell 530, elapsed: 0.00039005279541015625
ell 529, elapsed: 0.0004801750183105469
ell 528, elapsed: 0.00039005279541015625
ell 527, elapsed: 0.0004730224609375
ell 526, elapsed: 0.0004048347473144531
ell 525, elapsed: 0.00047588348388671875
ell 524, elapsed: 0.0004401206970214844
ell 523, elapsed: 0.00047707557678222656
ell 522, elapsed: 0.0003910064697265625
ell 521, elapsed: 0.0006148815155029297
ell 520, elapsed: 0.0004680156707763672
ell 519, elapsed: 0.0004761219024658203
ell 518, elapsed: 0.0003910064697265625
ell 517, elapsed: 0.0004711151123046875
ell 516, elapsed: 0.0004401206970214844
ell 515, elapsed: 0.0005979537963867188
ell 514, elapsed: 0.0005130767822265625
ell 513, elapsed: 0.000640869140625
ell 512, elapsed: 0.0004448890686035156
ell 511, elapsed: 0.0005979537963867188
ell 510, elapsed: 0.0006139278411865234
ell 509, elapsed: 0.0006170272827148438
ell 508, elapsed: 0.00038886070251464844
ell 507, elapsed: 0.0004820823669433594
ell 506, elapsed: 0.0003910064697265625
ell 505, elapsed: 0.00047707557678222656
ell 504, elapsed: 0.00038695335388183594
ell 503, elapsed: 0.0006668567657470703
ell 502, elapsed: 0.0004220008850097656
ell 501, elapsed: 0.0005271434783935547
ell 500, elapsed: 0.00038504600524902344
ell 499, elapsed: 0.0004661083221435547
ell 498, elapsed: 0.0003879070281982422
ell 497, elapsed: 0.00046896934509277344
ell 496, elapsed: 0.0003838539123535156
ell 495, elapsed: 0.00047516822814941406
ell 494, elapsed: 0.0003910064697265625
ell 493, elapsed: 0.0005240440368652344
ell 492, elapsed: 0.00038814544677734375
ell 491, elapsed: 0.00046896934509277344
ell 490, elapsed: 0.0005338191986083984
ell 489, elapsed: 0.0006101131439208984
ell 488, elapsed: 0.00038886070251464844
ell 487, elapsed: 0.00047397613525390625
ell 486, elapsed: 0.0003921985626220703
ell 485, elapsed: 0.0005300045013427734
ell 484, elapsed: 0.00040602684020996094
ell 483, elapsed: 0.00046896934509277344
ell 482, elapsed: 0.0003960132598876953
ell 481, elapsed: 0.00047898292541503906
ell 480, elapsed: 0.0003848075866699219
ell 479, elapsed: 0.0004730224609375
ell 478, elapsed: 0.00039196014404296875
ell 477, elapsed: 0.0005228519439697266
ell 476, elapsed: 0.0003910064697265625
ell 475, elapsed: 0.0004780292510986328
ell 474, elapsed: 0.0003910064697265625
ell 473, elapsed: 0.00047898292541503906
ell 472, elapsed: 0.00038909912109375
ell 471, elapsed: 0.00047779083251953125
ell 470, elapsed: 0.0004818439483642578
ell 469, elapsed: 0.0008029937744140625
ell 468, elapsed: 0.0004489421844482422
ell 467, elapsed: 0.0004780292510986328
ell 466, elapsed: 0.000392913818359375
ell 465, elapsed: 0.0004749298095703125
ell 464, elapsed: 0.000476837158203125
ell 463, elapsed: 0.0006289482116699219
ell 462, elapsed: 0.0003809928894042969
ell 461, elapsed: 0.0005221366882324219
ell 460, elapsed: 0.0003859996795654297
ell 459, elapsed: 0.0004749298095703125
ell 458, elapsed: 0.00039005279541015625
ell 457, elapsed: 0.00047087669372558594
ell 456, elapsed: 0.00038695335388183594
ell 455, elapsed: 0.0004792213439941406
ell 454, elapsed: 0.00038695335388183594
ell 453, elapsed: 0.0005588531494140625
ell 452, elapsed: 0.00038909912109375
ell 451, elapsed: 0.00047898292541503906
ell 450, elapsed: 0.00039696693420410156
ell 449, elapsed: 0.0004801750183105469
ell 448, elapsed: 0.0003921985626220703
ell 447, elapsed: 0.0006568431854248047
ell 446, elapsed: 0.0006101131439208984
ell 445, elapsed: 0.0007538795471191406
ell 444, elapsed: 0.0006110668182373047
ell 443, elapsed: 0.0007390975952148438
ell 442, elapsed: 0.0006330013275146484
ell 441, elapsed: 0.0007469654083251953
ell 440, elapsed: 0.000621795654296875
ell 439, elapsed: 0.0007300376892089844
ell 438, elapsed: 0.0006098747253417969
ell 437, elapsed: 0.0007159709930419922
ell 436, elapsed: 0.0005280971527099609
ell 435, elapsed: 0.00047516822814941406
ell 434, elapsed: 0.00038695335388183594
ell 433, elapsed: 0.0004971027374267578
ell 432, elapsed: 0.0004029273986816406
ell 431, elapsed: 0.0004799365997314453
ell 430, elapsed: 0.0005159378051757812
ell 429, elapsed: 0.0006210803985595703
ell 428, elapsed: 0.00039887428283691406
ell 427, elapsed: 0.00048613548278808594
ell 426, elapsed: 0.0004138946533203125
ell 425, elapsed: 0.00048089027404785156
ell 424, elapsed: 0.00048804283142089844
ell 423, elapsed: 0.0006399154663085938
ell 422, elapsed: 0.0003921985626220703
ell 421, elapsed: 0.0004761219024658203
ell 420, elapsed: 0.00039196014404296875
ell 419, elapsed: 0.00047016143798828125
ell 418, elapsed: 0.00040602684020996094
ell 417, elapsed: 0.00048613548278808594
ell 416, elapsed: 0.00039196014404296875
ell 415, elapsed: 0.0004811286926269531
ell 414, elapsed: 0.0005371570587158203
ell 413, elapsed: 0.0006029605865478516
ell 412, elapsed: 0.00043892860412597656
ell 411, elapsed: 0.0006661415100097656
ell 410, elapsed: 0.0004088878631591797
ell 409, elapsed: 0.0006308555603027344
ell 408, elapsed: 0.000453948974609375
ell 407, elapsed: 0.00047898292541503906
ell 406, elapsed: 0.0003948211669921875
ell 405, elapsed: 0.0004761219024658203
ell 404, elapsed: 0.0004100799560546875
ell 403, elapsed: 0.0004990100860595703
ell 402, elapsed: 0.00039696693420410156
ell 401, elapsed: 0.00047898292541503906
ell 400, elapsed: 0.0003838539123535156
ell 399, elapsed: 0.00047016143798828125
ell 398, elapsed: 0.0003941059112548828
ell 397, elapsed: 0.00047206878662109375
ell 396, elapsed: 0.0003910064697265625
ell 395, elapsed: 0.00047206878662109375
ell 394, elapsed: 0.0004138946533203125
ell 393, elapsed: 0.0004830360412597656
ell 392, elapsed: 0.0003998279571533203
ell 391, elapsed: 0.0004811286926269531
ell 390, elapsed: 0.00038909912109375
ell 389, elapsed: 0.00047588348388671875
ell 388, elapsed: 0.0003921985626220703
ell 387, elapsed: 0.00047588348388671875
ell 386, elapsed: 0.00039386749267578125
ell 385, elapsed: 0.0004889965057373047
ell 384, elapsed: 0.0003941059112548828
ell 383, elapsed: 0.0004830360412597656
ell 382, elapsed: 0.00038909912109375
ell 381, elapsed: 0.00047898292541503906
ell 380, elapsed: 0.0003960132598876953
ell 379, elapsed: 0.00048089027404785156
ell 378, elapsed: 0.0003960132598876953
ell 377, elapsed: 0.0004990100860595703
ell 376, elapsed: 0.0003948211669921875
ell 375, elapsed: 0.00047898292541503906
ell 374, elapsed: 0.00039005279541015625
ell 373, elapsed: 0.0004780292510986328
ell 372, elapsed: 0.0003859996795654297
ell 371, elapsed: 0.0004780292510986328
ell 370, elapsed: 0.0003910064697265625
ell 369, elapsed: 0.00048613548278808594
ell 368, elapsed: 0.00039386749267578125
ell 367, elapsed: 0.00047588348388671875
ell 366, elapsed: 0.00039505958557128906
ell 365, elapsed: 0.0006539821624755859
ell 364, elapsed: 0.00045299530029296875
ell 363, elapsed: 0.00047588348388671875
ell 362, elapsed: 0.00039386749267578125
ell 361, elapsed: 0.0004930496215820312
ell 360, elapsed: 0.0005128383636474609
ell 359, elapsed: 0.0006260871887207031
ell 358, elapsed: 0.0004019737243652344
ell 357, elapsed: 0.0004868507385253906
ell 356, elapsed: 0.00039505958557128906
ell 355, elapsed: 0.00047898292541503906
ell 354, elapsed: 0.0004010200500488281
ell 353, elapsed: 0.00051116943359375
ell 352, elapsed: 0.00039196014404296875
ell 351, elapsed: 0.0006639957427978516
ell 350, elapsed: 0.0004291534423828125
ell 349, elapsed: 0.0004811286926269531
ell 348, elapsed: 0.0003910064697265625
ell 347, elapsed: 0.00047707557678222656
ell 346, elapsed: 0.0003848075866699219
ell 345, elapsed: 0.0004892349243164062
ell 344, elapsed: 0.00038909912109375
ell 343, elapsed: 0.00047397613525390625
ell 342, elapsed: 0.0003991127014160156
ell 341, elapsed: 0.0004830360412597656
ell 340, elapsed: 0.0005159378051757812
ell 339, elapsed: 0.0005958080291748047
ell 338, elapsed: 0.000392913818359375
ell 337, elapsed: 0.0004971027374267578
ell 336, elapsed: 0.00038886070251464844
ell 335, elapsed: 0.0004711151123046875
ell 334, elapsed: 0.00038814544677734375
ell 333, elapsed: 0.0004680156707763672
ell 332, elapsed: 0.0003941059112548828
ell 331, elapsed: 0.00047898292541503906
ell 330, elapsed: 0.000392913818359375
ell 329, elapsed: 0.00047397613525390625
ell 328, elapsed: 0.00041294097900390625
ell 327, elapsed: 0.00047779083251953125
ell 326, elapsed: 0.000392913818359375
ell 325, elapsed: 0.00047707557678222656
ell 324, elapsed: 0.0004019737243652344
ell 323, elapsed: 0.0006730556488037109
ell 322, elapsed: 0.00042891502380371094
ell 321, elapsed: 0.0004961490631103516
ell 320, elapsed: 0.0003960132598876953
ell 319, elapsed: 0.00047397613525390625
ell 318, elapsed: 0.00039696693420410156
ell 317, elapsed: 0.00047397613525390625
ell 316, elapsed: 0.0003910064697265625
ell 315, elapsed: 0.00047087669372558594
ell 314, elapsed: 0.00038695335388183594
ell 313, elapsed: 0.000476837158203125
ell 312, elapsed: 0.0004069805145263672
ell 311, elapsed: 0.0004830360412597656
ell 310, elapsed: 0.0003910064697265625
ell 309, elapsed: 0.00047898292541503906
ell 308, elapsed: 0.0003859996795654297
ell 307, elapsed: 0.00047588348388671875
ell 306, elapsed: 0.000392913818359375
ell 305, elapsed: 0.0004761219024658203
ell 304, elapsed: 0.00038814544677734375
ell 303, elapsed: 0.00049591064453125
ell 302, elapsed: 0.00039505958557128906
ell 301, elapsed: 0.0004799365997314453
ell 300, elapsed: 0.0003972053527832031
ell 299, elapsed: 0.0004889965057373047
ell 298, elapsed: 0.0004010200500488281
ell 297, elapsed: 0.0005040168762207031
ell 296, elapsed: 0.0003941059112548828
ell 295, elapsed: 0.0005002021789550781
ell 294, elapsed: 0.00039196014404296875
ell 293, elapsed: 0.0004749298095703125
ell 292, elapsed: 0.0003910064697265625
ell 291, elapsed: 0.0004849433898925781
ell 290, elapsed: 0.000392913818359375
ell 289, elapsed: 0.0004811286926269531
ell 288, elapsed: 0.00039386749267578125
ell 287, elapsed: 0.0004961490631103516
ell 286, elapsed: 0.00039005279541015625
ell 285, elapsed: 0.0005230903625488281
ell 284, elapsed: 0.00038909912109375
ell 283, elapsed: 0.0004730224609375
ell 282, elapsed: 0.0004010200500488281
ell 281, elapsed: 0.0004839897155761719
ell 280, elapsed: 0.0003960132598876953
ell 279, elapsed: 0.00047588348388671875
ell 278, elapsed: 0.00040602684020996094
ell 277, elapsed: 0.00047898292541503906
ell 276, elapsed: 0.0003879070281982422
ell 275, elapsed: 0.00047206878662109375
ell 274, elapsed: 0.00039505958557128906
ell 273, elapsed: 0.00047588348388671875
ell 272, elapsed: 0.00038886070251464844
ell 271, elapsed: 0.0006880760192871094
ell 270, elapsed: 0.0006339550018310547
ell 269, elapsed: 0.0007259845733642578
ell 268, elapsed: 0.0006170272827148438
ell 267, elapsed: 0.00074005126953125
ell 266, elapsed: 0.0006148815155029297
ell 265, elapsed: 0.0007579326629638672
ell 264, elapsed: 0.000614166259765625
ell 263, elapsed: 0.0007381439208984375
ell 262, elapsed: 0.0006170272827148438
ell 261, elapsed: 0.0007507801055908203
ell 260, elapsed: 0.0006170272827148438
ell 259, elapsed: 0.0007538795471191406
ell 258, elapsed: 0.0006198883056640625
ell 257, elapsed: 0.0007300376892089844
ell 256, elapsed: 0.0006248950958251953
ell 255, elapsed: 0.0007309913635253906
ell 254, elapsed: 0.0008530616760253906
ell 253, elapsed: 0.0006690025329589844
ell 252, elapsed: 0.0004589557647705078
ell 251, elapsed: 0.00048089027404785156
ell 250, elapsed: 0.000392913818359375
ell 249, elapsed: 0.0004839897155761719
ell 248, elapsed: 0.0004000663757324219
ell 247, elapsed: 0.0005939006805419922
ell 246, elapsed: 0.0004000663757324219
ell 245, elapsed: 0.0004780292510986328
ell 244, elapsed: 0.00039196014404296875
ell 243, elapsed: 0.0004680156707763672
ell 242, elapsed: 0.0003910064697265625
ell 241, elapsed: 0.0004901885986328125
ell 240, elapsed: 0.0004029273986816406
ell 239, elapsed: 0.0004858970642089844
ell 238, elapsed: 0.000576019287109375
ell 237, elapsed: 0.0005478858947753906
ell 236, elapsed: 0.0004131793975830078
ell 235, elapsed: 0.0004780292510986328
ell 234, elapsed: 0.00039696693420410156
ell 233, elapsed: 0.00047898292541503906
ell 232, elapsed: 0.00039196014404296875
ell 231, elapsed: 0.0004699230194091797
ell 230, elapsed: 0.0004971027374267578
ell 229, elapsed: 0.0004889965057373047
ell 228, elapsed: 0.00039505958557128906
ell 227, elapsed: 0.0004749298095703125
ell 226, elapsed: 0.00039196014404296875
ell 225, elapsed: 0.0004730224609375
ell 224, elapsed: 0.0003859996795654297
ell 223, elapsed: 0.0004639625549316406
ell 222, elapsed: 0.0005309581756591797
ell 221, elapsed: 0.0005528926849365234
ell 220, elapsed: 0.00045418739318847656
ell 219, elapsed: 0.0005071163177490234
ell 218, elapsed: 0.0003790855407714844
ell 217, elapsed: 0.00045609474182128906
ell 216, elapsed: 0.0003788471221923828
ell 215, elapsed: 0.00047707557678222656
ell 214, elapsed: 0.0004661083221435547
ell 213, elapsed: 0.00047397613525390625
ell 212, elapsed: 0.00039315223693847656
ell 211, elapsed: 0.0004761219024658203
ell 210, elapsed: 0.0004000663757324219
ell 209, elapsed: 0.0004818439483642578
ell 208, elapsed: 0.0003898143768310547
ell 207, elapsed: 0.0004749298095703125
ell 206, elapsed: 0.000453948974609375
ell 205, elapsed: 0.0005578994750976562
ell 204, elapsed: 0.0004570484161376953
ell 203, elapsed: 0.0005171298980712891
ell 202, elapsed: 0.00039196014404296875
ell 201, elapsed: 0.0004818439483642578
ell 200, elapsed: 0.0004000663757324219
ell 199, elapsed: 0.0004830360412597656
ell 198, elapsed: 0.00041604042053222656
ell 197, elapsed: 0.0004818439483642578
ell 196, elapsed: 0.0003979206085205078
ell 195, elapsed: 0.00047707557678222656
ell 194, elapsed: 0.0003910064697265625
ell 193, elapsed: 0.00047087669372558594
ell 192, elapsed: 0.00039386749267578125
ell 191, elapsed: 0.00047898292541503906
ell 190, elapsed: 0.0003941059112548828
ell 189, elapsed: 0.0005800724029541016
ell 188, elapsed: 0.0004589557647705078
ell 187, elapsed: 0.0005400180816650391
ell 186, elapsed: 0.00039196014404296875
ell 185, elapsed: 0.0006468296051025391
ell 184, elapsed: 0.00046515464782714844
ell 183, elapsed: 0.00047779083251953125
ell 182, elapsed: 0.00046896934509277344
ell 181, elapsed: 0.0004839897155761719
ell 180, elapsed: 0.0004658699035644531
ell 179, elapsed: 0.0006511211395263672
ell 178, elapsed: 0.00038313865661621094
ell 177, elapsed: 0.0004661083221435547
ell 176, elapsed: 0.00038695335388183594
ell 175, elapsed: 0.00047397613525390625
ell 174, elapsed: 0.0005400180816650391
ell 173, elapsed: 0.0005588531494140625
ell 172, elapsed: 0.00045490264892578125
ell 171, elapsed: 0.0004911422729492188
ell 170, elapsed: 0.00038695335388183594
ell 169, elapsed: 0.00047707557678222656
ell 168, elapsed: 0.00039315223693847656
ell 167, elapsed: 0.00048089027404785156
ell 166, elapsed: 0.0004918575286865234
ell 165, elapsed: 0.0006358623504638672
ell 164, elapsed: 0.0006110668182373047
ell 163, elapsed: 0.0007338523864746094
ell 162, elapsed: 0.0006120204925537109
ell 161, elapsed: 0.0007259845733642578
ell 160, elapsed: 0.0008609294891357422
ell 159, elapsed: 0.0008451938629150391
ell 158, elapsed: 0.0006029605865478516
ell 157, elapsed: 0.0007321834564208984
ell 156, elapsed: 0.0006160736083984375
ell 155, elapsed: 0.0008480548858642578
ell 154, elapsed: 0.00061798095703125
ell 153, elapsed: 0.0007359981536865234
ell 152, elapsed: 0.0006079673767089844
ell 151, elapsed: 0.0007231235504150391
ell 150, elapsed: 0.0008008480072021484
ell 149, elapsed: 0.0005679130554199219
ell 148, elapsed: 0.0004608631134033203
ell 147, elapsed: 0.0004830360412597656
ell 146, elapsed: 0.0003979206085205078
ell 145, elapsed: 0.000476837158203125
ell 144, elapsed: 0.0004000663757324219
ell 143, elapsed: 0.0005750656127929688
ell 142, elapsed: 0.00039315223693847656
ell 141, elapsed: 0.00047016143798828125
ell 140, elapsed: 0.000392913818359375
ell 139, elapsed: 0.00047397613525390625
ell 138, elapsed: 0.00039196014404296875
ell 137, elapsed: 0.0004780292510986328
ell 136, elapsed: 0.0003960132598876953
ell 135, elapsed: 0.0004718303680419922
ell 134, elapsed: 0.0005400180816650391
ell 133, elapsed: 0.0005850791931152344
ell 132, elapsed: 0.0004589557647705078
ell 131, elapsed: 0.0005190372467041016
ell 130, elapsed: 0.00039196014404296875
ell 129, elapsed: 0.00047397613525390625
ell 128, elapsed: 0.00039196014404296875
ell 127, elapsed: 0.00047397613525390625
ell 126, elapsed: 0.0005221366882324219
ell 125, elapsed: 0.0004718303680419922
ell 124, elapsed: 0.00039196014404296875
ell 123, elapsed: 0.00046896934509277344
ell 122, elapsed: 0.0005788803100585938
ell 121, elapsed: 0.0005860328674316406
ell 120, elapsed: 0.00039005279541015625
ell 119, elapsed: 0.0004940032958984375
ell 118, elapsed: 0.00039505958557128906
ell 117, elapsed: 0.0004718303680419922
ell 116, elapsed: 0.0003829002380371094
ell 115, elapsed: 0.00045800209045410156
ell 114, elapsed: 0.00038695335388183594
ell 113, elapsed: 0.0004649162292480469
ell 112, elapsed: 0.00038695335388183594
ell 111, elapsed: 0.0004711151123046875
ell 110, elapsed: 0.0005781650543212891
ell 109, elapsed: 0.0005650520324707031
ell 108, elapsed: 0.00046181678771972656
ell 107, elapsed: 0.0006198883056640625
ell 106, elapsed: 0.0004699230194091797
ell 105, elapsed: 0.0005528926849365234
ell 104, elapsed: 0.0004830360412597656
ell 103, elapsed: 0.0004870891571044922
ell 102, elapsed: 0.00039196014404296875
ell 101, elapsed: 0.00047397613525390625
ell 100, elapsed: 0.0003941059112548828
ell 99, elapsed: 0.00048804283142089844
ell 98, elapsed: 0.0003941059112548828
ell 97, elapsed: 0.00048089027404785156
ell 96, elapsed: 0.00039196014404296875
ell 95, elapsed: 0.0005340576171875
ell 94, elapsed: 0.0003871917724609375
ell 93, elapsed: 0.0004730224609375
ell 92, elapsed: 0.0004069805145263672
ell 91, elapsed: 0.0004811286926269531
ell 90, elapsed: 0.0003809928894042969
ell 89, elapsed: 0.00047588348388671875
ell 88, elapsed: 0.0003840923309326172
ell 87, elapsed: 0.0005879402160644531
ell 86, elapsed: 0.0004489421844482422
ell 85, elapsed: 0.0006339550018310547
ell 84, elapsed: 0.0003879070281982422
ell 83, elapsed: 0.000640869140625
ell 82, elapsed: 0.0006039142608642578
ell 81, elapsed: 0.0005559921264648438
ell 80, elapsed: 0.00047016143798828125
ell 79, elapsed: 0.00048089027404785156
ell 78, elapsed: 0.00039005279541015625
ell 77, elapsed: 0.0004658699035644531
ell 76, elapsed: 0.00038909912109375
ell 75, elapsed: 0.0007281303405761719
ell 74, elapsed: 0.00048613548278808594
ell 73, elapsed: 0.0004978179931640625
ell 72, elapsed: 0.0005390644073486328
ell 71, elapsed: 0.0004889965057373047
ell 70, elapsed: 0.0004010200500488281
ell 69, elapsed: 0.0005040168762207031
ell 68, elapsed: 0.00038695335388183594
ell 67, elapsed: 0.0006439685821533203
ell 66, elapsed: 0.0004680156707763672
ell 65, elapsed: 0.0007150173187255859
ell 64, elapsed: 0.0006260871887207031
ell 63, elapsed: 0.0007278919219970703
ell 62, elapsed: 0.0005471706390380859
ell 61, elapsed: 0.0004668235778808594
ell 60, elapsed: 0.00038504600524902344
ell 59, elapsed: 0.0004639625549316406
ell 58, elapsed: 0.0004990100860595703
ell 57, elapsed: 0.0004780292510986328
ell 56, elapsed: 0.0005660057067871094
ell 55, elapsed: 0.0007290840148925781
ell 54, elapsed: 0.0004811286926269531
ell 53, elapsed: 0.0004658699035644531
ell 52, elapsed: 0.000392913818359375
ell 51, elapsed: 0.0005619525909423828
ell 50, elapsed: 0.0005671977996826172
ell 49, elapsed: 0.0005741119384765625
ell 48, elapsed: 0.00039196014404296875
ell 47, elapsed: 0.0004589557647705078
ell 46, elapsed: 0.0003948211669921875
ell 45, elapsed: 0.0004658699035644531
ell 44, elapsed: 0.00039005279541015625
ell 43, elapsed: 0.0007531642913818359
ell 42, elapsed: 0.0005159378051757812
ell 41, elapsed: 0.0005979537963867188
ell 40, elapsed: 0.0005440711975097656
ell 39, elapsed: 0.0006191730499267578
ell 38, elapsed: 0.0005249977111816406
ell 37, elapsed: 0.0006809234619140625
ell 36, elapsed: 0.0004761219024658203
ell 35, elapsed: 0.0005998611450195312
ell 34, elapsed: 0.0006148815155029297
ell 33, elapsed: 0.0005950927734375
ell 32, elapsed: 0.0003910064697265625
ell 31, elapsed: 0.0007250308990478516
ell 30, elapsed: 0.0005159378051757812
ell 29, elapsed: 0.0004780292510986328
ell 28, elapsed: 0.000576019287109375
ell 27, elapsed: 0.0005540847778320312
ell 26, elapsed: 0.00038909912109375
ell 25, elapsed: 0.0004680156707763672
ell 24, elapsed: 0.00039196014404296875
ell 23, elapsed: 0.0004589557647705078
ell 22, elapsed: 0.00039386749267578125
ell 21, elapsed: 0.0004680156707763672
ell 20, elapsed: 0.00039386749267578125
ell 19, elapsed: 0.0004658699035644531
ell 18, elapsed: 0.0005428791046142578
ell 17, elapsed: 0.0006010532379150391
ell 16, elapsed: 0.0005049705505371094
ell 15, elapsed: 0.0007169246673583984
ell 14, elapsed: 0.000537872314453125
ell 13, elapsed: 0.0005810260772705078
ell 12, elapsed: 0.0004019737243652344
ell 11, elapsed: 0.00047397613525390625
ell 10, elapsed: 0.0003910064697265625
ell 9, elapsed: 0.00047087669372558594
ell 8, elapsed: 0.0004780292510986328
ell 7, elapsed: 0.0006470680236816406
ell 6, elapsed: 0.00039005279541015625
ell 5, elapsed: 0.0004661083221435547
ell 4, elapsed: 0.00038886070251464844
ell 3, elapsed: 0.0004718303680419922
ell 2, elapsed: 0.00039196014404296875
ell 1, elapsed: 0.0004668235778808594
ell 0, elapsed: 0.0003910064697265625
  0.669002 seconds (41.19 k allocations: 2.939 MiB)
elapsed: 0.0005841255187988281
step:          0.066322 sec (0 allocations: 0 byte, 0.0% gc time)
swapping:      0.0009 sec (0 allocations: 0 byte, 0.0% gc time)
calc_Mellell!: 0.013089 sec (0 allocations: 0 byte, 0.0% gc time)
  t0 :  0.003012 sec (0 allocations: 0 byte, 0.0% gc time)
  tm2 : 0.102283 sec (0 allocations: 0 byte, 0.0% gc time)
  tm2s: 0.001886 sec (0 allocations: 0 byte, 0.0% gc time)
  tm4 : 0.26556 sec (0 allocations: 0 byte, 0.0% gc time)
  tp2 : 0.0 sec (0 allocations: 0 byte, 0.0% gc time)
  tp2s: 0.0 sec (0 allocations: 0 byte, 0.0% gc time)
  tp4 : 0.0 sec (0 allocations: 0 byte, 0.0% gc time)
calc_wtdll!:   0.392521 sec (9.87 k allocations: 1.043 MB, 0.0% gc time)
calc_wljj!:    0.041239 sec (689 allocations: 10.766 KB, 0.0% gc time)
mult_prefac!:  0.0 sec (0 allocations: 0 byte, 0.0% gc time)
convert:       0.0 sec (0 allocations: 0 byte, 0.0% gc time)
write:         0.060567 sec (0 allocations: 0 byte, 0.0% gc time)
test_rand_2f1: 0.0 sec (0 allocations: 0 byte, 0.0% gc time)
Closing outfile out/Ml21-cache.bin...   0.022220 seconds
  0.000416 seconds (52 allocations: 28.297 KiB)
make_phi():   0.002929 seconds (8.20 k allocations: 238.016 KiB)
  0.186002 seconds (146.69 k allocations: 3.629 MiB)
tskip:       0.000926 sec (0 allocations: 0 byte, 0.0% gc time)
tread:       0.024023 sec (19 allocations: 10.688 KB, 0.0% gc time)
tmultphi:    0.013795 sec (0 allocations: 0 byte, 0.0% gc time)
tbrfft:      0.046522 sec (9.592 k allocations: 449.625 KB, 0.0% gc time)
tmultprefac: 0.041885 sec (0 allocations: 0 byte, 0.0% gc time)
toutfunc:    0.056892 sec (129.905 k allocations: 2.421 MB, 0.0% gc time)
Testing R=1.0 ... passed
Calculating fmax: 
  dlrec    = 4
  dlrecRg1 = -4
  q=1.1, R=0.9:	  0.542450 seconds (116.47 k allocations: 15.614 MiB, 3.32% gc time)

  0.542727 seconds (116.51 k allocations: 15.648 MiB, 3.32% gc time)
ℓ = 1202
Δℓ = 4
ΔℓRg1 = -4
N = 1600
q = 1.1
kmin = 1.0e-5
kmax = 100000.00000000004
χ0 = 0.023029999999999995
RR = RR.tsv
ℓmax = ℓmax.bin
f21 = f21.bin
kmin = 1.0e-5
kmax = 100000.0
dlrec    = 4
dlrecRg1 = -4
Output size: 5741568 bytes = 0.005347251892089844 GiB
Output size: 51264 bytes = 4.774332046508789e-5 GiB
Reading 'out/F21EllCache'...   0.001066 seconds (267 allocations: 84.656 KiB)
ellmax: 1202
lmaxcache: 1202
fell[:,1,1] = Complex{Float64}[1.3482014726274674e-57 - 3.302141236118086e-73im, 1.357860004724329e-57 - 3.3257978169518355e-73im]
ell 1202, elapsed: 1.6927719116210938e-5
ell 1201, elapsed: 0.0005800724029541016
ell 1200, elapsed: 0.0005948543548583984
ell 1199, elapsed: 0.0005609989166259766
ell 1198, elapsed: 0.0008749961853027344
ell 1002, elapsed: 0.010422945022583008
ell 1001, elapsed: 0.0005087852478027344
ell 1000, elapsed: 0.0005831718444824219
ell 999, elapsed: 0.0006270408630371094
ell 998, elapsed: 0.0006871223449707031
ell 902, elapsed: 0.004795074462890625
ell 901, elapsed: 0.0003750324249267578
ell 900, elapsed: 0.0004761219024658203
ell 899, elapsed: 0.0006639957427978516
ell 898, elapsed: 0.00061798095703125
ell 802, elapsed: 0.005616188049316406
ell 801, elapsed: 0.0003838539123535156
ell 800, elapsed: 0.00035309791564941406
ell 799, elapsed: 0.0003190040588378906
ell 798, elapsed: 0.0004420280456542969
ell 702, elapsed: 0.005207061767578125
ell 701, elapsed: 0.0003800392150878906
ell 700, elapsed: 0.00041413307189941406
ell 699, elapsed: 0.0005669593811035156
ell 698, elapsed: 0.0005781650543212891
ell 602, elapsed: 0.0052928924560546875
ell 601, elapsed: 0.0004627704620361328
ell 600, elapsed: 0.0004940032958984375
ell 599, elapsed: 0.0004279613494873047
ell 598, elapsed: 0.0005469322204589844
ell 502, elapsed: 0.0049860477447509766
ell 501, elapsed: 0.0004029273986816406
ell 500, elapsed: 0.00036597251892089844
ell 499, elapsed: 0.0004239082336425781
ell 498, elapsed: 0.0005359649658203125
ell 402, elapsed: 0.0052568912506103516
ell 401, elapsed: 0.0004818439483642578
ell 400, elapsed: 0.0004830360412597656
ell 399, elapsed: 0.0005090236663818359
ell 398, elapsed: 0.0004930496215820312
ell 302, elapsed: 0.005003929138183594
ell 301, elapsed: 0.00045609474182128906
ell 300, elapsed: 0.00055694580078125
ell 299, elapsed: 0.0006058216094970703
ell 298, elapsed: 0.0005059242248535156
ell 202, elapsed: 0.004925966262817383
ell 201, elapsed: 0.00047087669372558594
ell 200, elapsed: 0.0005371570587158203
ell 199, elapsed: 0.0005509853363037109
ell 198, elapsed: 0.00047087669372558594
ell 152, elapsed: 0.0029098987579345703
ell 151, elapsed: 0.0003631114959716797
ell 150, elapsed: 0.0004150867462158203
ell 149, elapsed: 0.0005369186401367188
ell 148, elapsed: 0.0004930496215820312
ell 127, elapsed: 0.0017609596252441406
ell 126, elapsed: 0.0004470348358154297
ell 125, elapsed: 0.0005509853363037109
ell 124, elapsed: 0.0005280971527099609
ell 123, elapsed: 0.00034689903259277344
ell 114, elapsed: 0.0008001327514648438
ell 113, elapsed: 0.000431060791015625
ell 112, elapsed: 0.0005419254302978516
ell 111, elapsed: 0.0004489421844482422
ell 110, elapsed: 0.0009431838989257812
ell 102, elapsed: 0.0008828639984130859
ell 101, elapsed: 0.0005469322204589844
ell 100, elapsed: 0.0006411075592041016
ell 99, elapsed: 0.0006229877471923828
ell 98, elapsed: 0.0006568431854248047
ell 97, elapsed: 0.0006651878356933594
ell 96, elapsed: 0.0008389949798583984
ell 95, elapsed: 0.0006878376007080078
ell 94, elapsed: 0.0008311271667480469
ell 93, elapsed: 0.0006740093231201172
ell 92, elapsed: 0.0005578994750976562
ell 91, elapsed: 0.0005199909210205078
ell 90, elapsed: 0.0007047653198242188
ell 89, elapsed: 0.0006759166717529297
ell 88, elapsed: 0.0008039474487304688
ell 87, elapsed: 0.00040793418884277344
ell 86, elapsed: 0.0006721019744873047
ell 85, elapsed: 0.0006740093231201172
ell 84, elapsed: 0.000759124755859375
ell 83, elapsed: 0.0006930828094482422
ell 82, elapsed: 0.0006380081176757812
ell 81, elapsed: 0.0005021095275878906
ell 80, elapsed: 0.0005710124969482422
ell 79, elapsed: 0.0005071163177490234
ell 78, elapsed: 0.0006399154663085938
ell 77, elapsed: 0.0006101131439208984
ell 76, elapsed: 0.0006630420684814453
ell 75, elapsed: 0.0004210472106933594
ell 74, elapsed: 0.0004909038543701172
ell 73, elapsed: 0.00041103363037109375
ell 72, elapsed: 0.0004820823669433594
ell 71, elapsed: 0.00039696693420410156
ell 70, elapsed: 0.0006780624389648438
ell 69, elapsed: 0.0005559921264648438
ell 68, elapsed: 0.0006501674652099609
ell 67, elapsed: 0.000553131103515625
ell 66, elapsed: 0.0006029605865478516
ell 65, elapsed: 0.0005688667297363281
ell 64, elapsed: 0.0007250308990478516
ell 63, elapsed: 0.0005929470062255859
ell 62, elapsed: 0.0006890296936035156
ell 61, elapsed: 0.0005898475646972656
ell 60, elapsed: 0.0006690025329589844
ell 59, elapsed: 0.00040912628173828125
ell 58, elapsed: 0.0006659030914306641
ell 57, elapsed: 0.0006909370422363281
ell 56, elapsed: 0.0007829666137695312
ell 55, elapsed: 0.0006678104400634766
ell 54, elapsed: 0.0006670951843261719
ell 53, elapsed: 0.0004668235778808594
ell 52, elapsed: 0.0004620552062988281
ell 51, elapsed: 0.000537872314453125
ell 50, elapsed: 0.0006041526794433594
ell 49, elapsed: 0.0006160736083984375
ell 48, elapsed: 0.0005221366882324219
ell 47, elapsed: 0.0005359649658203125
ell 46, elapsed: 0.0007290840148925781
ell 45, elapsed: 0.0006070137023925781
ell 44, elapsed: 0.0007309913635253906
ell 43, elapsed: 0.0005390644073486328
ell 42, elapsed: 0.000762939453125
ell 41, elapsed: 0.0004928112030029297
ell 40, elapsed: 0.0005640983581542969
ell 39, elapsed: 0.0007328987121582031
ell 38, elapsed: 0.0008721351623535156
ell 37, elapsed: 0.0007789134979248047
ell 36, elapsed: 0.0008640289306640625
ell 35, elapsed: 0.0007638931274414062
ell 34, elapsed: 0.0008580684661865234
ell 33, elapsed: 0.0007541179656982422
ell 32, elapsed: 0.0008289813995361328
ell 31, elapsed: 0.0006670951843261719
ell 30, elapsed: 0.0008499622344970703
ell 29, elapsed: 0.0007381439208984375
ell 28, elapsed: 0.0009059906005859375
ell 27, elapsed: 0.0004870891571044922
ell 26, elapsed: 0.0007851123809814453
ell 25, elapsed: 0.0006940364837646484
ell 24, elapsed: 0.0008680820465087891
ell 23, elapsed: 0.0006589889526367188
ell 22, elapsed: 0.0008471012115478516
ell 21, elapsed: 0.0007009506225585938
ell 20, elapsed: 0.0008249282836914062
ell 19, elapsed: 0.0006351470947265625
ell 18, elapsed: 0.0005669593811035156
ell 17, elapsed: 0.0006709098815917969
ell 16, elapsed: 0.0008289813995361328
ell 15, elapsed: 0.0006301403045654297
ell 14, elapsed: 0.0006110668182373047
ell 13, elapsed: 0.0004761219024658203
ell 12, elapsed: 0.0005860328674316406
ell 11, elapsed: 0.0007169246673583984
ell 10, elapsed: 0.0006051063537597656
ell 9, elapsed: 0.0005011558532714844
ell 8, elapsed: 0.0005559921264648438
ell 7, elapsed: 0.0005860328674316406
ell 6, elapsed: 0.0007641315460205078
ell 5, elapsed: 0.0005049705505371094
ell 4, elapsed: 0.0007259845733642578
ell 3, elapsed: 0.0004980564117431641
ell 2, elapsed: 0.0005700588226318359
ell 1, elapsed: 0.000640869140625
ell 0, elapsed: 0.0004851818084716797
  0.171945 seconds (10.83 k allocations: 697.938 KiB)
elapsed: 0.00045490264892578125
step:          0.05903 sec (0 allocations: 0 byte, 0.0% gc time)
swapping:      0.000589 sec (0 allocations: 0 byte, 0.0% gc time)
calc_Mellell!: 0.00176 sec (0 allocations: 0 byte, 0.0% gc time)
  t0 :  0.000612 sec (0 allocations: 0 byte, 0.0% gc time)
  tm2 : 0.01654 sec (0 allocations: 0 byte, 0.0% gc time)
  tm2s: 0.000367 sec (0 allocations: 0 byte, 0.0% gc time)
  tm4 : 0.045236 sec (0 allocations: 0 byte, 0.0% gc time)
  tp2 : 0.0 sec (0 allocations: 0 byte, 0.0% gc time)
  tp2s: 0.0 sec (0 allocations: 0 byte, 0.0% gc time)
  tp4 : 0.0 sec (0 allocations: 0 byte, 0.0% gc time)
calc_wtdll!:   0.063501 sec (1.344 k allocations: 147.0 KB, 0.0% gc time)
calc_wljj!:    0.004628 sec (6 allocations: 96 byte, 0.0% gc time)
mult_prefac!:  0.0 sec (0 allocations: 0 byte, 0.0% gc time)
convert:       0.0 sec (0 allocations: 0 byte, 0.0% gc time)
write:         0.006692 sec (0 allocations: 0 byte, 0.0% gc time)
test_rand_2f1: 0.0 sec (0 allocations: 0 byte, 0.0% gc time)
Closing outfile out/Ml21-cache.bin...   0.004701 seconds
  0.000377 seconds (52 allocations: 28.297 KiB)
make_phi():   0.002655 seconds (8.20 k allocations: 238.016 KiB)
  0.016374 seconds (12.10 k allocations: 322.000 KiB)
tskip:       2.2e-5 sec (0 allocations: 0 byte, 0.0% gc time)
tread:       0.002541 sec (19 allocations: 2.172 KB, 0.0% gc time)
tmultphi:    0.001149 sec (0 allocations: 0 byte, 0.0% gc time)
tbrfft:      0.00403 sec (896 allocations: 42.0 KB, 0.0% gc time)
tmultprefac: 0.003363 sec (0 allocations: 0 byte, 0.0% gc time)
toutfunc:    0.005239 sec (10.528 k allocations: 206.5 KB, 0.0% gc time)
Testing R=0.9 ... passed
Calculating fmax: 
  dlrec    = 4
  dlrecRg1 = -4
  q=1.1, R=0.8:	  0.377481 seconds (113.61 k allocations: 15.166 MiB)

  0.377787 seconds (113.65 k allocations: 15.200 MiB)
ℓ = 1202
Δℓ = 4
ΔℓRg1 = -4
N = 1600
q = 1.1
kmin = 1.0e-5
kmax = 100000.00000000004
χ0 = 0.023029999999999995
RR = RR.tsv
ℓmax = ℓmax.bin
f21 = f21.bin
kmin = 1.0e-5
kmax = 100000.0
dlrec    = 4
dlrecRg1 = -4
Output size: 5741568 bytes = 0.005347251892089844 GiB
Output size: 51264 bytes = 4.774332046508789e-5 GiB
Reading 'out/F21EllCache'...   0.001165 seconds (267 allocations: 84.656 KiB)
ellmax: 1202
lmaxcache: 1202
fell[:,1,1] = Complex{Float64}[7.519068145690986e-120 - 1.8416405474382574e-135im, 7.541664537386155e-120 - 1.847175067190611e-135im]
ell 1202, elapsed: 1.9073486328125e-5
ell 1201, elapsed: 0.00041604042053222656
ell 1200, elapsed: 0.00038909912109375
ell 1199, elapsed: 0.0003809928894042969
ell 1198, elapsed: 0.00038695335388183594
ell 1002, elapsed: 0.009646177291870117
ell 1001, elapsed: 0.00044918060302734375
ell 1000, elapsed: 0.0005571842193603516
ell 999, elapsed: 0.000759124755859375
ell 998, elapsed: 0.0004131793975830078
ell 902, elapsed: 0.005202770233154297
ell 901, elapsed: 0.00037097930908203125
ell 900, elapsed: 0.0003559589385986328
ell 899, elapsed: 0.00037097930908203125
ell 898, elapsed: 0.00037288665771484375
ell 802, elapsed: 0.004840850830078125
ell 801, elapsed: 0.00037789344787597656
ell 800, elapsed: 0.0003631114959716797
ell 799, elapsed: 0.0005741119384765625
ell 798, elapsed: 0.0005121231079101562
ell 702, elapsed: 0.007942914962768555
ell 701, elapsed: 0.0005810260772705078
ell 700, elapsed: 0.0005621910095214844
ell 699, elapsed: 0.0004930496215820312
ell 698, elapsed: 0.0003409385681152344
ell 602, elapsed: 0.0052721500396728516
ell 601, elapsed: 0.0006031990051269531
ell 600, elapsed: 0.00044608116149902344
ell 599, elapsed: 0.0004661083221435547
ell 598, elapsed: 0.0005559921264648438
ell 502, elapsed: 0.008192062377929688
ell 501, elapsed: 0.0005650520324707031
ell 500, elapsed: 0.0005819797515869141
ell 499, elapsed: 0.0004730224609375
ell 498, elapsed: 0.00041103363037109375
ell 402, elapsed: 0.005411863327026367
ell 401, elapsed: 0.00045180320739746094
ell 400, elapsed: 0.0006341934204101562
ell 399, elapsed: 0.0003781318664550781
ell 398, elapsed: 0.0004038810729980469
ell 302, elapsed: 0.005650043487548828
ell 301, elapsed: 0.00038313865661621094
ell 300, elapsed: 0.0003581047058105469
ell 299, elapsed: 0.0003521442413330078
ell 298, elapsed: 0.0004630088806152344
ell 202, elapsed: 0.005326986312866211
ell 201, elapsed: 0.00036978721618652344
ell 200, elapsed: 0.00035500526428222656
ell 199, elapsed: 0.0003559589385986328
ell 198, elapsed: 0.0003509521484375
ell 152, elapsed: 0.002855062484741211
ell 151, elapsed: 0.0005540847778320312
ell 150, elapsed: 0.0005629062652587891
ell 149, elapsed: 0.0005269050598144531
ell 148, elapsed: 0.0004620552062988281
ell 127, elapsed: 0.0016090869903564453
ell 126, elapsed: 0.0004520416259765625
ell 125, elapsed: 0.0005478858947753906
ell 124, elapsed: 0.0006580352783203125
ell 123, elapsed: 0.00040793418884277344
ell 114, elapsed: 0.0007522106170654297
ell 113, elapsed: 0.0003180503845214844
ell 112, elapsed: 0.0005080699920654297
ell 111, elapsed: 0.0005669593811035156
ell 110, elapsed: 0.0004899501800537109
ell 102, elapsed: 0.0011131763458251953
ell 101, elapsed: 0.0004830360412597656
ell 100, elapsed: 0.0005230903625488281
ell 99, elapsed: 0.000347137451171875
ell 98, elapsed: 0.0004661083221435547
ell 97, elapsed: 0.0006158351898193359
ell 96, elapsed: 0.0006451606750488281
ell 95, elapsed: 0.0004029273986816406
ell 94, elapsed: 0.0004911422729492188
ell 93, elapsed: 0.0005199909210205078
ell 92, elapsed: 0.0005788803100585938
ell 91, elapsed: 0.0005049705505371094
ell 90, elapsed: 0.0007309913635253906
ell 89, elapsed: 0.0005238056182861328
ell 88, elapsed: 0.0006048679351806641
ell 87, elapsed: 0.00047898292541503906
ell 86, elapsed: 0.0004749298095703125
ell 85, elapsed: 0.00039315223693847656
ell 84, elapsed: 0.00048089027404785156
ell 83, elapsed: 0.0004680156707763672
ell 82, elapsed: 0.0006468296051025391
ell 81, elapsed: 0.0005819797515869141
ell 80, elapsed: 0.0007390975952148438
ell 79, elapsed: 0.0005691051483154297
ell 78, elapsed: 0.0005700588226318359
ell 77, elapsed: 0.00039196014404296875
ell 76, elapsed: 0.0004699230194091797
ell 75, elapsed: 0.00037288665771484375
ell 74, elapsed: 0.0005540847778320312
ell 73, elapsed: 0.0005328655242919922
ell 72, elapsed: 0.0005738735198974609
ell 71, elapsed: 0.0005381107330322266
ell 70, elapsed: 0.0005609989166259766
ell 69, elapsed: 0.0003859996795654297
ell 68, elapsed: 0.0004642009735107422
ell 67, elapsed: 0.00047016143798828125
ell 66, elapsed: 0.00045609474182128906
ell 65, elapsed: 0.0004711151123046875
ell 64, elapsed: 0.0006308555603027344
ell 63, elapsed: 0.0005099773406982422
ell 62, elapsed: 0.000659942626953125
ell 61, elapsed: 0.00038313865661621094
ell 60, elapsed: 0.0005469322204589844
ell 59, elapsed: 0.0003762245178222656
ell 58, elapsed: 0.0006780624389648438
ell 57, elapsed: 0.00046896934509277344
ell 56, elapsed: 0.0004730224609375
ell 55, elapsed: 0.00037598609924316406
ell 54, elapsed: 0.00045490264892578125
ell 53, elapsed: 0.00037288665771484375
ell 52, elapsed: 0.0007648468017578125
ell 51, elapsed: 0.0004131793975830078
ell 50, elapsed: 0.0005660057067871094
ell 49, elapsed: 0.0005381107330322266
ell 48, elapsed: 0.0006420612335205078
ell 47, elapsed: 0.00043892860412597656
ell 46, elapsed: 0.0004730224609375
ell 45, elapsed: 0.0004711151123046875
ell 44, elapsed: 0.0004749298095703125
ell 43, elapsed: 0.0004668235778808594
ell 42, elapsed: 0.0006561279296875
ell 41, elapsed: 0.0003910064697265625
ell 40, elapsed: 0.0004780292510986328
ell 39, elapsed: 0.00039196014404296875
ell 38, elapsed: 0.00047898292541503906
ell 37, elapsed: 0.0004999637603759766
ell 36, elapsed: 0.0004761219024658203
ell 35, elapsed: 0.0004019737243652344
ell 34, elapsed: 0.0004811286926269531
ell 33, elapsed: 0.00039505958557128906
ell 32, elapsed: 0.0006721019744873047
ell 31, elapsed: 0.000514984130859375
ell 30, elapsed: 0.0006821155548095703
ell 29, elapsed: 0.00045800209045410156
ell 28, elapsed: 0.0005669593811035156
ell 27, elapsed: 0.0006129741668701172
ell 26, elapsed: 0.0007147789001464844
ell 25, elapsed: 0.0006029605865478516
ell 24, elapsed: 0.0008440017700195312
ell 23, elapsed: 0.0004658699035644531
ell 22, elapsed: 0.00045990943908691406
ell 21, elapsed: 0.0003719329833984375
ell 20, elapsed: 0.00045609474182128906
ell 19, elapsed: 0.0004949569702148438
ell 18, elapsed: 0.0006380081176757812
[...]
ell 788, elapsed: 0.0007829666137695312
ell 782, elapsed: 0.0016968250274658203
ell 781, elapsed: 0.000720977783203125
ell 780, elapsed: 0.0008561611175537109
ell 779, elapsed: 0.0007660388946533203
ell 778, elapsed: 0.0007281303405761719
ell 772, elapsed: 0.0017330646514892578
ell 771, elapsed: 0.0012900829315185547
ell 770, elapsed: 0.0007479190826416016
ell 769, elapsed: 0.0007710456848144531
ell 768, elapsed: 0.0007989406585693359
ell 762, elapsed: 0.002007007598876953
ell 761, elapsed: 0.0007228851318359375
ell 760, elapsed: 0.0010340213775634766
ell 759, elapsed: 0.0007488727569580078
ell 758, elapsed: 0.0008339881896972656
ell 752, elapsed: 0.0017170906066894531
ell 751, elapsed: 0.000804901123046875
ell 750, elapsed: 0.0008978843688964844
ell 749, elapsed: 0.000762939453125
ell 748, elapsed: 0.0008001327514648438
ell 742, elapsed: 0.0017750263214111328
ell 741, elapsed: 0.0009360313415527344
ell 740, elapsed: 0.0008378028869628906
ell 739, elapsed: 0.0008261203765869141
ell 738, elapsed: 0.0008411407470703125
ell 732, elapsed: 0.002145051956176758
ell 731, elapsed: 0.0008060932159423828
ell 730, elapsed: 0.0008158683776855469
ell 729, elapsed: 0.0009310245513916016
ell 728, elapsed: 0.0008459091186523438
ell 722, elapsed: 0.0015881061553955078
ell 721, elapsed: 0.000823974609375
ell 720, elapsed: 0.0008637905120849609
ell 719, elapsed: 0.0008380413055419922
ell 718, elapsed: 0.0008189678192138672
ell 712, elapsed: 0.001898050308227539
ell 711, elapsed: 0.0008058547973632812
ell 710, elapsed: 0.0008180141448974609
ell 709, elapsed: 0.0008480548858642578
ell 708, elapsed: 0.0010399818420410156
ell 702, elapsed: 0.001811981201171875
ell 701, elapsed: 0.0008440017700195312
ell 700, elapsed: 0.0008339881896972656
ell 699, elapsed: 0.0008540153503417969
ell 698, elapsed: 0.0007998943328857422
ell 692, elapsed: 0.0017850399017333984
ell 691, elapsed: 0.0007550716400146484
ell 690, elapsed: 0.0007901191711425781
ell 689, elapsed: 0.0008151531219482422
ell 688, elapsed: 0.0007891654968261719
ell 682, elapsed: 0.0015370845794677734
ell 681, elapsed: 0.0008251667022705078
ell 680, elapsed: 0.0007741451263427734
ell 679, elapsed: 0.0008161067962646484
ell 678, elapsed: 0.0008270740509033203
ell 672, elapsed: 0.0015249252319335938
ell 671, elapsed: 0.0007510185241699219
ell 670, elapsed: 0.0007710456848144531
ell 669, elapsed: 0.0007939338684082031
ell 668, elapsed: 0.0008101463317871094
ell 662, elapsed: 0.002146005630493164
ell 661, elapsed: 0.0007598400115966797
ell 660, elapsed: 0.0008120536804199219
ell 659, elapsed: 0.0008189678192138672
ell 658, elapsed: 0.0007481575012207031
ell 652, elapsed: 0.001683950424194336
ell 651, elapsed: 0.0007870197296142578
ell 650, elapsed: 0.000823974609375
ell 649, elapsed: 0.0008208751678466797
ell 648, elapsed: 0.0008008480072021484
ell 642, elapsed: 0.0014829635620117188
ell 641, elapsed: 0.0008208751678466797
ell 640, elapsed: 0.0007538795471191406
ell 639, elapsed: 0.0008151531219482422
ell 638, elapsed: 0.0008099079132080078
ell 632, elapsed: 0.0015149116516113281
ell 631, elapsed: 0.0008089542388916016
ell 630, elapsed: 0.0007569789886474609
ell 629, elapsed: 0.0007390975952148438
ell 628, elapsed: 0.0007939338684082031
ell 622, elapsed: 0.001497030258178711
ell 621, elapsed: 0.0007681846618652344
ell 620, elapsed: 0.0007581710815429688
ell 619, elapsed: 0.0007979869842529297
ell 618, elapsed: 0.001104116439819336
ell 612, elapsed: 0.0015189647674560547
ell 611, elapsed: 0.0007829666137695312
ell 610, elapsed: 0.0008029937744140625
ell 609, elapsed: 0.0008111000061035156
ell 608, elapsed: 0.0008330345153808594
ell 602, elapsed: 0.0018110275268554688
ell 601, elapsed: 0.0008399486541748047
ell 600, elapsed: 0.0007989406585693359
ell 599, elapsed: 0.0008170604705810547
ell 598, elapsed: 0.0008499622344970703
ell 592, elapsed: 0.001332998275756836
ell 591, elapsed: 0.0006449222564697266
ell 590, elapsed: 0.0007679462432861328
ell 589, elapsed: 0.0008308887481689453
ell 588, elapsed: 0.0006749629974365234
ell 582, elapsed: 0.001199960708618164
ell 581, elapsed: 0.0006451606750488281
ell 580, elapsed: 0.0006401538848876953
ell 579, elapsed: 0.0006361007690429688
ell 578, elapsed: 0.0006449222564697266
ell 572, elapsed: 0.001277923583984375
ell 571, elapsed: 0.0011529922485351562
ell 570, elapsed: 0.0008170604705810547
ell 569, elapsed: 0.0007290840148925781
ell 568, elapsed: 0.0006451606750488281
ell 562, elapsed: 0.0011949539184570312
ell 561, elapsed: 0.0006451606750488281
ell 560, elapsed: 0.0006461143493652344
ell 559, elapsed: 0.0006492137908935547
ell 558, elapsed: 0.0011851787567138672
ell 552, elapsed: 0.0022308826446533203
ell 551, elapsed: 0.0049591064453125
ell 550, elapsed: 0.0008521080017089844
ell 549, elapsed: 0.0008599758148193359
ell 548, elapsed: 0.0008339881896972656
ell 542, elapsed: 0.0016460418701171875
ell 541, elapsed: 0.0011529922485351562
ell 540, elapsed: 0.001119852066040039
ell 539, elapsed: 0.0006079673767089844
ell 538, elapsed: 0.0008120536804199219
ell 532, elapsed: 0.0017879009246826172
ell 531, elapsed: 0.0007810592651367188
ell 530, elapsed: 0.0008370876312255859
ell 529, elapsed: 0.0008211135864257812
ell 528, elapsed: 0.0008370876312255859
ell 522, elapsed: 0.0019109249114990234
ell 521, elapsed: 0.0008790493011474609
ell 520, elapsed: 0.0008330345153808594
ell 519, elapsed: 0.0008139610290527344
ell 518, elapsed: 0.000843048095703125
ell 512, elapsed: 0.0017948150634765625
ell 511, elapsed: 0.0008299350738525391
ell 510, elapsed: 0.0008389949798583984
ell 509, elapsed: 0.0007929801940917969
ell 508, elapsed: 0.0008280277252197266
ell 502, elapsed: 0.0017979145050048828
ell 501, elapsed: 0.0007569789886474609
ell 500, elapsed: 0.0008141994476318359
ell 499, elapsed: 0.0007939338684082031
ell 498, elapsed: 0.0008130073547363281
ell 492, elapsed: 0.0017077922821044922
ell 491, elapsed: 0.0007760524749755859
ell 490, elapsed: 0.000762939453125
ell 489, elapsed: 0.0007770061492919922
ell 488, elapsed: 0.0007600784301757812
ell 482, elapsed: 0.0015399456024169922
ell 481, elapsed: 0.0007719993591308594
ell 480, elapsed: 0.0008289813995361328
ell 479, elapsed: 0.0010581016540527344
ell 478, elapsed: 0.0008130073547363281
ell 472, elapsed: 0.0017011165618896484
ell 471, elapsed: 0.0007929801940917969
ell 470, elapsed: 0.0007541179656982422
ell 469, elapsed: 0.0009129047393798828
ell 468, elapsed: 0.0007851123809814453
ell 462, elapsed: 0.0015239715576171875
ell 461, elapsed: 0.0008230209350585938
ell 460, elapsed: 0.0007982254028320312
ell 459, elapsed: 0.0007939338684082031
ell 458, elapsed: 0.0007688999176025391
ell 452, elapsed: 0.0015099048614501953
ell 451, elapsed: 0.0008261203765869141
ell 450, elapsed: 0.0008270740509033203
ell 449, elapsed: 0.0008511543273925781
ell 448, elapsed: 0.0008590221405029297
ell 442, elapsed: 0.0015118122100830078
ell 441, elapsed: 0.0007932186126708984
ell 440, elapsed: 0.0007729530334472656
ell 439, elapsed: 0.000762939453125
ell 438, elapsed: 0.0008292198181152344
ell 432, elapsed: 0.0018689632415771484
ell 431, elapsed: 0.0008230209350585938
ell 430, elapsed: 0.000759124755859375
ell 429, elapsed: 0.0007700920104980469
ell 428, elapsed: 0.0007610321044921875
ell 422, elapsed: 0.0014801025390625
ell 421, elapsed: 0.0007741451263427734
ell 420, elapsed: 0.0007729530334472656
ell 419, elapsed: 0.0007739067077636719
ell 418, elapsed: 0.0008108615875244141
ell 412, elapsed: 0.0018088817596435547
ell 411, elapsed: 0.0008609294891357422
ell 410, elapsed: 0.0008111000061035156
ell 409, elapsed: 0.0007708072662353516
ell 408, elapsed: 0.0007181167602539062
ell 402, elapsed: 0.0019037723541259766
ell 401, elapsed: 0.0008449554443359375
ell 400, elapsed: 0.0008080005645751953
ell 399, elapsed: 0.0008311271667480469
ell 398, elapsed: 0.00133514404296875
ell 392, elapsed: 0.0018057823181152344
ell 391, elapsed: 0.0008242130279541016
ell 390, elapsed: 0.0011000633239746094
ell 389, elapsed: 0.0008320808410644531
ell 388, elapsed: 0.0008411407470703125
ell 382, elapsed: 0.0021479129791259766
ell 381, elapsed: 0.0008559226989746094
ell 380, elapsed: 0.0007379055023193359
ell 379, elapsed: 0.0008568763732910156
ell 378, elapsed: 0.0011229515075683594
ell 372, elapsed: 0.001934051513671875
ell 371, elapsed: 0.000804901123046875
ell 370, elapsed: 0.0009829998016357422
ell 369, elapsed: 0.0008599758148193359
ell 368, elapsed: 0.0008490085601806641
ell 362, elapsed: 0.0018470287322998047
ell 361, elapsed: 0.0007929801940917969
ell 360, elapsed: 0.0008139610290527344
ell 359, elapsed: 0.0008141994476318359
ell 358, elapsed: 0.0008361339569091797
ell 352, elapsed: 0.002026081085205078
ell 351, elapsed: 0.0007622241973876953
ell 350, elapsed: 0.0008230209350585938
ell 349, elapsed: 0.0008130073547363281
ell 348, elapsed: 0.0008149147033691406
ell 342, elapsed: 0.0018160343170166016
ell 341, elapsed: 0.0007619857788085938
ell 340, elapsed: 0.0010647773742675781
ell 339, elapsed: 0.0007951259613037109
ell 338, elapsed: 0.0007829666137695312
ell 332, elapsed: 0.0015151500701904297
ell 331, elapsed: 0.0010569095611572266
ell 330, elapsed: 0.0007719993591308594
ell 329, elapsed: 0.0008461475372314453
ell 328, elapsed: 0.0010790824890136719
ell 322, elapsed: 0.002112865447998047
ell 321, elapsed: 0.0007021427154541016
ell 320, elapsed: 0.000743865966796875
ell 319, elapsed: 0.0007739067077636719
ell 318, elapsed: 0.0008139610290527344
ell 312, elapsed: 0.0018470287322998047
ell 311, elapsed: 0.0007920265197753906
ell 310, elapsed: 0.0011739730834960938
ell 309, elapsed: 0.0007529258728027344
ell 308, elapsed: 0.0007979869842529297
ell 302, elapsed: 0.00150299072265625
ell 301, elapsed: 0.00109100341796875
ell 300, elapsed: 0.0008661746978759766
ell 299, elapsed: 0.0007679462432861328
ell 298, elapsed: 0.0008158683776855469
ell 292, elapsed: 0.0020749568939208984
ell 291, elapsed: 0.0007269382476806641
ell 290, elapsed: 0.0007810592651367188
ell 289, elapsed: 0.0008358955383300781
ell 288, elapsed: 0.0007829666137695312
ell 282, elapsed: 0.0016968250274658203
ell 281, elapsed: 0.0008089542388916016
ell 280, elapsed: 0.0013010501861572266
ell 279, elapsed: 0.0008320808410644531
ell 278, elapsed: 0.0008409023284912109
ell 272, elapsed: 0.0019500255584716797
ell 271, elapsed: 0.0007970333099365234
ell 270, elapsed: 0.0008120536804199219
ell 269, elapsed: 0.0008471012115478516
ell 268, elapsed: 0.0008509159088134766
ell 262, elapsed: 0.00202178955078125
ell 261, elapsed: 0.0007958412170410156
ell 260, elapsed: 0.0008320808410644531
ell 259, elapsed: 0.0008559226989746094
ell 258, elapsed: 0.0008459091186523438
ell 252, elapsed: 0.0019469261169433594
ell 251, elapsed: 0.0008490085601806641
ell 250, elapsed: 0.0008499622344970703
ell 249, elapsed: 0.0010941028594970703
ell 248, elapsed: 0.0008161067962646484
ell 242, elapsed: 0.0018579959869384766
ell 241, elapsed: 0.0007920265197753906
ell 240, elapsed: 0.0008039474487304688
ell 239, elapsed: 0.0008361339569091797
ell 238, elapsed: 0.0008571147918701172
ell 232, elapsed: 0.0015060901641845703
ell 231, elapsed: 0.0008120536804199219
ell 230, elapsed: 0.0008070468902587891
ell 229, elapsed: 0.0008389949798583984
ell 228, elapsed: 0.0007841587066650391
ell 222, elapsed: 0.00152587890625
ell 221, elapsed: 0.0008060932159423828
ell 220, elapsed: 0.0008220672607421875
ell 219, elapsed: 0.0007817745208740234
ell 218, elapsed: 0.0007770061492919922
ell 212, elapsed: 0.0014700889587402344
ell 211, elapsed: 0.0009028911590576172
ell 210, elapsed: 0.0007939338684082031
ell 209, elapsed: 0.0008149147033691406
ell 208, elapsed: 0.0008349418640136719
ell 202, elapsed: 0.0017101764678955078
ell 201, elapsed: 0.0007641315460205078
ell 200, elapsed: 0.0007619857788085938
ell 199, elapsed: 0.0008008480072021484
ell 198, elapsed: 0.0008399486541748047
ell 192, elapsed: 0.0017330646514892578
ell 191, elapsed: 0.0007748603820800781
ell 190, elapsed: 0.000804901123046875
ell 189, elapsed: 0.0007898807525634766
ell 188, elapsed: 0.0007500648498535156
ell 182, elapsed: 0.0017261505126953125
ell 181, elapsed: 0.0007519721984863281
ell 180, elapsed: 0.0008480548858642578
ell 179, elapsed: 0.0008358955383300781
ell 178, elapsed: 0.0007619857788085938
ell 172, elapsed: 0.001728057861328125
ell 171, elapsed: 0.0007159709930419922
ell 170, elapsed: 0.0008039474487304688
ell 169, elapsed: 0.0007660388946533203
ell 168, elapsed: 0.0007829666137695312
ell 162, elapsed: 0.0015277862548828125
ell 161, elapsed: 0.0007638931274414062
ell 160, elapsed: 0.0007779598236083984
ell 159, elapsed: 0.0007200241088867188
ell 158, elapsed: 0.0008339881896972656
ell 152, elapsed: 0.0018110275268554688
ell 151, elapsed: 0.0007669925689697266
ell 150, elapsed: 0.0007379055023193359
ell 149, elapsed: 0.0010669231414794922
ell 148, elapsed: 0.0008130073547363281
ell 142, elapsed: 0.0016989707946777344
ell 141, elapsed: 0.0009639263153076172
ell 140, elapsed: 0.0007481575012207031
ell 139, elapsed: 0.0007929801940917969
ell 138, elapsed: 0.0007817745208740234
ell 132, elapsed: 0.0017750263214111328
ell 131, elapsed: 0.000782012939453125
ell 130, elapsed: 0.0007581710815429688
ell 129, elapsed: 0.000804901123046875
ell 128, elapsed: 0.0008118152618408203
ell 122, elapsed: 0.0014929771423339844
ell 121, elapsed: 0.0007641315460205078
ell 120, elapsed: 0.0007488727569580078
ell 119, elapsed: 0.000988006591796875
ell 118, elapsed: 0.0008289813995361328
ell 112, elapsed: 0.0018029212951660156
ell 111, elapsed: 0.0007779598236083984
ell 110, elapsed: 0.0010440349578857422
ell 109, elapsed: 0.0008327960968017578
ell 108, elapsed: 0.0008370876312255859
ell 102, elapsed: 0.0017659664154052734
ell 101, elapsed: 0.004560947418212891
ell 100, elapsed: 0.004578828811645508
ell 99, elapsed: 0.004611015319824219
ell 98, elapsed: 0.004644870758056641
ell 92, elapsed: 0.0073091983795166016
ell 91, elapsed: 0.0045490264892578125
ell 90, elapsed: 0.004415988922119141
ell 89, elapsed: 0.004269123077392578
ell 88, elapsed: 0.004537105560302734
ell 82, elapsed: 0.006936073303222656
ell 81, elapsed: 0.004369974136352539
ell 80, elapsed: 0.004509925842285156
ell 79, elapsed: 0.0041751861572265625
ell 78, elapsed: 0.004299163818359375
ell 72, elapsed: 0.007409811019897461
ell 71, elapsed: 0.0046579837799072266
ell 70, elapsed: 0.0046770572662353516
ell 69, elapsed: 0.004648923873901367
ell 68, elapsed: 0.0045931339263916016
ell 62, elapsed: 0.007539033889770508
ell 61, elapsed: 0.00468897819519043
ell 60, elapsed: 0.004609107971191406
ell 59, elapsed: 0.004374027252197266
ell 58, elapsed: 0.0037419795989990234
ell 52, elapsed: 0.007128000259399414
ell 51, elapsed: 0.0045778751373291016
ell 50, elapsed: 0.004514932632446289
ell 49, elapsed: 0.004524946212768555
ell 48, elapsed: 0.0038068294525146484
ell 42, elapsed: 0.006381988525390625
ell 41, elapsed: 0.004411935806274414
ell 40, elapsed: 0.004611015319824219
ell 39, elapsed: 0.004647016525268555
ell 38, elapsed: 0.0047190189361572266
ell 32, elapsed: 0.007467985153198242
ell 31, elapsed: 0.00483393669128418
ell 30, elapsed: 0.004853963851928711
ell 29, elapsed: 0.004620075225830078
ell 28, elapsed: 0.004712820053100586
ell 22, elapsed: 0.0076749324798583984
ell 21, elapsed: 0.00463104248046875
ell 20, elapsed: 0.0046389102935791016
ell 19, elapsed: 0.004510164260864258
ell 18, elapsed: 0.004621028900146484
ell 12, elapsed: 0.007561922073364258
ell 11, elapsed: 0.0045452117919921875
ell 10, elapsed: 0.004084110260009766
ell 9, elapsed: 0.0044460296630859375
ell 8, elapsed: 0.0040700435638427734
  0.855435 seconds (66.75 k allocations: 12.139 MiB, 2.55% gc time)
elapsed: 0.005301952362060547
step:          0.076697 sec (0 allocations: 0 byte, 0.0% gc time)
swapping:      0.000812 sec (0 allocations: 0 byte, 0.0% gc time)
calc_Mellell!: 0.035147 sec (0 allocations: 0 byte, 0.0% gc time)
  t0 :  0.012319 sec (0 allocations: 0 byte, 0.0% gc time)
  tm2 : 0.084146 sec (0 allocations: 0 byte, 0.0% gc time)
  tm2s: 0.009027 sec (0 allocations: 0 byte, 0.0% gc time)
  tm4 : 0.212337 sec (0 allocations: 0 byte, 0.0% gc time)
  tp2 : 0.0 sec (0 allocations: 0 byte, 0.0% gc time)
  tp2s: 0.0 sec (0 allocations: 0 byte, 0.0% gc time)
  tp4 : 0.0 sec (0 allocations: 0 byte, 0.0% gc time)
calc_wtdll!:   0.607521 sec (49.2 k allocations: 11.133 MB, 3.6% gc time)
calc_wljj!:    0.04733 sec (69 allocations: 1.078 KB, 0.0% gc time)
mult_prefac!:  0.0 sec (0 allocations: 0 byte, 0.0% gc time)
convert:       0.0 sec (0 allocations: 0 byte, 0.0% gc time)
write:         0.043209 sec (0 allocations: 0 byte, 0.0% gc time)
test_rand_2f1: 0.0 sec (0 allocations: 0 byte, 0.0% gc time)
Closing outfile out/MlCache/MlCache.bin...   0.000009 seconds
xi, l=0, nu=0:   0.507469 seconds (551.85 k allocations: 26.842 MiB, 10.05% gc time)
xi, l=0, nu=-2:  0.002732 seconds (144 allocations: 149.562 KiB)
Created 'out/xi.tsv'.
  q=1.1, R=0.6:	  0.789366 seconds (291.08 k allocations: 38.895 MiB, 2.72% gc time)
  q=1.1, R=0.7:	  0.872328 seconds (304.75 k allocations: 40.996 MiB, 1.83% gc time)
  q=1.1, R=0.8:	  0.896517 seconds (299.14 k allocations: 40.132 MiB)
  q=1.1, R=0.9:	  1.039889 seconds (293.57 k allocations: 39.286 MiB, 1.31% gc time)
  q=1.1, R=0.998:	 21.011418 seconds (10.67 M allocations: 823.453 MiB, 0.38% gc time)
  q=1.1, R=1.0:	  0.005100 seconds (10.24 k allocations: 768.375 KiB)

ℓ = 1000
Δℓ = 4
ΔℓRg1 = -4
N = 4096
q = 1.1
kmin = 1.0e-5
kmax = 1000.0
χ0 = 0.001
RR = RR.tsv
ℓmax = ℓmax.bin
f21 = f21.bin
kmin = 1.0e-5
kmax = 1000.0
dlrec    = 4
dlrecRg1 = -4
Output size: 1573632 bytes = 0.0014655590057373047 GiB
Output size: 786816 bytes = 0.0007327795028686523 GiB
Reading 'out/F21EllCache'...   0.001811 seconds (268 allocations: 533.531 KiB)
ellmax: 1002
lmaxcache: 1000
fell[:,1,1] = Complex{Float64}[1.7262928128202118e-224 - 4.2281979352226944e-240im, 1.7282693092099662e-224 - 4.233038955177176e-240im]
ell 1002, elapsed: 0.0001678466796875
ell 1001, elapsed: 0.001405954360961914
ell 1000, elapsed: 0.001230001449584961
ell 999, elapsed: 0.007256031036376953
ell 998, elapsed: 0.006636857986450195
ell 44, elapsed: 0.6442089080810547
ell 43, elapsed: 0.005577802658081055
ell 42, elapsed: 0.005309104919433594
ell 41, elapsed: 0.005793094635009766
ell 40, elapsed: 0.006327152252197266
  0.691938 seconds (4.55 k allocations: 320.031 KiB)
elapsed: 0.007211208343505859
step:          0.64128 sec (0 allocations: 0 byte, 0.0% gc time)
swapping:      0.000446 sec (0 allocations: 0 byte, 0.0% gc time)
calc_Mellell!: 0.001657 sec (0 allocations: 0 byte, 0.0% gc time)
  t0 :  0.000879 sec (0 allocations: 0 byte, 0.0% gc time)
  tm2 : 0.010596 sec (0 allocations: 0 byte, 0.0% gc time)
  tm2s: 0.00072 sec (0 allocations: 0 byte, 0.0% gc time)
  tm4 : 0.029408 sec (0 allocations: 0 byte, 0.0% gc time)
  tp2 : 0.0 sec (0 allocations: 0 byte, 0.0% gc time)
  tp2s: 0.0 sec (0 allocations: 0 byte, 0.0% gc time)
  tp4 : 0.0 sec (0 allocations: 0 byte, 0.0% gc time)
calc_wtdll!:   0.041896 sec (480 allocations: 52.5 KB, 0.0% gc time)
calc_wljj!:    0.001437 sec (1 allocations: 16 byte, 0.0% gc time)
mult_prefac!:  0.0 sec (0 allocations: 0 byte, 0.0% gc time)
convert:       0.0 sec (0 allocations: 0 byte, 0.0% gc time)
write:         0.000918 sec (0 allocations: 0 byte, 0.0% gc time)
test_rand_2f1: 0.0 sec (0 allocations: 0 byte, 0.0% gc time)
Closing outfile out/MlCache/MlCache.bin...   0.001413 seconds
  0.501624 seconds (54 allocations: 67.203 KiB)
make_phi():   0.009864 seconds (80 allocations: 276.297 KiB)
  0.003812 seconds (108 allocations: 5.812 KiB)
tskip:       1.0e-6 sec (0 allocations: 0 byte, 0.0% gc time)
tread:       0.000697 sec (19 allocations: 1.312 KB, 0.0% gc time)
tmultphi:    0.000379 sec (0 allocations: 0 byte, 0.0% gc time)
tbrfft:      0.001524 sec (96 allocations: 4.5 KB, 0.0% gc time)
tmultprefac: 0.001027 sec (0 allocations: 0 byte, 0.0% gc time)
toutfunc:    0.000285 sec (0 allocations: 0 byte, 0.0% gc time)
Created 'out/wl42_jj00.tsv'.
Created 'out/wl42_jj02.tsv'.
   Testing TwoFAST tests passed 
