Julia Version 1.5.0-DEV.485
Commit 7206b56e94 (2020-03-18 17:25 UTC)
Platform Info:
  OS: Linux (x86_64-linux-gnu)
  CPU: Intel(R) Xeon(R) Silver 4114 CPU @ 2.20GHz
  WORD_SIZE: 64
  LIBM: libopenlibm
  LLVM: libLLVM-9.0.1 (ORCJIT, skylake)
Environment:
  JULIA_DEPOT_PATH = ::/usr/local/share/julia
  JULIA_NUM_THREADS = 2

  Resolving package versions...
  Installed IntelOpenMP_jll ── v2018.0.3+0
  Installed Reexport ───────── v0.2.0
  Installed IncGammaBeta ───── v0.1.0
  Installed BinDeps ────────── v1.0.0
  Installed FFTW ───────────── v1.2.0
  Installed SpecialFunctions ─ v0.8.0
  Installed MKL_jll ────────── v2019.0.117+2
  Installed TwoFAST ────────── v0.1.0
  Installed AbstractAlgebra ── v0.7.1
  Installed FFTW_jll ───────── v3.3.9+4
  Installed AbstractFFTs ───── v0.5.0
  Installed URIParser ──────── v0.4.0
  Installed BinaryProvider ─── v0.5.8
  Installed Nemo ───────────── v0.15.1
#=#=#                                                                         ####                                                                       6.9%######################################################################## 100.0%
#=#=#                                                                         ##O#- #                                                                       ####################                                                      29.1%#############################################################             85.2%######################################################################## 100.0%
   Updating `~/.julia/environments/v1.5/Project.toml`
   0dd23c3e + TwoFAST v0.1.0
   Updating `~/.julia/environments/v1.5/Manifest.toml`
   c3fe647b + AbstractAlgebra v0.7.1
   621f4979 + AbstractFFTs v0.5.0
   9e28174c + BinDeps v1.0.0
   b99e7846 + BinaryProvider v0.5.8
   7a1cc6ca + FFTW v1.2.0
   f5851436 + FFTW_jll v3.3.9+4
   5087d2c0 + IncGammaBeta v0.1.0
   1d5cc7b8 + IntelOpenMP_jll v2018.0.3+0
   856f044c + MKL_jll v2019.0.117+2
   2edaba10 + Nemo v0.15.1
   189a3867 + Reexport v0.2.0
   276daf66 + SpecialFunctions v0.8.0
   0dd23c3e + TwoFAST v0.1.0
   30578b45 + URIParser v0.4.0
   2a0f44e3 + Base64
   ade2ca70 + Dates
   8bb1440f + DelimitedFiles
   8ba89e20 + Distributed
   b77e0a4c + InteractiveUtils
   76f85450 + LibGit2
   8f399da3 + Libdl
   37e2e46d + LinearAlgebra
   56ddb016 + Logging
   d6f4376e + Markdown
   a63ad114 + Mmap
   44cfe95a + Pkg
   de0858da + Printf
   3fa0cd96 + REPL
   9a3f8284 + Random
   ea8e919c + SHA
   9e88b42a + Serialization
   6462fe0b + Sockets
   2f01184e + SparseArrays
   8dfed614 + Test
   cf7118a7 + UUIDs
   4ec0a83e + Unicode
   Building FFTW ────────────→ `~/.julia/packages/FFTW/qqcBj/deps/build.log`
   Building SpecialFunctions → `~/.julia/packages/SpecialFunctions/ne2iw/deps/build.log`
   Building Nemo ────────────→ `~/.julia/packages/Nemo/qzx0m/deps/build.log`
    Testing TwoFAST
     Status `/tmp/jl_RoObUE/Project.toml`
   39dd38d3 Dierckx v0.4.1
   7a1cc6ca FFTW v1.2.0
   5087d2c0 IncGammaBeta v0.1.0
   2edaba10 Nemo v0.15.1
   276daf66 SpecialFunctions v0.8.0
   0dd23c3e TwoFAST v0.1.0
   8bb1440f DelimitedFiles
   37e2e46d LinearAlgebra
   56ddb016 Logging
   8dfed614 Test
     Status `/tmp/jl_RoObUE/Manifest.toml`
   c3fe647b AbstractAlgebra v0.7.1
   621f4979 AbstractFFTs v0.5.0
   9e28174c BinDeps v1.0.0
   b99e7846 BinaryProvider v0.5.8
   39dd38d3 Dierckx v0.4.1
   7a1cc6ca FFTW v1.2.0
   f5851436 FFTW_jll v3.3.9+4
   5087d2c0 IncGammaBeta v0.1.0
   1d5cc7b8 IntelOpenMP_jll v2018.0.3+0
   856f044c MKL_jll v2019.0.117+2
   2edaba10 Nemo v0.15.1
   189a3867 Reexport v0.2.0
   276daf66 SpecialFunctions v0.8.0
   0dd23c3e TwoFAST v0.1.0
   30578b45 URIParser v0.4.0
   2a0f44e3 Base64
   ade2ca70 Dates
   8bb1440f DelimitedFiles
   8ba89e20 Distributed
   b77e0a4c InteractiveUtils
   76f85450 LibGit2
   8f399da3 Libdl
   37e2e46d LinearAlgebra
   56ddb016 Logging
   d6f4376e Markdown
   a63ad114 Mmap
   44cfe95a Pkg
   de0858da Printf
   3fa0cd96 REPL
   9a3f8284 Random
   ea8e919c SHA
   9e88b42a Serialization
   6462fe0b Sockets
   2f01184e SparseArrays
   8dfed614 Test
   cf7118a7 UUIDs
   4ec0a83e Unicode

Welcome to Nemo version 0.15.1

Nemo comes with absolutely no warranty whatsoever


Welcome to Nemo version 0.15.1

Nemo comes with absolutely no warranty whatsoever

Testing ξ(r), ℓ=0, ν=-1 ... passed
Testing ξ(r), ℓ=0, ν=0 ... passed
Testing ξ(r), ℓ=0, ν=1 ... passed
Testing ξ(r), ℓ=0, ν=2 ... passed
Testing ξ(r), ℓ=0, ν=3 ... passed
Testing ξ(r), ℓ=1, ν=0 ... passed
Testing ξ(r), ℓ=1, ν=1 ... passed
Testing ξ(r), ℓ=1, ν=2 ... passed
Testing ξ(r), ℓ=1, ν=3 ... passed
Testing ξ(r), ℓ=2, ν=-1 ... passed
Testing ξ(r), ℓ=2, ν=0 ... passed
Testing ξ(r), ℓ=2, ν=1 ... passed
Testing ξ(r), ℓ=2, ν=2 ... passed
Testing ξ(r), ℓ=2, ν=3 ... passed
Testing ξ(r), ℓ=3, ν=-1 ... passed
Testing ξ(r), ℓ=3, ν=0 ... passed
Testing ξ(r), ℓ=3, ν=1 ... passed
Testing ξ(r), ℓ=3, ν=2 ... passed
Testing ξ(r), ℓ=3, ν=3 ... passed
Testing ξ(r), ℓ=4, ν=-1 ... passed
Testing ξ(r), ℓ=4, ν=0 ... passed
Testing ξ(r), ℓ=4, ν=1 ... passed
Testing ξ(r), ℓ=4, ν=2 ... passed
Testing ξ(r), ℓ=4, ν=3 ... passed
Testing ξ(r) ... passed
Testing ξ′(r) ... passed
Testing ξ″(r) ... passed
Calculating fmax: 
  dlrec    = 4
  dlrecRg1 = -4
  q=1.1, R=1.1:	  4.240932 seconds (1.12 M allocations: 64.957 MiB, 0.81% gc time)

  4.280941 seconds (1.14 M allocations: 65.946 MiB, 0.80% gc time)
ℓ = 1202
Δℓ = 4
ΔℓRg1 = -4
N = 1600
q = 1.1
kmin = 1.0e-5
kmax = 100000.00000000004
χ0 = 0.023029999999999995
RR = RR.tsv
ℓmax = ℓmax.bin
f21 = f21.bin
kmin = 1.0e-5
kmax = 100000.0
dlrec    = 4
dlrecRg1 = -4
Output size: 5741568 bytes = 0.005347251892089844 GiB
Output size: 51264 bytes = 4.774332046508789e-5 GiB
Reading 'out/F21EllCache'...   0.671816 seconds (311.00 k allocations: 16.438 MiB, 3.60% gc time)
ellmax: 1202
lmaxcache: 1202
fell[:,1,1] = Complex{Float64}[3.9583795592771634e-52 - 9.695233714158177e-68im, 3.990121772925759e-52 - 9.772979714843386e-68im]
ell 1202, elapsed: 0.00010991096496582031
ERROR: LoadError: MethodError: no method matching +(::NamedTuple{(:value, :time, :bytes, :gctime, :gcstats),Tuple{DataType,Float64,Int64,Float64,Base.GC_Diff}}, ::NamedTuple{(:value, :time, :bytes, :gctime, :gcstats),Tuple{Nothing,Float64,Int64,Float64,Base.GC_Diff}})
Closest candidates are:
  +(::Any, ::Any, !Matched::Any, !Matched::Any...) at operators.jl:529
Stacktrace:
 [1] macro expansion at /home/pkgeval/.julia/packages/TwoFAST/qFLyR/src/TwoFAST.jl:1538 [inlined]
 [2] macro expansion at ./util.jl:175 [inlined]
 [3] calcMljj(::Array{Float64,1}; kmin::Float64, kmax::Float64, ell::Array{Int64,1}, jmax::Int64, r0::Float64, N::Int64, q::Float64, dlrec::Int64, dlrecRg1::Int64, dlmin::Int64, dlmax::Int64, fell_lmax_file::String, outfile::String, TMell::Type{T} where T) at /home/pkgeval/.julia/packages/TwoFAST/qFLyR/src/TwoFAST.jl:1532
 [4] wlrr(::Array{Float64,1}, ::Array{Int64,1}; prefix::String, N::Int64, chi0::Float64, kmin::Float64, kmax::Float64) at /home/pkgeval/.julia/packages/TwoFAST/qFLyR/test/TwoFASTTestLib.jl:51
 [5] calc_wlrr_χ2303(::Float64, ::Array{Int64,1}) at /home/pkgeval/.julia/packages/TwoFAST/qFLyR/test/TwoFASTTestLib.jl:83
 [6] test_wl_χ2303_R(::Float64, ::Float64) at /home/pkgeval/.julia/packages/TwoFAST/qFLyR/test/runtests.jl:82
 [7] top-level scope at /home/pkgeval/.julia/packages/TwoFAST/qFLyR/test/runtests.jl:167
 [8] include(::String) at ./client.jl:441
 [9] top-level scope at none:6
in expression starting at /home/pkgeval/.julia/packages/TwoFAST/qFLyR/test/runtests.jl:167
ERROR: Package TwoFAST errored during testing
Stacktrace:
 [1] pkgerror(::String, ::Vararg{String,N} where N) at /workspace/srcdir/usr/share/julia/stdlib/v1.5/Pkg/src/Types.jl:53
 [2] test(::Pkg.Types.Context, ::Array{Pkg.Types.PackageSpec,1}; coverage::Bool, julia_args::Cmd, test_args::Cmd, test_fn::Nothing) at /workspace/srcdir/usr/share/julia/stdlib/v1.5/Pkg/src/Operations.jl:1523
 [3] test(::Pkg.Types.Context, ::Array{Pkg.Types.PackageSpec,1}; coverage::Bool, test_fn::Nothing, julia_args::Cmd, test_args::Cmd, kwargs::Base.Iterators.Pairs{Union{},Union{},Tuple{},NamedTuple{(),Tuple{}}}) at /workspace/srcdir/usr/share/julia/stdlib/v1.5/Pkg/src/API.jl:316
 [4] test(::Pkg.Types.Context, ::Array{Pkg.Types.PackageSpec,1}) at /workspace/srcdir/usr/share/julia/stdlib/v1.5/Pkg/src/API.jl:303
 [5] #test#68 at /workspace/srcdir/usr/share/julia/stdlib/v1.5/Pkg/src/API.jl:297 [inlined]
 [6] test at /workspace/srcdir/usr/share/julia/stdlib/v1.5/Pkg/src/API.jl:297 [inlined]
 [7] #test#67 at /workspace/srcdir/usr/share/julia/stdlib/v1.5/Pkg/src/API.jl:296 [inlined]
 [8] test at /workspace/srcdir/usr/share/julia/stdlib/v1.5/Pkg/src/API.jl:296 [inlined]
 [9] test(::String; kwargs::Base.Iterators.Pairs{Union{},Union{},Tuple{},NamedTuple{(),Tuple{}}}) at /workspace/srcdir/usr/share/julia/stdlib/v1.5/Pkg/src/API.jl:295
 [10] test(::String) at /workspace/srcdir/usr/share/julia/stdlib/v1.5/Pkg/src/API.jl:295
 [11] top-level scope at none:13
