Julia Version 1.6.0-DEV.1122
Commit 9392bbe347 (2020-10-03 14:15 UTC)
Platform Info:
  OS: Linux (x86_64-pc-linux-gnu)
  CPU: AMD EPYC 7502 32-Core Processor
  WORD_SIZE: 64
  LIBM: libopenlibm
  LLVM: libLLVM-10.0.1 (ORCJIT, znver2)
Environment:
  JULIA_DEPOT_PATH = ::/usr/local/share/julia
  JULIA_NUM_THREADS = 2

  Resolving package versions...
  Installed FFTW_jll ───────────────────── v3.3.9+5
  Installed IntelOpenMP_jll ────────────── v2018.0.3+0
  Installed MKL_jll ────────────────────── v2020.2.254+0
  Installed OpenSpecFun_jll ────────────── v0.5.3+3
  Installed FFTW ───────────────────────── v1.2.4
  Installed BinaryProvider ─────────────── v0.5.10
  Installed SpecialFunctions ───────────── v0.10.3
  Installed GenericSVD ─────────────────── v0.3.0
  Installed Readables ──────────────────── v0.3.3
  Installed CompilerSupportLibraries_jll ─ v0.3.3+0
  Installed Reexport ───────────────────── v0.2.0
  Installed AbstractFFTs ───────────────── v0.5.0
  Installed GenericSchur ───────────────── v0.4.0
  Installed TwoFAST ────────────────────── v0.1.3
  Installed ArbNumerics ────────────────── v1.2.1
Updating `~/.julia/environments/v1.6/Project.toml`
  [0dd23c3e] + TwoFAST v0.1.3
Updating `~/.julia/environments/v1.6/Manifest.toml`
  [621f4979] + AbstractFFTs v0.5.0
  [7e558dbc] + ArbNumerics v1.2.1
  [b99e7846] + BinaryProvider v0.5.10
  [e66e0078] + CompilerSupportLibraries_jll v0.3.3+0
  [7a1cc6ca] + FFTW v1.2.4
  [f5851436] + FFTW_jll v3.3.9+5
  [01680d73] + GenericSVD v0.3.0
  [c145ed77] + GenericSchur v0.4.0
  [1d5cc7b8] + IntelOpenMP_jll v2018.0.3+0
  [856f044c] + MKL_jll v2020.2.254+0
  [efe28fd5] + OpenSpecFun_jll v0.5.3+3
  [0d4725de] + Readables v0.3.3
  [189a3867] + Reexport v0.2.0
  [276daf66] + SpecialFunctions v0.10.3
  [0dd23c3e] + TwoFAST v0.1.3
  [56f22d72] + Artifacts
  [2a0f44e3] + Base64
  [ade2ca70] + Dates
  [8bb1440f] + DelimitedFiles
  [8ba89e20] + Distributed
  [b77e0a4c] + InteractiveUtils
  [76f85450] + LibGit2
  [8f399da3] + Libdl
  [37e2e46d] + LinearAlgebra
  [56ddb016] + Logging
  [d6f4376e] + Markdown
  [a63ad114] + Mmap
  [44cfe95a] + Pkg
  [de0858da] + Printf
  [3fa0cd96] + REPL
  [9a3f8284] + Random
  [ea8e919c] + SHA
  [9e88b42a] + Serialization
  [6462fe0b] + Sockets
  [fa267f1f] + TOML
  [8dfed614] + Test
  [cf7118a7] + UUIDs
  [4ec0a83e] + Unicode
   Building FFTW ───────→ `~/.julia/scratchspaces/44cfe95a-1eb2-52ea-b672-e2afdf69b78f/8b7c16b56936047ca41bf25effa137ae0b381ae8/build.log`
   Building ArbNumerics → `~/.julia/scratchspaces/44cfe95a-1eb2-52ea-b672-e2afdf69b78f/329a81d67c64e3a51c176a243b6424fbe39213d0/build.log`
    Testing TwoFAST
Status `/tmp/jl_TI8JaZ/Project.toml`
  [7e558dbc] ArbNumerics v1.2.1
  [39dd38d3] Dierckx v0.5.0
  [7a1cc6ca] FFTW v1.2.4
  [276daf66] SpecialFunctions v0.10.3
  [0dd23c3e] TwoFAST v0.1.3
  [8bb1440f] DelimitedFiles
  [37e2e46d] LinearAlgebra
  [56ddb016] Logging
  [8dfed614] Test
Status `/tmp/jl_TI8JaZ/Manifest.toml`
  [621f4979] AbstractFFTs v0.5.0
  [7e558dbc] ArbNumerics v1.2.1
  [b99e7846] BinaryProvider v0.5.10
  [e66e0078] CompilerSupportLibraries_jll v0.3.3+0
  [39dd38d3] Dierckx v0.5.0
  [cd4c43a9] Dierckx_jll v0.0.1+0
  [7a1cc6ca] FFTW v1.2.4
  [f5851436] FFTW_jll v3.3.9+5
  [01680d73] GenericSVD v0.3.0
  [c145ed77] GenericSchur v0.4.0
  [1d5cc7b8] IntelOpenMP_jll v2018.0.3+0
  [856f044c] MKL_jll v2020.2.254+0
  [efe28fd5] OpenSpecFun_jll v0.5.3+3
  [0d4725de] Readables v0.3.3
  [189a3867] Reexport v0.2.0
  [276daf66] SpecialFunctions v0.10.3
  [0dd23c3e] TwoFAST v0.1.3
  [56f22d72] Artifacts
  [2a0f44e3] Base64
  [ade2ca70] Dates
  [8bb1440f] DelimitedFiles
  [8ba89e20] Distributed
  [b77e0a4c] InteractiveUtils
  [76f85450] LibGit2
  [8f399da3] Libdl
  [37e2e46d] LinearAlgebra
  [56ddb016] Logging
  [d6f4376e] Markdown
  [a63ad114] Mmap
  [44cfe95a] Pkg
  [de0858da] Printf
  [3fa0cd96] REPL
  [9a3f8284] Random
  [ea8e919c] SHA
  [9e88b42a] Serialization
  [6462fe0b] Sockets
  [fa267f1f] TOML
  [8dfed614] Test
  [cf7118a7] UUIDs
  [4ec0a83e] Unicode
    Testing Running tests...
WARNING: could not import Printf.ini_hex into ArbNumerics
WARNING: could not import Printf.ini_HEX into ArbNumerics
t = 0.0 sec (0 allocations: 0 byte, 0.0% gc time)
typeof(t) = NamedTuple{(:value, :time, :bytes, :gctime, :gcstats), Tuple{DataType, Float64, Int64, Float64, Base.GC_Diff}}
TwoFAST.PerformanceStats.TimedType = Union{NamedTuple{(:value, :time, :bytes, :gctime, :gcstats), Tuple{T, Float64, Int64, Float64, Base.GC_Diff}}, Tuple{Any, Float64, Int64, Float64, Base.GC_Diff}} where T
t = 0.0 sec (0 allocations: 0 byte, 0.0% gc time)
t: 0.0 sec (0 allocations: 0 byte, 0.0% gc time)
Testing ξ(r), ℓ=0, ν=-1 ... passed
Testing ξ(r), ℓ=0, ν=0 ... passed
Testing ξ(r), ℓ=0, ν=1 ... passed
Testing ξ(r), ℓ=0, ν=2 ... passed
Testing ξ(r), ℓ=0, ν=3 ... passed
Testing ξ(r), ℓ=1, ν=0 ... passed
Testing ξ(r), ℓ=1, ν=1 ... passed
Testing ξ(r), ℓ=1, ν=2 ... passed
Testing ξ(r), ℓ=1, ν=3 ... passed
Testing ξ(r), ℓ=2, ν=-1 ... passed
Testing ξ(r), ℓ=2, ν=0 ... passed
Testing ξ(r), ℓ=2, ν=1 ... passed
Testing ξ(r), ℓ=2, ν=2 ... passed
Testing ξ(r), ℓ=2, ν=3 ... passed
Testing ξ(r), ℓ=3, ν=-1 ... passed
Testing ξ(r), ℓ=3, ν=0 ... passed
Testing ξ(r), ℓ=3, ν=1 ... passed
Testing ξ(r), ℓ=3, ν=2 ... passed
Testing ξ(r), ℓ=3, ν=3 ... passed
Testing ξ(r), ℓ=4, ν=-1 ... passed
Testing ξ(r), ℓ=4, ν=0 ... passed
Testing ξ(r), ℓ=4, ν=1 ... passed
Testing ξ(r), ℓ=4, ν=2 ... passed
Testing ξ(r), ℓ=4, ν=3 ... passed
Testing ξ(r) ... passed
Testing ξ′(r) ... passed
Testing ξ″(r) ... passed
Calculating fmax: 
  dlrec    = 4
  dlrecRg1 = -4
  q=1.1, R=1.1:	  3.549909 seconds (842.84 k allocations: 53.893 MiB, 1.05% gc time, 91.78% compilation time)

  3.565750 seconds (855.34 k allocations: 54.681 MiB, 1.05% gc time, 91.81% compilation time)
ℓ = 1202
Δℓ = 4
ΔℓRg1 = -4
N = 1600
q = 1.1
kmin = 1.0e-5
kmax = 100000.00000000004
χ0 = 0.023029999999999995
RR = RR.tsv
ℓmax = ℓmax.bin
f21 = f21.bin
kmin = 1.0e-5
kmax = 100000.0
dlrec    = 4
dlrecRg1 = -4
Output size: 5741568 bytes = 0.005347251892089844 GiB
Output size: 51264 bytes = 4.774332046508789e-5 GiB
Reading 'out/F21EllCache'...   0.621405 seconds (426.51 k allocations: 25.010 MiB, 3.09% gc time, 99.60% compilation time)
ellmax: 1202
lmaxcache: 1202
fell[:,1,1] = ComplexF64[3.9583795592771634e-52 - 9.695233714158177e-68im, 3.990121772925759e-52 - 9.772979714843386e-68im]
ell 1202, elapsed: 3.0994415283203125e-5
ell 1201, elapsed: 1.1277031898498535
ell 1200, elapsed: 0.0004200935363769531
ell 1199, elapsed: 0.00043892860412597656
ell 1198, elapsed: 0.00039196014404296875
ell 1002, elapsed: 0.008414983749389648
ell 1001, elapsed: 0.0004069805145263672
ell 1000, elapsed: 0.0003998279571533203
ell 999, elapsed: 0.00038909912109375
ell 998, elapsed: 0.00039196014404296875
ell 902, elapsed: 0.004338979721069336
ell 901, elapsed: 0.0003979206085205078
ell 900, elapsed: 0.0004150867462158203
ell 899, elapsed: 0.00038909912109375
ell 898, elapsed: 0.00038909912109375
ell 802, elapsed: 0.004403114318847656
ell 801, elapsed: 0.0003941059112548828
ell 800, elapsed: 0.00038814544677734375
ell 799, elapsed: 0.00038695335388183594
ell 798, elapsed: 0.00039005279541015625
ell 702, elapsed: 0.0043370723724365234
ell 701, elapsed: 0.0003979206085205078
ell 700, elapsed: 0.0003898143768310547
ell 699, elapsed: 0.0003910064697265625
ell 698, elapsed: 0.00038909912109375
ell 602, elapsed: 0.00432586669921875
ell 601, elapsed: 0.00039386749267578125
ell 600, elapsed: 0.0003879070281982422
ell 599, elapsed: 0.00039196014404296875
ell 598, elapsed: 0.0003879070281982422
ell 502, elapsed: 0.004379987716674805
ell 501, elapsed: 0.0004329681396484375
ell 500, elapsed: 0.000392913818359375
ell 499, elapsed: 0.0003960132598876953
ell 498, elapsed: 0.0003879070281982422
ell 402, elapsed: 0.0043201446533203125
ell 401, elapsed: 0.00039005279541015625
ell 400, elapsed: 0.0003859996795654297
ell 399, elapsed: 0.00039005279541015625
ell 398, elapsed: 0.0003859996795654297
ell 302, elapsed: 0.00429081916809082
ell 301, elapsed: 0.0004379749298095703
ell 300, elapsed: 0.00039386749267578125
ell 299, elapsed: 0.0003921985626220703
ell 298, elapsed: 0.00039196014404296875
ell 202, elapsed: 0.004336118698120117
ell 201, elapsed: 0.0003979206085205078
ell 200, elapsed: 0.00039196014404296875
ell 199, elapsed: 0.00039005279541015625
ell 198, elapsed: 0.0003991127014160156
ell 152, elapsed: 0.002293825149536133
ell 151, elapsed: 0.00040984153747558594
ell 150, elapsed: 0.00039505958557128906
ell 149, elapsed: 0.00039196014404296875
ell 148, elapsed: 0.00039696693420410156
ell 127, elapsed: 0.0012919902801513672
ell 126, elapsed: 0.0003981590270996094
ell 125, elapsed: 0.0003910064697265625
ell 124, elapsed: 0.0003910064697265625
ell 123, elapsed: 0.0003879070281982422
ell 114, elapsed: 0.0007758140563964844
ell 113, elapsed: 0.00039196014404296875
ell 112, elapsed: 0.000431060791015625
ell 111, elapsed: 0.00038909912109375
ell 110, elapsed: 0.0003879070281982422
ell 102, elapsed: 0.0007309913635253906
ell 101, elapsed: 0.00039696693420410156
ell 100, elapsed: 0.00039005279541015625
ell 99, elapsed: 0.00039196014404296875
ell 98, elapsed: 0.0003910064697265625
ell 97, elapsed: 0.0004520416259765625
ell 96, elapsed: 0.0004878044128417969
ell 95, elapsed: 0.00043892860412597656
ell 94, elapsed: 0.0004398822784423828
ell 93, elapsed: 0.0004329681396484375
ell 92, elapsed: 0.0004429817199707031
ell 91, elapsed: 0.00045299530029296875
ell 90, elapsed: 0.0004508495330810547
ell 89, elapsed: 0.0004611015319824219
ell 88, elapsed: 0.00049591064453125
ell 87, elapsed: 0.0004410743713378906
ell 86, elapsed: 0.0004470348358154297
ell 85, elapsed: 0.0004420280456542969
ell 84, elapsed: 0.00045299530029296875
ell 83, elapsed: 0.00043892860412597656
ell 82, elapsed: 0.0004429817199707031
ell 81, elapsed: 0.0004508495330810547
ell 80, elapsed: 0.0004470348358154297
ell 79, elapsed: 0.0004830360412597656
ell 78, elapsed: 0.0004470348358154297
ell 77, elapsed: 0.00044608116149902344
ell 76, elapsed: 0.0004570484161376953
ell 75, elapsed: 0.0004420280456542969
ell 74, elapsed: 0.00045418739318847656
ell 73, elapsed: 0.0004448890686035156
ell 72, elapsed: 0.00044989585876464844
ell 71, elapsed: 0.0005578994750976562
ell 70, elapsed: 0.00044798851013183594
ell 69, elapsed: 0.0004489421844482422
ell 68, elapsed: 0.0004439353942871094
ell 67, elapsed: 0.0004429817199707031
ell 66, elapsed: 0.00045490264892578125
ell 65, elapsed: 0.0004429817199707031
ell 64, elapsed: 0.0004429817199707031
ell 63, elapsed: 0.00043511390686035156
ell 62, elapsed: 0.0004680156707763672
ell 61, elapsed: 0.00044989585876464844
ell 60, elapsed: 0.0004417896270751953
ell 59, elapsed: 0.00045108795166015625
ell 58, elapsed: 0.0004410743713378906
ell 57, elapsed: 0.0004420280456542969
ell 56, elapsed: 0.00043892860412597656
ell 55, elapsed: 0.0004410743713378906
ell 54, elapsed: 0.0004799365997314453
ell 53, elapsed: 0.0004398822784423828
ell 52, elapsed: 0.0004429817199707031
ell 51, elapsed: 0.0004398822784423828
ell 50, elapsed: 0.0004429817199707031
ell 49, elapsed: 0.0004458427429199219
ell 48, elapsed: 0.0004360675811767578
ell 47, elapsed: 0.00045108795166015625
ell 46, elapsed: 0.0004329681396484375
ell 45, elapsed: 0.0004889965057373047
ell 44, elapsed: 0.0004439353942871094
ell 43, elapsed: 0.0004329681396484375
ell 42, elapsed: 0.0004508495330810547
ell 41, elapsed: 0.0004420280456542969
ell 40, elapsed: 0.00043511390686035156
ell 39, elapsed: 0.00044608116149902344
ell 38, elapsed: 0.00043892860412597656
ell 37, elapsed: 0.00047087669372558594
ell 36, elapsed: 0.00043010711669921875
ell 35, elapsed: 0.00043892860412597656
ell 34, elapsed: 0.0004458427429199219
ell 33, elapsed: 0.0004420280456542969
ell 32, elapsed: 0.00045680999755859375
ell 31, elapsed: 0.0004391670227050781
ell 30, elapsed: 0.00043892860412597656
ell 29, elapsed: 0.00044798851013183594
ell 28, elapsed: 0.0004801750183105469
ell 27, elapsed: 0.00045299530029296875
ell 26, elapsed: 0.0004448890686035156
ell 25, elapsed: 0.0004429817199707031
ell 24, elapsed: 0.0004608631134033203
ell 23, elapsed: 0.0004458427429199219
ell 22, elapsed: 0.00045180320739746094
ell 21, elapsed: 0.00043702125549316406
ell 20, elapsed: 0.0004830360412597656
ell 19, elapsed: 0.0004489421844482422
ell 18, elapsed: 0.0004429817199707031
ell 17, elapsed: 0.00043487548828125
ell 16, elapsed: 0.0004382133483886719
ell 15, elapsed: 0.0004379749298095703
ell 14, elapsed: 0.00045108795166015625
ell 13, elapsed: 0.0004398822784423828
ell 12, elapsed: 0.00044083595275878906
ell 11, elapsed: 0.0004849433898925781
ell 10, elapsed: 0.0004391670227050781
ell 9, elapsed: 0.0004470348358154297
ell 8, elapsed: 0.00043511390686035156
ell 7, elapsed: 0.0004470348358154297
ell 6, elapsed: 0.0004429817199707031
ell 5, elapsed: 0.0004429817199707031
ell 4, elapsed: 0.0004429817199707031
ell 3, elapsed: 0.0004410743713378906
ell 2, elapsed: 0.0005259513854980469
ell 1, elapsed: 0.0004420280456542969
ell 0, elapsed: 0.00044798851013183594
  1.647327 seconds (1.38 M allocations: 74.483 MiB, 2.28% gc time, 92.76% compilation time)
elapsed: 0.0005269050598144531
step:          0.306357 sec (311.141 k allocations: 16.965 MB, 5.84% gc time)
swapping:      0.00034 sec (0 allocations: 0 byte, 0.0% gc time)
calc_Mellell!: 0.121232 sec (135.74 k allocations: 7.433 MB, 0.0% gc time)
  t0 :  0.0 sec (0 allocations: 0 byte, 0.0% gc time)
  tm2 : 0.0 sec (0 allocations: 0 byte, 0.0% gc time)
  tm2s: 0.0 sec (0 allocations: 0 byte, 0.0% gc time)
  tm4 : 0.0 sec (0 allocations: 0 byte, 0.0% gc time)
  tp2 : 0.0 sec (0 allocations: 0 byte, 0.0% gc time)
  tp2s: 0.0 sec (0 allocations: 0 byte, 0.0% gc time)
  tp4 : 0.0 sec (0 allocations: 0 byte, 0.0% gc time)
calc_wtdll!:   0.803972 sec (509.622 k allocations: 28.196 MB, 0.0% gc time)
calc_wljj!:    0.002195 sec (6 allocations: 96 byte, 0.0% gc time)
mult_prefac!:  0.0 sec (0 allocations: 0 byte, 0.0% gc time)
convert:       0.0 sec (0 allocations: 0 byte, 0.0% gc time)
write:         0.003475 sec (0 allocations: 0 byte, 0.0% gc time)
test_rand_2f1: 0.0 sec (0 allocations: 0 byte, 0.0% gc time)
Closing outfile out/Ml21-cache.bin...   0.000010 seconds
  0.885085 seconds (246.31 k allocations: 14.213 MiB, 40.08% compilation time)
make_phi():   0.008573 seconds (8.18 k allocations: 237.844 KiB)
  0.210722 seconds (87.57 k allocations: 4.749 MiB, 94.71% compilation time)
tskip:       1.9e-5 sec (0 allocations: 0 byte, 0.0% gc time)
tread:       0.001979 sec (17 allocations: 2.125 KB, 0.0% gc time)
tmultphi:    0.037617 sec (21.425 k allocations: 1.287 MB, 0.0% gc time)
tbrfft:      0.003159 sec (0 allocations: 0 byte, 0.0% gc time)
tmultprefac: 0.001447 sec (0 allocations: 0 byte, 0.0% gc time)
toutfunc:    0.132352 sec (64.483 k allocations: 3.33 MB, 0.0% gc time)
Testing R=1.1 ... passed
Calculating fmax: 
  dlrec    = 4
  dlrecRg1 = -4
  q=1.1, R=1.0:	  0.001185 seconds (3.20 k allocations: 275.344 KiB)

  0.001291 seconds (3.25 k allocations: 309.984 KiB)
ℓ = 1202
Δℓ = 4
ΔℓRg1 = -4
N = 1600
q = 1.1
kmin = 1.0e-5
kmax = 100000.00000000004
χ0 = 0.023029999999999995
RR = RR.tsv
ℓmax = ℓmax.bin
f21 = f21.bin
kmin = 1.0e-5
kmax = 100000.0
dlrec    = 4
dlrecRg1 = -4
Output size: 61465536 bytes = 0.05724424123764038 GiB
Output size: 51264 bytes = 4.774332046508789e-5 GiB
Reading 'out/F21EllCache'...   0.000655 seconds (197 allocations: 84.203 KiB)
ellmax: 1202
lmaxcache: 1202
fell[:,1,1] = ComplexF64[809.6031528389767 - 1.9829558194077161e-13im, 0.0 + 0.0im]
ell 1202, elapsed: 1.5020370483398438e-5
ell 1201, elapsed: 0.016961097717285156
ell 1200, elapsed: 0.014055013656616211
ell 1199, elapsed: 0.0002658367156982422
ell 1198, elapsed: 0.0002579689025878906
ell 1197, elapsed: 0.0003299713134765625
ell 1196, elapsed: 0.0003008842468261719
ell 1195, elapsed: 0.0002961158752441406
ell 1194, elapsed: 0.0002989768981933594
ell 1193, elapsed: 0.0002970695495605469
ell 1192, elapsed: 0.0002999305725097656
ell 1191, elapsed: 0.0003020763397216797
ell 1190, elapsed: 0.0002980232238769531
ell 1189, elapsed: 0.0002961158752441406
ell 1188, elapsed: 0.0003001689910888672
ell 1187, elapsed: 0.0003581047058105469
ell 1186, elapsed: 0.0002980232238769531
ell 1185, elapsed: 0.00030422210693359375
ell 1184, elapsed: 0.00029587745666503906
ell 1183, elapsed: 0.00030517578125
ell 1182, elapsed: 0.0002970695495605469
ell 1181, elapsed: 0.0002989768981933594
ell 1180, elapsed: 0.00030112266540527344
ell 1179, elapsed: 0.0002949237823486328
ell 1178, elapsed: 0.00030612945556640625
ell 1177, elapsed: 0.0002989768981933594
ell 1176, elapsed: 0.0002961158752441406
ell 1175, elapsed: 0.0003409385681152344
ell 1174, elapsed: 0.00029587745666503906
ell 1173, elapsed: 0.00030493736267089844
ell 1172, elapsed: 0.0002989768981933594
ell 1171, elapsed: 0.0002961158752441406
ell 1170, elapsed: 0.0003008842468261719
ell 1169, elapsed: 0.00030303001403808594
ell 1168, elapsed: 0.00030684471130371094
ell 1167, elapsed: 0.0003008842468261719
ell 1166, elapsed: 0.0002999305725097656
ell 1165, elapsed: 0.0003070831298828125
ell 1164, elapsed: 0.0002980232238769531
ell 1163, elapsed: 0.00030493736267089844
ell 1162, elapsed: 0.0003628730773925781
ell 1161, elapsed: 0.00030112266540527344
ell 1160, elapsed: 0.0002980232238769531
ell 1159, elapsed: 0.0003008842468261719
ell 1158, elapsed: 0.00030303001403808594
ell 1157, elapsed: 0.0002980232238769531
ell 1156, elapsed: 0.00029587745666503906
ell 1155, elapsed: 0.00030112266540527344
ell 1154, elapsed: 0.0002970695495605469
ell 1153, elapsed: 0.0003070831298828125
ell 1152, elapsed: 0.0003008842468261719
ell 1151, elapsed: 0.0002970695495605469
ell 1150, elapsed: 0.0003390312194824219
ell 1149, elapsed: 0.00030303001403808594
ell 1148, elapsed: 0.00030493736267089844
ell 1147, elapsed: 0.0002989768981933594
ell 1146, elapsed: 0.0003139972686767578
ell 1145, elapsed: 0.0002970695495605469
ell 1144, elapsed: 0.0002989768981933594
ell 1143, elapsed: 0.00030112266540527344
ell 1142, elapsed: 0.0002989768981933594
ell 1141, elapsed: 0.0003120899200439453
ell 1140, elapsed: 0.0003020763397216797
ell 1139, elapsed: 0.0003008842468261719
ell 1138, elapsed: 0.0003361701965332031
ell 1137, elapsed: 0.0003008842468261719
ell 1136, elapsed: 0.00030303001403808594
ell 1135, elapsed: 0.0002930164337158203
ell 1134, elapsed: 0.0002999305725097656
ell 1133, elapsed: 0.0002980232238769531
ell 1132, elapsed: 0.0002970695495605469
ell 1131, elapsed: 0.00031685829162597656
ell 1130, elapsed: 0.0002999305725097656
ell 1129, elapsed: 0.0003008842468261719
ell 1128, elapsed: 0.00030493736267089844
ell 1127, elapsed: 0.0002999305725097656
ell 1126, elapsed: 0.00030684471130371094
ell 1125, elapsed: 0.0003638267517089844
ell 1124, elapsed: 0.00029397010803222656
ell 1123, elapsed: 0.0002970695495605469
ell 1122, elapsed: 0.0002899169921875
ell 1121, elapsed: 0.0002980232238769531
ell 1120, elapsed: 0.00028896331787109375
ell 1119, elapsed: 0.0003199577331542969
ell 1118, elapsed: 0.0003070831298828125
ell 1117, elapsed: 0.0002999305725097656
ell 1116, elapsed: 0.0003039836883544922
ell 1115, elapsed: 0.0002949237823486328
ell 1114, elapsed: 0.00029277801513671875
ell 1113, elapsed: 0.0003390312194824219
ell 1112, elapsed: 0.0003008842468261719
ell 1111, elapsed: 0.00030612945556640625
ell 1110, elapsed: 0.0002970695495605469
ell 1109, elapsed: 0.0002949237823486328
ell 1108, elapsed: 0.0002989768981933594
ell 1107, elapsed: 0.0002968311309814453
ell 1106, elapsed: 0.0003027915954589844
ell 1105, elapsed: 0.0002970695495605469
ell 1104, elapsed: 0.00029015541076660156
ell 1103, elapsed: 0.0003020763397216797
ell 1102, elapsed: 0.0002930164337158203
ell 1101, elapsed: 0.00030303001403808594
ell 1100, elapsed: 0.000331878662109375
ell 1099, elapsed: 0.00029397010803222656
ell 1098, elapsed: 0.00029587745666503906
ell 1097, elapsed: 0.0002951622009277344
ell 1096, elapsed: 0.00029778480529785156
ell 1095, elapsed: 0.00030803680419921875
ell 1094, elapsed: 0.0005910396575927734
ell 1093, elapsed: 0.00031185150146484375
ell 1092, elapsed: 0.0002999305725097656
ell 1091, elapsed: 0.0003039836883544922
ell 1090, elapsed: 0.0003039836883544922
ell 1089, elapsed: 0.00030493736267089844
ell 1088, elapsed: 0.00032806396484375
ell 1087, elapsed: 0.0003008842468261719
ell 1086, elapsed: 0.0003101825714111328
ell 1085, elapsed: 0.0002989768981933594
ell 1084, elapsed: 0.0003070831298828125
ell 1083, elapsed: 0.00030493736267089844
ell 1082, elapsed: 0.0003020763397216797
ell 1081, elapsed: 0.00030612945556640625
ell 1080, elapsed: 0.0002999305725097656
ell 1079, elapsed: 0.00030684471130371094
ell 1078, elapsed: 0.00030684471130371094
ell 1077, elapsed: 0.0002970695495605469
ell 1076, elapsed: 0.000347137451171875
ell 1075, elapsed: 0.00029587745666503906
ell 1074, elapsed: 0.0003218650817871094
ell 1073, elapsed: 0.0002930164337158203
ell 1072, elapsed: 0.0003178119659423828
ell 1071, elapsed: 0.0003159046173095703
ell 1070, elapsed: 0.00030517578125
ell 1069, elapsed: 0.00031495094299316406
ell 1068, elapsed: 0.00030994415283203125
ell 1067, elapsed: 0.0002970695495605469
ell 1066, elapsed: 0.00030922889709472656
ell 1065, elapsed: 0.0003077983856201172
ell 1064, elapsed: 0.0003650188446044922
ell 1063, elapsed: 0.000308990478515625
ell 1062, elapsed: 0.00030493736267089844
ell 1061, elapsed: 0.00031113624572753906
ell 1060, elapsed: 0.0003159046173095703
ell 1059, elapsed: 0.0003190040588378906
ell 1058, elapsed: 0.0002970695495605469
ell 1057, elapsed: 0.0002560615539550781
ell 1056, elapsed: 0.0002541542053222656
ell 1055, elapsed: 0.0002529621124267578
ell 1054, elapsed: 0.00025391578674316406
ell 1053, elapsed: 0.0002491474151611328
ell 1052, elapsed: 0.0002491474151611328
ell 1051, elapsed: 0.0002930164337158203
ell 1050, elapsed: 0.0002491474151611328
ell 1049, elapsed: 0.00025582313537597656
ell 1048, elapsed: 0.00024890899658203125
ell 1047, elapsed: 0.000247955322265625
ell 1046, elapsed: 0.00025200843811035156
ell 1045, elapsed: 0.00030493736267089844
ell 1044, elapsed: 0.0003101825714111328
ell 1043, elapsed: 0.0003151893615722656
ell 1042, elapsed: 0.0002989768981933594
ell 1041, elapsed: 0.00030303001403808594
ell 1040, elapsed: 0.00025081634521484375
ell 1039, elapsed: 0.0002570152282714844
ell 1038, elapsed: 0.0002510547637939453
ell 1037, elapsed: 0.0003209114074707031
ell 1036, elapsed: 0.00026702880859375
ell 1035, elapsed: 0.0003020763397216797
ell 1034, elapsed: 0.00031304359436035156
ell 1033, elapsed: 0.0003039836883544922
ell 1032, elapsed: 0.00030612945556640625
ell 1031, elapsed: 0.00030303001403808594
ell 1030, elapsed: 0.00030303001403808594
ell 1029, elapsed: 0.00031113624572753906
ell 1028, elapsed: 0.0003058910369873047
ell 1027, elapsed: 0.0002968311309814453
ell 1026, elapsed: 0.0003039836883544922
ell 1025, elapsed: 0.00030112266540527344
ell 1024, elapsed: 0.0003209114074707031
ell 1023, elapsed: 0.00030303001403808594
ell 1022, elapsed: 0.00026297569274902344
ell 1021, elapsed: 0.00024819374084472656
ell 1020, elapsed: 0.0002980232238769531
ell 1019, elapsed: 0.0003001689910888672
ell 1018, elapsed: 0.0002911090850830078
ell 1017, elapsed: 0.0002961158752441406
ell 1016, elapsed: 0.0002949237823486328
ell 1015, elapsed: 0.0003020763397216797
ell 1014, elapsed: 0.00030303001403808594
ell 1013, elapsed: 0.0003039836883544922
ell 1012, elapsed: 0.00037097930908203125
ell 1011, elapsed: 0.0003039836883544922
ell 1010, elapsed: 0.0002999305725097656
ell 1009, elapsed: 0.00030303001403808594
ell 1008, elapsed: 0.0002999305725097656
ell 1007, elapsed: 0.00030493736267089844
ell 1006, elapsed: 0.0002961158752441406
ell 1005, elapsed: 0.0002968311309814453
ell 1004, elapsed: 0.0003008842468261719
ell 1003, elapsed: 0.0003008842468261719
ell 1002, elapsed: 0.0003039836883544922
ell 1001, elapsed: 0.0002980232238769531
ell 1000, elapsed: 0.0003440380096435547
ell 999, elapsed: 0.00030422210693359375
ell 998, elapsed: 0.0002980232238769531
ell 997, elapsed: 0.0002989768981933594
ell 996, elapsed: 0.0002989768981933594
ell 995, elapsed: 0.0003020763397216797
ell 994, elapsed: 0.0003039836883544922
ell 993, elapsed: 0.0002980232238769531
ell 992, elapsed: 0.0003020763397216797
ell 991, elapsed: 0.0002980232238769531
ell 990, elapsed: 0.00029397010803222656
ell 989, elapsed: 0.0002980232238769531
ell 988, elapsed: 0.0002961158752441406
ell 987, elapsed: 0.00033402442932128906
ell 986, elapsed: 0.00029015541076660156
ell 985, elapsed: 0.0003070831298828125
ell 984, elapsed: 0.00029397010803222656
ell 983, elapsed: 0.0002989768981933594
ell 982, elapsed: 0.0003020763397216797
ell 981, elapsed: 0.00029587745666503906
ell 980, elapsed: 0.0002961158752441406
ell 979, elapsed: 0.0002980232238769531
ell 978, elapsed: 0.0002980232238769531
ell 977, elapsed: 0.0003108978271484375
ell 976, elapsed: 0.0003008842468261719
ell 975, elapsed: 0.0003600120544433594
ell 974, elapsed: 0.004026889801025391
ell 973, elapsed: 0.0003039836883544922
ell 972, elapsed: 0.0002930164337158203
ell 971, elapsed: 0.00029206275939941406
ell 970, elapsed: 0.0002880096435546875
ell 969, elapsed: 0.00028204917907714844
ell 968, elapsed: 0.0002841949462890625
ell 967, elapsed: 0.00028777122497558594
ell 966, elapsed: 0.0002830028533935547
ell 965, elapsed: 0.0002880096435546875
ell 964, elapsed: 0.0002808570861816406
ell 963, elapsed: 0.000286102294921875
ell 962, elapsed: 0.0002911090850830078
ell 961, elapsed: 0.00031304359436035156
ell 960, elapsed: 0.0002999305725097656
ell 959, elapsed: 0.0002789497375488281
ell 958, elapsed: 0.00029087066650390625
ell 957, elapsed: 0.0002899169921875
ell 956, elapsed: 0.000286102294921875
ell 955, elapsed: 0.00028896331787109375
ell 954, elapsed: 0.0002899169921875
ell 953, elapsed: 0.0002830028533935547
ell 952, elapsed: 0.0002949237823486328
ell 951, elapsed: 0.0002880096435546875
ell 950, elapsed: 0.00028896331787109375
ell 949, elapsed: 0.0002880096435546875
ell 948, elapsed: 0.00034499168395996094
ell 947, elapsed: 0.00029206275939941406
ell 946, elapsed: 0.00029206275939941406
ell 945, elapsed: 0.00030303001403808594
ell 944, elapsed: 0.00029206275939941406
ell 943, elapsed: 0.00029206275939941406
ell 942, elapsed: 0.00030493736267089844
ell 941, elapsed: 0.00029397010803222656
ell 940, elapsed: 0.0003020763397216797
ell 939, elapsed: 0.0002970695495605469
ell 938, elapsed: 0.00029206275939941406
ell 937, elapsed: 0.00029206275939941406
ell 936, elapsed: 0.0004398822784423828
ell 935, elapsed: 0.00030303001403808594
ell 934, elapsed: 0.00029277801513671875
ell 933, elapsed: 0.0002930164337158203
ell 932, elapsed: 0.0003008842468261719
ell 931, elapsed: 0.00030112266540527344
ell 930, elapsed: 0.0002980232238769531
ell 929, elapsed: 0.00029206275939941406
ell 928, elapsed: 0.00030112266540527344
ell 927, elapsed: 0.0003039836883544922
ell 926, elapsed: 0.0002968311309814453
ell 925, elapsed: 0.000308990478515625
ell 924, elapsed: 0.0002980232238769531
ell 923, elapsed: 0.0006139278411865234
ell 922, elapsed: 0.0003170967102050781
ell 921, elapsed: 0.0003020763397216797
ell 920, elapsed: 0.00030112266540527344
ell 919, elapsed: 0.00029206275939941406
ell 918, elapsed: 0.0002989768981933594
ell 917, elapsed: 0.00029397010803222656
ell 916, elapsed: 0.00029206275939941406
ell 915, elapsed: 0.0002989768981933594
ell 914, elapsed: 0.0002970695495605469
ell 913, elapsed: 0.0003001689910888672
ell 912, elapsed: 0.0004119873046875
ell 911, elapsed: 0.0003008842468261719
ell 910, elapsed: 0.00030303001403808594
ell 909, elapsed: 0.00030303001403808594
ell 908, elapsed: 0.00030803680419921875
ell 907, elapsed: 0.0002999305725097656
ell 906, elapsed: 0.0002961158752441406
ell 905, elapsed: 0.0003001689910888672
ell 904, elapsed: 0.0002961158752441406
ell 903, elapsed: 0.00030517578125
ell 902, elapsed: 0.0002980232238769531
ell 901, elapsed: 0.0002949237823486328
ell 900, elapsed: 0.00040721893310546875
ell 899, elapsed: 0.00030493736267089844
ell 898, elapsed: 0.0003120899200439453
ell 897, elapsed: 0.00030493736267089844
ell 896, elapsed: 0.0002980232238769531
ell 895, elapsed: 0.0002980232238769531
ell 894, elapsed: 0.0002970695495605469
ell 893, elapsed: 0.0003070831298828125
ell 892, elapsed: 0.0002989768981933594
ell 891, elapsed: 0.0002989768981933594
ell 890, elapsed: 0.0003070831298828125
ell 889, elapsed: 0.00030612945556640625
ell 888, elapsed: 0.00039315223693847656
ell 887, elapsed: 0.00030493736267089844
ell 886, elapsed: 0.0003101825714111328
ell 885, elapsed: 0.0003058910369873047
ell 884, elapsed: 0.00030493736267089844
ell 883, elapsed: 0.00030994415283203125
ell 882, elapsed: 0.0002980232238769531
ell 881, elapsed: 0.0003027915954589844
ell 880, elapsed: 0.00030493736267089844
ell 879, elapsed: 0.00030994415283203125
ell 878, elapsed: 0.00031304359436035156
ell 877, elapsed: 0.00030303001403808594
ell 876, elapsed: 0.00034689903259277344
ell 875, elapsed: 0.0003020763397216797
ell 874, elapsed: 0.0003070831298828125
ell 873, elapsed: 0.0003120899200439453
ell 872, elapsed: 0.0003039836883544922
ell 871, elapsed: 0.0003058910369873047
ell 870, elapsed: 0.000308990478515625
ell 869, elapsed: 0.0003070831298828125
ell 868, elapsed: 0.0003161430358886719
ell 867, elapsed: 0.0002999305725097656
ell 866, elapsed: 0.00030994415283203125
ell 865, elapsed: 0.00031113624572753906
ell 864, elapsed: 0.0003299713134765625
ell 863, elapsed: 0.0003101825714111328
ell 862, elapsed: 0.0003058910369873047
ell 861, elapsed: 0.0003120899200439453
ell 860, elapsed: 0.0002989768981933594
ell 859, elapsed: 0.0002949237823486328
ell 858, elapsed: 0.0003058910369873047
ell 857, elapsed: 0.00030303001403808594
ell 856, elapsed: 0.0003039836883544922
ell 855, elapsed: 0.000308990478515625
ell 854, elapsed: 0.0003008842468261719
ell 853, elapsed: 0.0003070831298828125
ell 852, elapsed: 0.00030112266540527344
ell 851, elapsed: 0.0003139972686767578
ell 850, elapsed: 0.0003018379211425781
ell 849, elapsed: 0.00030517578125
ell 848, elapsed: 0.0003039836883544922
ell 847, elapsed: 0.0003039836883544922
ell 846, elapsed: 0.0003139972686767578
ell 845, elapsed: 0.0002999305725097656
ell 844, elapsed: 0.0002968311309814453
ell 843, elapsed: 0.00031280517578125
ell 842, elapsed: 0.0002980232238769531
ell 841, elapsed: 0.000308990478515625
ell 840, elapsed: 0.0003027915954589844
ell 839, elapsed: 0.00032901763916015625
ell 838, elapsed: 0.0002980232238769531
ell 837, elapsed: 0.00030803680419921875
ell 836, elapsed: 0.00030493736267089844
ell 835, elapsed: 0.0002949237823486328
ell 834, elapsed: 0.0003039836883544922
ell 833, elapsed: 0.0002961158752441406
ell 832, elapsed: 0.0002989768981933594
ell 831, elapsed: 0.0003018379211425781
ell 830, elapsed: 0.0002999305725097656
ell 829, elapsed: 0.0002999305725097656
ell 828, elapsed: 0.00029397010803222656
ell 827, elapsed: 0.0003561973571777344
ell 826, elapsed: 0.00028896331787109375
ell 825, elapsed: 0.0002791881561279297
ell 824, elapsed: 0.00028705596923828125
ell 823, elapsed: 0.00028014183044433594
ell 822, elapsed: 0.00028204917907714844
ell 821, elapsed: 0.000286102294921875
ell 820, elapsed: 0.0002789497375488281
ell 819, elapsed: 0.00029087066650390625
ell 818, elapsed: 0.0002818107604980469
ell 817, elapsed: 0.0002799034118652344
ell 816, elapsed: 0.00028586387634277344
ell 815, elapsed: 0.00030303001403808594
ell 814, elapsed: 0.0003559589385986328
ell 813, elapsed: 0.0002970695495605469
ell 812, elapsed: 0.00030493736267089844
ell 811, elapsed: 0.00031304359436035156
ell 810, elapsed: 0.0003008842468261719
ell 809, elapsed: 0.0003077983856201172
ell 808, elapsed: 0.0002999305725097656
ell 807, elapsed: 0.00030803680419921875
ell 806, elapsed: 0.0002980232238769531
ell 805, elapsed: 0.0002911090850830078
ell 804, elapsed: 0.0002949237823486328
ell 803, elapsed: 0.0003020763397216797
ell 802, elapsed: 0.00030303001403808594
ell 801, elapsed: 0.00033211708068847656
ell 800, elapsed: 0.0002999305725097656
ell 799, elapsed: 0.00030493736267089844
ell 798, elapsed: 0.00029587745666503906
ell 797, elapsed: 0.00030493736267089844
ell 796, elapsed: 0.00030493736267089844
ell 795, elapsed: 0.00030612945556640625
ell 794, elapsed: 0.0003018379211425781
ell 793, elapsed: 0.0002980232238769531
ell 792, elapsed: 0.0003020763397216797
ell 791, elapsed: 0.0002970695495605469
ell 790, elapsed: 0.00030612945556640625
ell 789, elapsed: 0.00032806396484375
ell 788, elapsed: 0.0003101825714111328
ell 787, elapsed: 0.00030303001403808594
ell 786, elapsed: 0.0003039836883544922
ell 785, elapsed: 0.00029587745666503906
ell 784, elapsed: 0.0003020763397216797
ell 783, elapsed: 0.0002980232238769531
ell 782, elapsed: 0.00031495094299316406
ell 781, elapsed: 0.0002999305725097656
ell 780, elapsed: 0.0002980232238769531
ell 779, elapsed: 0.00030112266540527344
ell 778, elapsed: 0.0002961158752441406
ell 777, elapsed: 0.00034308433532714844
ell 776, elapsed: 0.00030112266540527344
ell 775, elapsed: 0.0002989768981933594
ell 774, elapsed: 0.0002970695495605469
ell 773, elapsed: 0.0002989768981933594
ell 772, elapsed: 0.0002999305725097656
ell 771, elapsed: 0.0002970695495605469
ell 770, elapsed: 0.0002980232238769531
ell 769, elapsed: 0.00029206275939941406
ell 768, elapsed: 0.00029587745666503906
ell 767, elapsed: 0.0002949237823486328
ell 766, elapsed: 0.0002980232238769531
ell 765, elapsed: 0.0002980232238769531
ell 764, elapsed: 0.0003230571746826172
ell 763, elapsed: 0.0002949237823486328
ell 762, elapsed: 0.00029778480529785156
ell 761, elapsed: 0.0002930164337158203
ell 760, elapsed: 0.0003008842468261719
ell 759, elapsed: 0.0002880096435546875
ell 758, elapsed: 0.0002949237823486328
ell 757, elapsed: 0.0002892017364501953
ell 756, elapsed: 0.00029778480529785156
ell 755, elapsed: 0.0003039836883544922
ell 754, elapsed: 0.0002980232238769531
ell 753, elapsed: 0.0002999305725097656
ell 752, elapsed: 0.0003058910369873047
ell 751, elapsed: 0.0003540515899658203
ell 750, elapsed: 0.0003039836883544922
ell 749, elapsed: 0.0002970695495605469
ell 748, elapsed: 0.00030493736267089844
ell 747, elapsed: 0.0002911090850830078
ell 746, elapsed: 0.0002989768981933594
ell 745, elapsed: 0.0003039836883544922
ell 744, elapsed: 0.0003018379211425781
ell 743, elapsed: 0.0003180503845214844
ell 742, elapsed: 0.00030303001403808594
ell 741, elapsed: 0.00029587745666503906
ell 740, elapsed: 0.0003018379211425781
ell 739, elapsed: 0.0003199577331542969
ell 738, elapsed: 0.0003020763397216797
ell 737, elapsed: 0.00029587745666503906
ell 736, elapsed: 0.00029778480529785156
ell 735, elapsed: 0.00030684471130371094
ell 734, elapsed: 0.00029778480529785156
ell 733, elapsed: 0.00030612945556640625
ell 732, elapsed: 0.0002961158752441406
ell 731, elapsed: 0.0002989768981933594
ell 730, elapsed: 0.00031495094299316406
ell 729, elapsed: 0.0003001689910888672
ell 728, elapsed: 0.00031113624572753906
ell 727, elapsed: 0.0003299713134765625
ell 726, elapsed: 0.0002989768981933594
ell 725, elapsed: 0.0003139972686767578
ell 724, elapsed: 0.0003039836883544922
ell 723, elapsed: 0.0003070831298828125
ell 722, elapsed: 0.0002989768981933594
ell 721, elapsed: 0.00030303001403808594
ell 720, elapsed: 0.0002980232238769531
ell 719, elapsed: 0.0002999305725097656
ell 718, elapsed: 0.0003001689910888672
ell 717, elapsed: 0.00028705596923828125
ell 716, elapsed: 0.0002980232238769531
ell 715, elapsed: 0.0002980232238769531
ell 714, elapsed: 0.0003409385681152344
ell 713, elapsed: 0.0003039836883544922
ell 712, elapsed: 0.0002970695495605469
ell 711, elapsed: 0.0003020763397216797
ell 710, elapsed: 0.0003020763397216797
ell 709, elapsed: 0.0002980232238769531
ell 708, elapsed: 0.00030517578125
ell 707, elapsed: 0.00029587745666503906
ell 706, elapsed: 0.00030612945556640625
ell 705, elapsed: 0.0002999305725097656
ell 704, elapsed: 0.00030517578125
ell 703, elapsed: 0.00030803680419921875
ell 702, elapsed: 0.0003299713134765625
ell 701, elapsed: 0.0003058910369873047
ell 700, elapsed: 0.0003020763397216797
ell 699, elapsed: 0.0002999305725097656
ell 698, elapsed: 0.00030493736267089844
ell 697, elapsed: 0.00029587745666503906
ell 696, elapsed: 0.00031113624572753906
ell 695, elapsed: 0.0002999305725097656
ell 694, elapsed: 0.0003020763397216797
ell 693, elapsed: 0.0003008842468261719
ell 692, elapsed: 0.0002999305725097656
ell 691, elapsed: 0.00030803680419921875
ell 690, elapsed: 0.0003018379211425781
ell 689, elapsed: 0.00032401084899902344
ell 688, elapsed: 0.0002968311309814453
ell 687, elapsed: 0.0002999305725097656
ell 686, elapsed: 0.00030493736267089844
ell 685, elapsed: 0.0002999305725097656
ell 684, elapsed: 0.0003070831298828125
ell 683, elapsed: 0.0002989768981933594
ell 682, elapsed: 0.00030303001403808594
ell 681, elapsed: 0.000308990478515625
ell 680, elapsed: 0.0003008842468261719
ell 679, elapsed: 0.00030493736267089844
ell 678, elapsed: 0.0003018379211425781
ell 677, elapsed: 0.00035500526428222656
ell 676, elapsed: 0.0003058910369873047
ell 675, elapsed: 0.00029587745666503906
ell 674, elapsed: 0.0002980232238769531
ell 673, elapsed: 0.0002918243408203125
ell 672, elapsed: 0.0002980232238769531
ell 671, elapsed: 0.0002989768981933594
ell 670, elapsed: 0.0002911090850830078
ell 669, elapsed: 0.0002989768981933594
ell 668, elapsed: 0.00029015541076660156
ell 667, elapsed: 0.0002949237823486328
ell 666, elapsed: 0.0002999305725097656
ell 665, elapsed: 0.0002980232238769531
ell 664, elapsed: 0.00033593177795410156
ell 663, elapsed: 0.0002949237823486328
ell 662, elapsed: 0.0002949237823486328
ell 661, elapsed: 0.0002951622009277344
ell 660, elapsed: 0.0002930164337158203
ell 659, elapsed: 0.0003020763397216797
ell 658, elapsed: 0.00029587745666503906
ell 657, elapsed: 0.00030112266540527344
ell 656, elapsed: 0.0002880096435546875
ell 655, elapsed: 0.0002949237823486328
ell 654, elapsed: 0.0002951622009277344
ell 653, elapsed: 0.00028896331787109375
ell 652, elapsed: 0.00034689903259277344
ell 651, elapsed: 0.0002930164337158203
ell 650, elapsed: 0.00029087066650390625
ell 649, elapsed: 0.00029397010803222656
ell 648, elapsed: 0.0002899169921875
ell 647, elapsed: 0.0002989768981933594
ell 646, elapsed: 0.00029397010803222656
ell 645, elapsed: 0.00031113624572753906
ell 644, elapsed: 0.0002949237823486328
ell 643, elapsed: 0.00029397010803222656
ell 642, elapsed: 0.000308990478515625
ell 641, elapsed: 0.00029087066650390625
ell 640, elapsed: 0.0002949237823486328
ell 639, elapsed: 0.0003418922424316406
ell 638, elapsed: 0.0002880096435546875
ell 637, elapsed: 0.00029587745666503906
ell 636, elapsed: 0.0002930164337158203
ell 635, elapsed: 0.0002930164337158203
ell 634, elapsed: 0.00030303001403808594
ell 633, elapsed: 0.0002980232238769531
ell 632, elapsed: 0.0003120899200439453
ell 631, elapsed: 0.00029397010803222656
ell 630, elapsed: 0.0003108978271484375
ell 629, elapsed: 0.0002970695495605469
ell 628, elapsed: 0.0003020763397216797
ell 627, elapsed: 0.00029587745666503906
ell 626, elapsed: 0.0003058910369873047
ell 625, elapsed: 0.00030493736267089844
ell 624, elapsed: 0.0003001689910888672
ell 623, elapsed: 0.0002949237823486328
ell 622, elapsed: 0.00030303001403808594
ell 621, elapsed: 0.0002980232238769531
ell 620, elapsed: 0.0002999305725097656
ell 619, elapsed: 0.0002930164337158203
ell 618, elapsed: 0.0002951622009277344
ell 617, elapsed: 0.0003039836883544922
ell 616, elapsed: 0.00029587745666503906
ell 615, elapsed: 0.0003018379211425781
ell 614, elapsed: 0.00034499168395996094
ell 613, elapsed: 0.00029087066650390625
ell 612, elapsed: 0.0003039836883544922
ell 611, elapsed: 0.00029778480529785156
ell 610, elapsed: 0.0002999305725097656
ell 609, elapsed: 0.0003008842468261719
ell 608, elapsed: 0.0003018379211425781
ell 607, elapsed: 0.00030493736267089844
ell 606, elapsed: 0.0002980232238769531
ell 605, elapsed: 0.00031185150146484375
ell 604, elapsed: 0.0002999305725097656
ell 603, elapsed: 0.0003001689910888672
ell 602, elapsed: 0.00037097930908203125
ell 601, elapsed: 0.0003058910369873047
ell 600, elapsed: 0.0003178119659423828
ell 599, elapsed: 0.0003020763397216797
ell 598, elapsed: 0.00030994415283203125
ell 597, elapsed: 0.0002980232238769531
ell 596, elapsed: 0.00030112266540527344
ell 595, elapsed: 0.0003170967102050781
ell 594, elapsed: 0.00030493736267089844
ell 593, elapsed: 0.0003268718719482422
ell 592, elapsed: 0.0003008842468261719
ell 591, elapsed: 0.0003020763397216797
ell 590, elapsed: 0.0003387928009033203
ell 589, elapsed: 0.0003139972686767578
ell 588, elapsed: 0.0002999305725097656
ell 587, elapsed: 0.0002930164337158203
ell 586, elapsed: 0.0003018379211425781
ell 585, elapsed: 0.00030684471130371094
ell 584, elapsed: 0.0003008842468261719
ell 583, elapsed: 0.0003139972686767578
ell 582, elapsed: 0.00030112266540527344
ell 581, elapsed: 0.00030303001403808594
ell 580, elapsed: 0.00030994415283203125
ell 579, elapsed: 0.000308990478515625
ell 578, elapsed: 0.00031495094299316406
ell 577, elapsed: 0.0003600120544433594
ell 576, elapsed: 0.0003039836883544922
ell 575, elapsed: 0.00030684471130371094
ell 574, elapsed: 0.00030493736267089844
ell 573, elapsed: 0.00030994415283203125
ell 572, elapsed: 0.00030303001403808594
ell 571, elapsed: 0.0003008842468261719
ell 570, elapsed: 0.0003058910369873047
ell 569, elapsed: 0.0002951622009277344
ell 568, elapsed: 0.0003058910369873047
ell 567, elapsed: 0.0002980232238769531
ell 566, elapsed: 0.0002930164337158203
ell 565, elapsed: 0.00034308433532714844
ell 564, elapsed: 0.0003120899200439453
ell 563, elapsed: 0.0003058910369873047
ell 562, elapsed: 0.0002989768981933594
ell 561, elapsed: 0.0003039836883544922
ell 560, elapsed: 0.0002980232238769531
ell 559, elapsed: 0.0003039836883544922
ell 558, elapsed: 0.00030493736267089844
ell 557, elapsed: 0.0002980232238769531
ell 556, elapsed: 0.0003139972686767578
ell 555, elapsed: 0.00029397010803222656
ell 554, elapsed: 0.0002970695495605469
ell 553, elapsed: 0.0003571510314941406
ell 552, elapsed: 0.0003058910369873047
ell 551, elapsed: 0.00032591819763183594
ell 550, elapsed: 0.0003039836883544922
ell 549, elapsed: 0.0002999305725097656
ell 548, elapsed: 0.00031185150146484375
ell 547, elapsed: 0.0002968311309814453
ell 546, elapsed: 0.00031495094299316406
ell 545, elapsed: 0.0002989768981933594
ell 544, elapsed: 0.0003039836883544922
ell 543, elapsed: 0.00030994415283203125
ell 542, elapsed: 0.0002989768981933594
ell 541, elapsed: 0.00034999847412109375
ell 540, elapsed: 0.00030493736267089844
ell 539, elapsed: 0.00030803680419921875
ell 538, elapsed: 0.0002989768981933594
ell 537, elapsed: 0.0002930164337158203
ell 536, elapsed: 0.00030684471130371094
ell 535, elapsed: 0.0003039836883544922
ell 534, elapsed: 0.00030803680419921875
ell 533, elapsed: 0.0003058910369873047
ell 532, elapsed: 0.00030803680419921875
ell 531, elapsed: 0.00030612945556640625
ell 530, elapsed: 0.0003001689910888672
ell 529, elapsed: 0.0003139972686767578
ell 528, elapsed: 0.0003368854522705078
ell 527, elapsed: 0.00029778480529785156
ell 526, elapsed: 0.0003039836883544922
ell 525, elapsed: 0.00030112266540527344
ell 524, elapsed: 0.0003058910369873047
ell 523, elapsed: 0.00029397010803222656
ell 522, elapsed: 0.0002999305725097656
ell 521, elapsed: 0.0003001689910888672
ell 520, elapsed: 0.0002930164337158203
ell 519, elapsed: 0.00031304359436035156
ell 518, elapsed: 0.0002951622009277344
ell 517, elapsed: 0.0003018379211425781
ell 516, elapsed: 0.0004189014434814453
ell 515, elapsed: 0.0002989768981933594
ell 514, elapsed: 0.0003180503845214844
ell 513, elapsed: 0.00030612945556640625
ell 512, elapsed: 0.0003159046173095703
ell 511, elapsed: 0.0002980232238769531
ell 510, elapsed: 0.00030994415283203125
ell 509, elapsed: 0.0003159046173095703
ell 508, elapsed: 0.0002999305725097656
ell 507, elapsed: 0.0003161430358886719
ell 506, elapsed: 0.0003058910369873047
ell 505, elapsed: 0.0003008842468261719
ell 504, elapsed: 0.0003421306610107422
ell 503, elapsed: 0.0003020763397216797
ell 502, elapsed: 0.00030112266540527344
ell 501, elapsed: 0.0002980232238769531
ell 500, elapsed: 0.0002980232238769531
ell 499, elapsed: 0.0003001689910888672
ell 498, elapsed: 0.0002970695495605469
ell 497, elapsed: 0.00030493736267089844
ell 496, elapsed: 0.0002899169921875
ell 495, elapsed: 0.0003039836883544922
ell 494, elapsed: 0.0003008842468261719
ell 493, elapsed: 0.0002970695495605469
ell 492, elapsed: 0.0003101825714111328
ell 491, elapsed: 0.00031113624572753906
ell 490, elapsed: 0.0003058910369873047
ell 489, elapsed: 0.0003139972686767578
ell 488, elapsed: 0.0003120899200439453
ell 487, elapsed: 0.0003161430358886719
ell 486, elapsed: 0.0003077983856201172
ell 485, elapsed: 0.00031113624572753906
ell 484, elapsed: 0.00033402442932128906
ell 483, elapsed: 0.00030803680419921875
ell 482, elapsed: 0.00032401084899902344
ell 481, elapsed: 0.00030612945556640625
ell 480, elapsed: 0.00034809112548828125
ell 479, elapsed: 0.00030684471130371094
ell 478, elapsed: 0.000308990478515625
ell 477, elapsed: 0.0003151893615722656
ell 476, elapsed: 0.0002949237823486328
ell 475, elapsed: 0.0003139972686767578
ell 474, elapsed: 0.0003058910369873047
ell 473, elapsed: 0.0002980232238769531
ell 472, elapsed: 0.00030684471130371094
ell 471, elapsed: 0.0002989768981933594
ell 470, elapsed: 0.00030803680419921875
ell 469, elapsed: 0.0002980232238769531
ell 468, elapsed: 0.0002961158752441406
ell 467, elapsed: 0.00031304359436035156
ell 466, elapsed: 0.0003020763397216797
ell 465, elapsed: 0.00033211708068847656
ell 464, elapsed: 0.0003180503845214844
ell 463, elapsed: 0.0003008842468261719
ell 462, elapsed: 0.0003209114074707031
ell 461, elapsed: 0.0002968311309814453
ell 460, elapsed: 0.00030303001403808594
ell 459, elapsed: 0.0002999305725097656
ell 458, elapsed: 0.0002961158752441406
ell 457, elapsed: 0.0003159046173095703
ell 456, elapsed: 0.00029206275939941406
ell 455, elapsed: 0.0004229545593261719
ell 454, elapsed: 0.0002989768981933594
ell 453, elapsed: 0.0002970695495605469
ell 452, elapsed: 0.00030303001403808594
ell 451, elapsed: 0.00029206275939941406
ell 450, elapsed: 0.0003070831298828125
ell 449, elapsed: 0.0002949237823486328
ell 448, elapsed: 0.00030803680419921875
ell 447, elapsed: 0.0002970695495605469
ell 446, elapsed: 0.0003008842468261719
ell 445, elapsed: 0.0003020763397216797
ell 444, elapsed: 0.0003070831298828125
ell 443, elapsed: 0.0003399848937988281
ell 442, elapsed: 0.0003020763397216797
ell 441, elapsed: 0.0003070831298828125
ell 440, elapsed: 0.00031113624572753906
ell 439, elapsed: 0.0002961158752441406
ell 438, elapsed: 0.00031495094299316406
ell 437, elapsed: 0.0002961158752441406
ell 436, elapsed: 0.0002970695495605469
ell 435, elapsed: 0.00030612945556640625
ell 434, elapsed: 0.00030612945556640625
ell 433, elapsed: 0.0003020763397216797
ell 432, elapsed: 0.0003039836883544922
ell 431, elapsed: 0.0003299713134765625
ell 430, elapsed: 0.0003209114074707031
ell 429, elapsed: 0.00030612945556640625
ell 428, elapsed: 0.00030803680419921875
ell 427, elapsed: 0.00030303001403808594
ell 426, elapsed: 0.00030684471130371094
ell 425, elapsed: 0.0002999305725097656
ell 424, elapsed: 0.0003008842468261719
ell 423, elapsed: 0.0003070831298828125
ell 422, elapsed: 0.0003108978271484375
ell 421, elapsed: 0.0003039836883544922
ell 420, elapsed: 0.0003108978271484375
ell 419, elapsed: 0.0003459453582763672
ell 418, elapsed: 0.000308990478515625
ell 417, elapsed: 0.000308990478515625
ell 416, elapsed: 0.0003120899200439453
ell 415, elapsed: 0.0003039836883544922
ell 414, elapsed: 0.0003018379211425781
ell 413, elapsed: 0.0003311634063720703
ell 412, elapsed: 0.0003058910369873047
ell 411, elapsed: 0.0003108978271484375
ell 410, elapsed: 0.00030994415283203125
ell 409, elapsed: 0.00030684471130371094
ell 408, elapsed: 0.00030803680419921875
ell 407, elapsed: 0.0003399848937988281
ell 406, elapsed: 0.00030612945556640625
ell 405, elapsed: 0.00030303001403808594
ell 404, elapsed: 0.00030303001403808594
ell 403, elapsed: 0.00030803680419921875
ell 402, elapsed: 0.00030493736267089844
ell 401, elapsed: 0.00031685829162597656
ell 400, elapsed: 0.00029778480529785156
ell 399, elapsed: 0.0002989768981933594
ell 398, elapsed: 0.0003039836883544922
ell 397, elapsed: 0.0003008842468261719
ell 396, elapsed: 0.0003039836883544922
ell 395, elapsed: 0.0003008842468261719
ell 394, elapsed: 0.0003178119659423828
ell 393, elapsed: 0.0003190040588378906
ell 392, elapsed: 0.00029397010803222656
ell 391, elapsed: 0.0003027915954589844
ell 390, elapsed: 0.00029587745666503906
ell 389, elapsed: 0.0003018379211425781
ell 388, elapsed: 0.00030303001403808594
ell 387, elapsed: 0.0002970695495605469
ell 386, elapsed: 0.00030303001403808594
ell 385, elapsed: 0.00029087066650390625
ell 384, elapsed: 0.00030303001403808594
ell 383, elapsed: 0.0002989768981933594
ell 382, elapsed: 0.00041103363037109375
ell 381, elapsed: 0.0002970695495605469
ell 380, elapsed: 0.0002951622009277344
ell 379, elapsed: 0.0003070831298828125
ell 378, elapsed: 0.0002970695495605469
ell 377, elapsed: 0.0002930164337158203
ell 376, elapsed: 0.0003008842468261719
ell 375, elapsed: 0.00029087066650390625
ell 374, elapsed: 0.0002980232238769531
ell 373, elapsed: 0.00029587745666503906
ell 372, elapsed: 0.0002961158752441406
ell 371, elapsed: 0.00030517578125
ell 370, elapsed: 0.00034499168395996094
ell 369, elapsed: 0.00030303001403808594
ell 368, elapsed: 0.0002980232238769531
ell 367, elapsed: 0.0002968311309814453
ell 366, elapsed: 0.00030112266540527344
ell 365, elapsed: 0.0002949237823486328
ell 364, elapsed: 0.0003268718719482422
ell 363, elapsed: 0.0002968311309814453
ell 362, elapsed: 0.0002951622009277344
ell 361, elapsed: 0.00029778480529785156
ell 360, elapsed: 0.00029587745666503906
ell 359, elapsed: 0.0002989768981933594
ell 358, elapsed: 0.0002961158752441406
ell 357, elapsed: 0.0003199577331542969
ell 356, elapsed: 0.0002949237823486328
ell 355, elapsed: 0.0002930164337158203
ell 354, elapsed: 0.0002951622009277344
ell 353, elapsed: 0.0002980232238769531
ell 352, elapsed: 0.0002999305725097656
ell 351, elapsed: 0.00030303001403808594
ell 350, elapsed: 0.0002968311309814453
ell 349, elapsed: 0.00030303001403808594
ell 348, elapsed: 0.0002949237823486328
ell 347, elapsed: 0.0002989768981933594
ell 346, elapsed: 0.0002980232238769531
ell 345, elapsed: 0.0003428459167480469
ell 344, elapsed: 0.00030493736267089844
ell 343, elapsed: 0.0003008842468261719
ell 342, elapsed: 0.00030493736267089844
ell 341, elapsed: 0.0002989768981933594
ell 340, elapsed: 0.0002970695495605469
ell 339, elapsed: 0.00030303001403808594
ell 338, elapsed: 0.0002961158752441406
ell 337, elapsed: 0.0003039836883544922
ell 336, elapsed: 0.0002968311309814453
ell 335, elapsed: 0.0002930164337158203
ell 334, elapsed: 0.0002999305725097656
ell 333, elapsed: 0.00029778480529785156
ell 332, elapsed: 0.0003337860107421875
ell 331, elapsed: 0.00029587745666503906
ell 330, elapsed: 0.0002989768981933594
ell 329, elapsed: 0.00030493736267089844
ell 328, elapsed: 0.0002970695495605469
ell 327, elapsed: 0.00030112266540527344
ell 326, elapsed: 0.0002961158752441406
ell 325, elapsed: 0.0002999305725097656
ell 324, elapsed: 0.0002951622009277344
ell 323, elapsed: 0.0003077983856201172
ell 322, elapsed: 0.0003039836883544922
ell 321, elapsed: 0.0003020763397216797
ell 320, elapsed: 0.00032901763916015625
ell 319, elapsed: 0.0002989768981933594
ell 318, elapsed: 0.0002999305725097656
ell 317, elapsed: 0.00030493736267089844
ell 316, elapsed: 0.00030493736267089844
ell 315, elapsed: 0.00275421142578125
ell 314, elapsed: 0.0003209114074707031
ell 313, elapsed: 0.0003020763397216797
ell 312, elapsed: 0.00031113624572753906
ell 311, elapsed: 0.0002989768981933594
ell 310, elapsed: 0.00030112266540527344
ell 309, elapsed: 0.0003058910369873047
ell 308, elapsed: 0.0003027915954589844
ell 307, elapsed: 0.0003039836883544922
ell 306, elapsed: 0.0002999305725097656
ell 305, elapsed: 0.00030517578125
ell 304, elapsed: 0.00030112266540527344
ell 303, elapsed: 0.0002989768981933594
ell 302, elapsed: 0.00032901763916015625
ell 301, elapsed: 0.00030112266540527344
ell 300, elapsed: 0.00030803680419921875
ell 299, elapsed: 0.0003020763397216797
ell 298, elapsed: 0.00031304359436035156
ell 297, elapsed: 0.0003008842468261719
ell 296, elapsed: 0.0002980232238769531
ell 295, elapsed: 0.0003008842468261719
ell 294, elapsed: 0.0003001689910888672
ell 293, elapsed: 0.00030493736267089844
ell 292, elapsed: 0.0002980232238769531
ell 291, elapsed: 0.0002970695495605469
ell 290, elapsed: 0.0003571510314941406
ell 289, elapsed: 0.0002999305725097656
ell 288, elapsed: 0.00030612945556640625
ell 287, elapsed: 0.00030493736267089844
ell 286, elapsed: 0.0002989768981933594
ell 285, elapsed: 0.0002999305725097656
ell 284, elapsed: 0.0002999305725097656
ell 283, elapsed: 0.0003008842468261719
ell 282, elapsed: 0.0002989768981933594
ell 281, elapsed: 0.0003077983856201172
ell 280, elapsed: 0.0003139972686767578
ell 279, elapsed: 0.0003058910369873047
ell 278, elapsed: 0.0003330707550048828
ell 277, elapsed: 0.00030493736267089844
ell 276, elapsed: 0.0003020763397216797
ell 275, elapsed: 0.0003139972686767578
ell 274, elapsed: 0.0002989768981933594
ell 273, elapsed: 0.00030493736267089844
ell 272, elapsed: 0.0003077983856201172
ell 271, elapsed: 0.0003070831298828125
ell 270, elapsed: 0.00030112266540527344
ell 269, elapsed: 0.00030303001403808594
ell 268, elapsed: 0.0003070831298828125
ell 267, elapsed: 0.0003039836883544922
ell 266, elapsed: 0.0003070831298828125
ell 265, elapsed: 0.000370025634765625
ell 264, elapsed: 0.0003020763397216797
ell 263, elapsed: 0.0003139972686767578
ell 262, elapsed: 0.0003001689910888672
ell 261, elapsed: 0.0003058910369873047
ell 260, elapsed: 0.000308990478515625
ell 259, elapsed: 0.00030517578125
ell 258, elapsed: 0.0003077983856201172
ell 257, elapsed: 0.00030493736267089844
ell 256, elapsed: 0.0003077983856201172
ell 255, elapsed: 0.0002968311309814453
ell 254, elapsed: 0.00030422210693359375
ell 253, elapsed: 0.00036597251892089844
ell 252, elapsed: 0.00030493736267089844
ell 251, elapsed: 0.00030803680419921875
ell 250, elapsed: 0.0002989768981933594
ell 249, elapsed: 0.0003528594970703125
ell 248, elapsed: 0.00031304359436035156
ell 247, elapsed: 0.00030112266540527344
ell 246, elapsed: 0.00030493736267089844
ell 245, elapsed: 0.00029921531677246094
ell 244, elapsed: 0.0002989768981933594
ell 243, elapsed: 0.00030517578125
ell 242, elapsed: 0.0002968311309814453
ell 241, elapsed: 0.0003800392150878906
ell 240, elapsed: 0.00031113624572753906
ell 239, elapsed: 0.0003209114074707031
ell 238, elapsed: 0.0003027915954589844
ell 237, elapsed: 0.0002989768981933594
ell 236, elapsed: 0.00030112266540527344
ell 235, elapsed: 0.0002911090850830078
ell 234, elapsed: 0.0003008842468261719
ell 233, elapsed: 0.00029397010803222656
ell 232, elapsed: 0.0002989768981933594
ell 231, elapsed: 0.00030303001403808594
ell 230, elapsed: 0.0002999305725097656
ell 229, elapsed: 0.0003960132598876953
ell 228, elapsed: 0.0002989768981933594
ell 227, elapsed: 0.00030303001403808594
ell 226, elapsed: 0.00030612945556640625
ell 225, elapsed: 0.000308990478515625
ell 224, elapsed: 0.000308990478515625
ell 223, elapsed: 0.0003108978271484375
ell 222, elapsed: 0.00030684471130371094
ell 221, elapsed: 0.00031304359436035156
ell 220, elapsed: 0.0003039836883544922
ell 219, elapsed: 0.0003159046173095703
ell 218, elapsed: 0.0003039836883544922
ell 217, elapsed: 0.00041294097900390625
ell 216, elapsed: 0.00031495094299316406
ell 215, elapsed: 0.0003077983856201172
ell 214, elapsed: 0.000308990478515625
ell 213, elapsed: 0.00030517578125
ell 212, elapsed: 0.0003058910369873047
ell 211, elapsed: 0.00030803680419921875
ell 210, elapsed: 0.0002989768981933594
ell 209, elapsed: 0.000308990478515625
ell 208, elapsed: 0.0003020763397216797
ell 207, elapsed: 0.0003039836883544922
ell 206, elapsed: 0.0002961158752441406
ell 205, elapsed: 0.00041484832763671875
ell 204, elapsed: 0.00030303001403808594
ell 203, elapsed: 0.00030303001403808594
ell 202, elapsed: 0.00030493736267089844
ell 201, elapsed: 0.0002999305725097656
ell 200, elapsed: 0.0003039836883544922
ell 199, elapsed: 0.0003039836883544922
ell 198, elapsed: 0.0002949237823486328
ell 197, elapsed: 0.00030303001403808594
ell 196, elapsed: 0.0003077983856201172
ell 195, elapsed: 0.00030493736267089844
ell 194, elapsed: 0.0003209114074707031
ell 193, elapsed: 0.0003361701965332031
ell 192, elapsed: 0.000308990478515625
ell 191, elapsed: 0.00030994415283203125
ell 190, elapsed: 0.0003077983856201172
ell 189, elapsed: 0.0003161430358886719
ell 188, elapsed: 0.00030803680419921875
ell 187, elapsed: 0.00031304359436035156
ell 186, elapsed: 0.0003108978271484375
ell 185, elapsed: 0.0003070831298828125
ell 184, elapsed: 0.0003159046173095703
ell 183, elapsed: 0.0003039836883544922
ell 182, elapsed: 0.00031113624572753906
ell 181, elapsed: 0.00032591819763183594
ell 180, elapsed: 0.00030803680419921875
ell 179, elapsed: 0.00030493736267089844
ell 178, elapsed: 0.00030994415283203125
ell 177, elapsed: 0.00030994415283203125
ell 176, elapsed: 0.00030612945556640625
ell 175, elapsed: 0.0003070831298828125
ell 174, elapsed: 0.0003039836883544922
ell 173, elapsed: 0.00030493736267089844
ell 172, elapsed: 0.0003070831298828125
ell 171, elapsed: 0.00038909912109375
ell 170, elapsed: 0.0003139972686767578
ell 169, elapsed: 0.00032591819763183594
ell 168, elapsed: 0.00030493736267089844
ell 167, elapsed: 0.0003070831298828125
ell 166, elapsed: 0.00030303001403808594
ell 165, elapsed: 0.00030493736267089844
ell 164, elapsed: 0.00030303001403808594
ell 163, elapsed: 0.0002989768981933594
ell 162, elapsed: 0.00030303001403808594
ell 161, elapsed: 0.0003020763397216797
ell 160, elapsed: 0.00031280517578125
ell 159, elapsed: 0.0003039836883544922
ell 158, elapsed: 0.00030493736267089844
ell 157, elapsed: 0.00033593177795410156
ell 156, elapsed: 0.0002989768981933594
ell 155, elapsed: 0.0003077983856201172
ell 154, elapsed: 0.00030493736267089844
ell 153, elapsed: 0.0003101825714111328
ell 152, elapsed: 0.0003139972686767578
ell 151, elapsed: 0.00030922889709472656
ell 150, elapsed: 0.00031304359436035156
ell 149, elapsed: 0.0003070831298828125
ell 148, elapsed: 0.00031113624572753906
ell 147, elapsed: 0.0003039836883544922
ell 146, elapsed: 0.00030303001403808594
ell 145, elapsed: 0.0003561973571777344
ell 144, elapsed: 0.0002968311309814453
ell 143, elapsed: 0.00030994415283203125
ell 142, elapsed: 0.0002980232238769531
ell 141, elapsed: 0.0002961158752441406
ell 140, elapsed: 0.00029921531677246094
ell 139, elapsed: 0.0003008842468261719
ell 138, elapsed: 0.00030994415283203125
ell 137, elapsed: 0.0003039836883544922
ell 136, elapsed: 0.00030303001403808594
ell 135, elapsed: 0.0003070831298828125
ell 134, elapsed: 0.00030303001403808594
ell 133, elapsed: 0.00033402442932128906
ell 132, elapsed: 0.00030112266540527344
ell 131, elapsed: 0.0002930164337158203
ell 130, elapsed: 0.0003020763397216797
ell 129, elapsed: 0.0002930164337158203
ell 128, elapsed: 0.0003020763397216797
ell 127, elapsed: 0.0002999305725097656
ell 126, elapsed: 0.0002970695495605469
ell 125, elapsed: 0.0003039836883544922
ell 124, elapsed: 0.0002980232238769531
ell 123, elapsed: 0.00030684471130371094
ell 122, elapsed: 0.0003058910369873047
ell 121, elapsed: 0.00030112266540527344
ell 120, elapsed: 0.00033211708068847656
ell 119, elapsed: 0.00030493736267089844
ell 118, elapsed: 0.0003101825714111328
ell 117, elapsed: 0.00030112266540527344
ell 116, elapsed: 0.00031185150146484375
ell 115, elapsed: 0.00030517578125
ell 114, elapsed: 0.00030994415283203125
ell 113, elapsed: 0.0003108978271484375
ell 112, elapsed: 0.0004119873046875
ell 111, elapsed: 0.00032210350036621094
ell 110, elapsed: 0.00030517578125
ell 109, elapsed: 0.0002989768981933594
ell 108, elapsed: 0.0003249645233154297
ell 107, elapsed: 0.00033211708068847656
ell 106, elapsed: 0.00031113624572753906
ell 105, elapsed: 0.0003018379211425781
ell 104, elapsed: 0.0003008842468261719
ell 103, elapsed: 0.0003101825714111328
ell 102, elapsed: 0.0003039836883544922
ell 101, elapsed: 0.00030303001403808594
ell 100, elapsed: 0.0003070831298828125
ell 99, elapsed: 0.00030303001403808594
ell 98, elapsed: 0.00030612945556640625
ell 97, elapsed: 0.0002989768981933594
ell 96, elapsed: 0.00034689903259277344
ell 95, elapsed: 0.0003008842468261719
ell 94, elapsed: 0.0002980232238769531
ell 93, elapsed: 0.00030922889709472656
ell 92, elapsed: 0.0003020763397216797
ell 91, elapsed: 0.0003139972686767578
ell 90, elapsed: 0.0002980232238769531
ell 89, elapsed: 0.00030303001403808594
ell 88, elapsed: 0.00030994415283203125
ell 87, elapsed: 0.00029921531677246094
ell 86, elapsed: 0.0002989768981933594
ell 85, elapsed: 0.0002949237823486328
ell 84, elapsed: 0.00034880638122558594
ell 83, elapsed: 0.00030994415283203125
ell 82, elapsed: 0.0002949237823486328
ell 81, elapsed: 0.0003020763397216797
ell 80, elapsed: 0.0003008842468261719
ell 79, elapsed: 0.00030493736267089844
ell 78, elapsed: 0.0003001689910888672
ell 77, elapsed: 0.0002949237823486328
ell 76, elapsed: 0.0002980232238769531
ell 75, elapsed: 0.00029778480529785156
ell 74, elapsed: 0.00029397010803222656
ell 73, elapsed: 0.0002930164337158203
ell 72, elapsed: 0.0003218650817871094
ell 71, elapsed: 0.0003058910369873047
ell 70, elapsed: 0.0002911090850830078
ell 69, elapsed: 0.0002999305725097656
ell 68, elapsed: 0.0002911090850830078
ell 67, elapsed: 0.000286102294921875
ell 66, elapsed: 0.0002918243408203125
ell 65, elapsed: 0.00029587745666503906
ell 64, elapsed: 0.00030303001403808594
ell 63, elapsed: 0.0002899169921875
ell 62, elapsed: 0.0002989768981933594
ell 61, elapsed: 0.00029206275939941406
ell 60, elapsed: 0.0002949237823486328
ell 59, elapsed: 0.0003409385681152344
ell 58, elapsed: 0.0002999305725097656
ell 57, elapsed: 0.0002999305725097656
ell 56, elapsed: 0.0002911090850830078
ell 55, elapsed: 0.0002911090850830078
ell 54, elapsed: 0.0002961158752441406
ell 53, elapsed: 0.00029397010803222656
ell 52, elapsed: 0.0002989768981933594
ell 51, elapsed: 0.0002961158752441406
ell 50, elapsed: 0.00029397010803222656
ell 49, elapsed: 0.00029397010803222656
ell 48, elapsed: 0.00029087066650390625
ell 47, elapsed: 0.0002930164337158203
ell 46, elapsed: 0.0003108978271484375
ell 45, elapsed: 0.0002951622009277344
ell 44, elapsed: 0.0003008842468261719
ell 43, elapsed: 0.0002949237823486328
ell 42, elapsed: 0.0003001689910888672
ell 41, elapsed: 0.00029206275939941406
ell 40, elapsed: 0.0002999305725097656
ell 39, elapsed: 0.0003070831298828125
ell 38, elapsed: 0.0002949237823486328
ell 37, elapsed: 0.00029778480529785156
ell 36, elapsed: 0.00029587745666503906
ell 35, elapsed: 0.0002930164337158203
ell 34, elapsed: 0.00041103363037109375
ell 33, elapsed: 0.0002999305725097656
ell 32, elapsed: 0.0003039836883544922
ell 31, elapsed: 0.0002989768981933594
ell 30, elapsed: 0.00029397010803222656
ell 29, elapsed: 0.0002930164337158203
ell 28, elapsed: 0.0002949237823486328
ell 27, elapsed: 0.0003039836883544922
ell 26, elapsed: 0.0002989768981933594
ell 25, elapsed: 0.0003139972686767578
ell 24, elapsed: 0.0002989768981933594
ell 23, elapsed: 0.00030112266540527344
ell 22, elapsed: 0.0003421306610107422
ell 21, elapsed: 0.00030612945556640625
ell 20, elapsed: 0.00030994415283203125
ell 19, elapsed: 0.0003070831298828125
ell 18, elapsed: 0.00030303001403808594
ell 17, elapsed: 0.000308990478515625
ell 16, elapsed: 0.00030303001403808594
ell 15, elapsed: 0.0003120899200439453
ell 14, elapsed: 0.0002989768981933594
ell 13, elapsed: 0.00030112266540527344
ell 12, elapsed: 0.00031185150146484375
ell 11, elapsed: 0.0003070831298828125
ell 10, elapsed: 0.00034999847412109375
ell 9, elapsed: 0.00030994415283203125
ell 8, elapsed: 0.0003058910369873047
ell 7, elapsed: 0.00030803680419921875
ell 6, elapsed: 0.0003070831298828125
ell 5, elapsed: 0.0003108978271484375
ell 4, elapsed: 0.00031113624572753906
ell 3, elapsed: 0.0003020763397216797
ell 2, elapsed: 0.000308990478515625
ell 1, elapsed: 0.00030493736267089844
ell 0, elapsed: 0.0003120899200439453
  0.426675 seconds (46.03 k allocations: 3.091 MiB, 7.09% compilation time)
elapsed: 0.0003819465637207031
step:          0.047834 sec (0 allocations: 0 byte, 0.0% gc time)
swapping:      0.000446 sec (0 allocations: 0 byte, 0.0% gc time)
calc_Mellell!: 0.00573 sec (0 allocations: 0 byte, 0.0% gc time)
  t0 :  0.001292 sec (0 allocations: 0 byte, 0.0% gc time)
  tm2 : 0.070189 sec (0 allocations: 0 byte, 0.0% gc time)
  tm2s: 0.001002 sec (0 allocations: 0 byte, 0.0% gc time)
  tm4 : 0.167906 sec (0 allocations: 0 byte, 0.0% gc time)
  tp2 : 0.0 sec (0 allocations: 0 byte, 0.0% gc time)
  tp2s: 0.0 sec (0 allocations: 0 byte, 0.0% gc time)
  tp4 : 0.0 sec (0 allocations: 0 byte, 0.0% gc time)
calc_wtdll!:   0.273231 sec (9.9 k allocations: 1.047 MB, 0.0% gc time)
calc_wljj!:    0.02271 sec (689 allocations: 10.766 KB, 0.0% gc time)
mult_prefac!:  0.0 sec (0 allocations: 0 byte, 0.0% gc time)
convert:       0.0 sec (0 allocations: 0 byte, 0.0% gc time)
write:         0.029934 sec (0 allocations: 0 byte, 0.0% gc time)
test_rand_2f1: 0.0 sec (0 allocations: 0 byte, 0.0% gc time)
Closing outfile out/Ml21-cache.bin...   0.000005 seconds
  0.000330 seconds (36 allocations: 27.953 KiB)
make_phi():   0.001460 seconds (8.18 k allocations: 237.844 KiB)
  0.141230 seconds (141.90 k allocations: 3.483 MiB)
tskip:       0.001152 sec (0 allocations: 0 byte, 0.0% gc time)
tread:       0.027396 sec (17 allocations: 10.641 KB, 0.0% gc time)
tmultphi:    0.008986 sec (0 allocations: 0 byte, 0.0% gc time)
tbrfft:      0.043176 sec (0 allocations: 0 byte, 0.0% gc time)
tmultprefac: 0.016171 sec (0 allocations: 0 byte, 0.0% gc time)
toutfunc:    0.041054 sec (127.507 k allocations: 2.312 MB, 0.0% gc time)
Testing R=1.0 ... passed
Calculating fmax: 
  dlrec    = 4
  dlrecRg1 = -4
  q=1.1, R=0.9:	  0.245802 seconds (105.72 k allocations: 15.273 MiB)

  0.246112 seconds (105.77 k allocations: 15.307 MiB)
ℓ = 1202
Δℓ = 4
ΔℓRg1 = -4
N = 1600
q = 1.1
kmin = 1.0e-5
kmax = 100000.00000000004
χ0 = 0.023029999999999995
RR = RR.tsv
ℓmax = ℓmax.bin
f21 = f21.bin
kmin = 1.0e-5
kmax = 100000.0
dlrec    = 4
dlrecRg1 = -4
Output size: 5741568 bytes = 0.005347251892089844 GiB
Output size: 51264 bytes = 4.774332046508789e-5 GiB
Reading 'out/F21EllCache'...   0.000954 seconds (197 allocations: 84.203 KiB)
ellmax: 1202
lmaxcache: 1202
fell[:,1,1] = ComplexF64[1.3482014726274674e-57 - 3.302141236118086e-73im, 1.357860004724329e-57 - 3.3257978169518355e-73im]
ell 1202, elapsed: 2.9087066650390625e-5
ell 1201, elapsed: 0.00032806396484375
ell 1200, elapsed: 0.0002930164337158203
ell 1199, elapsed: 0.0002779960632324219
ell 1198, elapsed: 0.0002880096435546875
ell 1002, elapsed: 0.00820302963256836
ell 1001, elapsed: 0.00026416778564453125
ell 1000, elapsed: 0.00025391578674316406
ell 999, elapsed: 0.0002529621124267578
ell 998, elapsed: 0.00030422210693359375
ell 902, elapsed: 0.004122018814086914
ell 901, elapsed: 0.0002570152282714844
ell 900, elapsed: 0.0003418922424316406
ell 899, elapsed: 0.00029397010803222656
ell 898, elapsed: 0.00030612945556640625
ell 802, elapsed: 0.004171133041381836
ell 801, elapsed: 0.00031304359436035156
ell 800, elapsed: 0.00030994415283203125
ell 799, elapsed: 0.0003120899200439453
ell 798, elapsed: 0.0003199577331542969
ell 702, elapsed: 0.004217863082885742
ell 701, elapsed: 0.00030517578125
ell 700, elapsed: 0.00030112266540527344
ell 699, elapsed: 0.0003159046173095703
ell 698, elapsed: 0.0002999305725097656
ell 602, elapsed: 0.004426002502441406
ell 601, elapsed: 0.0003199577331542969
ell 600, elapsed: 0.0002989768981933594
ell 599, elapsed: 0.0003008842468261719
ell 598, elapsed: 0.00030303001403808594
ell 502, elapsed: 0.004211902618408203
ell 501, elapsed: 0.0002989768981933594
ell 500, elapsed: 0.00030112266540527344
ell 499, elapsed: 0.0002942085266113281
ell 498, elapsed: 0.00030517578125
ell 402, elapsed: 0.004210948944091797
ell 401, elapsed: 0.0003039836883544922
ell 400, elapsed: 0.0003349781036376953
ell 399, elapsed: 0.0003440380096435547
ell 398, elapsed: 0.0002980232238769531
ell 302, elapsed: 0.0066738128662109375
ell 301, elapsed: 0.00033593177795410156
ell 300, elapsed: 0.0003180503845214844
ell 299, elapsed: 0.00031304359436035156
ell 298, elapsed: 0.0002970695495605469
ell 202, elapsed: 0.0041310787200927734
ell 201, elapsed: 0.000308990478515625
ell 200, elapsed: 0.00029397010803222656
ell 199, elapsed: 0.00030303001403808594
ell 198, elapsed: 0.00032806396484375
ell 152, elapsed: 0.0021109580993652344
ell 151, elapsed: 0.00028896331787109375
ell 150, elapsed: 0.0002880096435546875
ell 149, elapsed: 0.0002880096435546875
ell 148, elapsed: 0.00030612945556640625
ell 127, elapsed: 0.0011060237884521484
ell 126, elapsed: 0.0002868175506591797
ell 125, elapsed: 0.00030493736267089844
ell 124, elapsed: 0.0003020763397216797
ell 123, elapsed: 0.00030493736267089844
ell 114, elapsed: 0.0006630420684814453
ell 113, elapsed: 0.0002899169921875
ell 112, elapsed: 0.00029206275939941406
ell 111, elapsed: 0.00028896331787109375
ell 110, elapsed: 0.00030517578125
ell 102, elapsed: 0.0006198883056640625
ell 101, elapsed: 0.0003120899200439453
ell 100, elapsed: 0.0002918243408203125
ell 99, elapsed: 0.0003159046173095703
ell 98, elapsed: 0.00029587745666503906
ell 97, elapsed: 0.0003619194030761719
ell 96, elapsed: 0.0003428459167480469
ell 95, elapsed: 0.0003509521484375
ell 94, elapsed: 0.00033402442932128906
ell 93, elapsed: 0.0003528594970703125
ell 92, elapsed: 0.0003509521484375
ell 91, elapsed: 0.0003390312194824219
ell 90, elapsed: 0.000308990478515625
ell 89, elapsed: 0.00030612945556640625
ell 88, elapsed: 0.00031304359436035156
ell 87, elapsed: 0.0002980232238769531
ell 86, elapsed: 0.0003077983856201172
ell 85, elapsed: 0.00030303001403808594
ell 84, elapsed: 0.00031495094299316406
ell 83, elapsed: 0.00030493736267089844
ell 82, elapsed: 0.000308990478515625
ell 81, elapsed: 0.000308990478515625
ell 80, elapsed: 0.0003039836883544922
ell 79, elapsed: 0.00036406517028808594
ell 78, elapsed: 0.0003712177276611328
ell 77, elapsed: 0.00030493736267089844
ell 76, elapsed: 0.000308990478515625
ell 75, elapsed: 0.00030517578125
ell 74, elapsed: 0.00030803680419921875
ell 73, elapsed: 0.00030112266540527344
ell 72, elapsed: 0.0003008842468261719
ell 71, elapsed: 0.0003120899200439453
ell 70, elapsed: 0.00030493736267089844
ell 69, elapsed: 0.00030303001403808594
ell 68, elapsed: 0.00030112266540527344
ell 67, elapsed: 0.0003299713134765625
ell 66, elapsed: 0.000308990478515625
ell 65, elapsed: 0.0003039836883544922
ell 64, elapsed: 0.0003139972686767578
ell 63, elapsed: 0.00030303001403808594
ell 62, elapsed: 0.0003070831298828125
ell 61, elapsed: 0.0003070831298828125
ell 60, elapsed: 0.0002970695495605469
ell 59, elapsed: 0.000308990478515625
ell 58, elapsed: 0.00030803680419921875
ell 57, elapsed: 0.0003008842468261719
ell 56, elapsed: 0.00030803680419921875
ell 55, elapsed: 0.0003540515899658203
ell 54, elapsed: 0.0003409385681152344
ell 53, elapsed: 0.00030493736267089844
ell 52, elapsed: 0.0003039836883544922
ell 51, elapsed: 0.0003101825714111328
ell 50, elapsed: 0.0002999305725097656
ell 49, elapsed: 0.00031304359436035156
ell 48, elapsed: 0.0002980232238769531
ell 47, elapsed: 0.00030112266540527344
ell 46, elapsed: 0.0002999305725097656
ell 45, elapsed: 0.00030303001403808594
ell 44, elapsed: 0.0003058910369873047
ell 43, elapsed: 0.0003039836883544922
ell 42, elapsed: 0.0003039836883544922
ell 41, elapsed: 0.00030612945556640625
ell 40, elapsed: 0.0003039836883544922
ell 39, elapsed: 0.0003190040588378906
ell 38, elapsed: 0.00030303001403808594
ell 37, elapsed: 0.0003159046173095703
ell 36, elapsed: 0.0003120899200439453
ell 35, elapsed: 0.0003070831298828125
ell 34, elapsed: 0.00031495094299316406
ell 33, elapsed: 0.0003077983856201172
ell 32, elapsed: 0.00031304359436035156
ell 31, elapsed: 0.000308990478515625
ell 30, elapsed: 0.0003261566162109375
ell 29, elapsed: 0.00030612945556640625
ell 28, elapsed: 0.0002989768981933594
ell 27, elapsed: 0.00031685829162597656
ell 26, elapsed: 0.0003008842468261719
ell 25, elapsed: 0.0002989768981933594
ell 24, elapsed: 0.00031113624572753906
ell 23, elapsed: 0.00030112266540527344
ell 22, elapsed: 0.00030493736267089844
ell 21, elapsed: 0.0002980232238769531
ell 20, elapsed: 0.0003058910369873047
ell 19, elapsed: 0.00030803680419921875
ell 18, elapsed: 0.0003561973571777344
ell 17, elapsed: 0.00031185150146484375
ell 16, elapsed: 0.00030493736267089844
ell 15, elapsed: 0.0003070831298828125
ell 14, elapsed: 0.0003170967102050781
ell 13, elapsed: 0.00030803680419921875
ell 12, elapsed: 0.0003159046173095703
ell 11, elapsed: 0.0003120899200439453
ell 10, elapsed: 0.0003070831298828125
ell 9, elapsed: 0.0003190040588378906
ell 8, elapsed: 0.00030803680419921875
ell 7, elapsed: 0.00031280517578125
ell 6, elapsed: 0.0003509521484375
ell 5, elapsed: 0.0002980232238769531
ell 4, elapsed: 0.0003058910369873047
ell 3, elapsed: 0.0002980232238769531
ell 2, elapsed: 0.00030303001403808594
ell 1, elapsed: 0.0002999305725097656
ell 0, elapsed: 0.0003039836883544922
  0.109003 seconds (11.51 k allocations: 719.594 KiB)
elapsed: 0.0003731250762939453
step:          0.046968 sec (0 allocations: 0 byte, 0.0% gc time)
swapping:      0.000328 sec (0 allocations: 0 byte, 0.0% gc time)
calc_Mellell!: 0.000949 sec (0 allocations: 0 byte, 0.0% gc time)
  t0 :  0.000238 sec (0 allocations: 0 byte, 0.0% gc time)
  tm2 : 0.009829 sec (0 allocations: 0 byte, 0.0% gc time)
  tm2s: 0.000192 sec (0 allocations: 0 byte, 0.0% gc time)
  tm4 : 0.023371 sec (0 allocations: 0 byte, 0.0% gc time)
  tp2 : 0.0 sec (0 allocations: 0 byte, 0.0% gc time)
  tp2s: 0.0 sec (0 allocations: 0 byte, 0.0% gc time)
  tp4 : 0.0 sec (0 allocations: 0 byte, 0.0% gc time)
calc_wtdll!:   0.034079 sec (1.344 k allocations: 147.0 KB, 0.0% gc time)
calc_wljj!:    0.002202 sec (6 allocations: 96 byte, 0.0% gc time)
mult_prefac!:  0.0 sec (0 allocations: 0 byte, 0.0% gc time)
convert:       0.0 sec (0 allocations: 0 byte, 0.0% gc time)
write:         0.003195 sec (0 allocations: 0 byte, 0.0% gc time)
test_rand_2f1: 0.0 sec (0 allocations: 0 byte, 0.0% gc time)
Closing outfile out/Ml21-cache.bin...   0.000004 seconds
  0.000257 seconds (36 allocations: 27.953 KiB)
make_phi():   0.001462 seconds (8.18 k allocations: 237.844 KiB)
  0.010270 seconds (11.65 k allocations: 308.688 KiB)
tskip:       1.8e-5 sec (0 allocations: 0 byte, 0.0% gc time)
tread:       0.001962 sec (17 allocations: 2.125 KB, 0.0% gc time)
tmultphi:    0.000764 sec (0 allocations: 0 byte, 0.0% gc time)
tbrfft:      0.002897 sec (0 allocations: 0 byte, 0.0% gc time)
tmultprefac: 0.001467 sec (0 allocations: 0 byte, 0.0% gc time)
toutfunc:    0.002929 sec (10.304 k allocations: 196.0 KB, 0.0% gc time)
Testing R=0.9 ... passed
Calculating fmax: 
  dlrec    = 4
  dlrecRg1 = -4
  q=1.1, R=0.8:	  0.198236 seconds (103.21 k allocations: 14.840 MiB)

  0.198366 seconds (103.26 k allocations: 14.874 MiB)
ℓ = 1202
Δℓ = 4
ΔℓRg1 = -4
N = 1600
q = 1.1
kmin = 1.0e-5
kmax = 100000.00000000004
χ0 = 0.023029999999999995
RR = RR.tsv
ℓmax = ℓmax.bin
f21 = f21.bin
kmin = 1.0e-5
kmax = 100000.0
dlrec    = 4
dlrecRg1 = -4
Output size: 5741568 bytes = 0.005347251892089844 GiB
Output size: 51264 bytes = 4.774332046508789e-5 GiB
Reading 'out/F21EllCache'...   0.023108 seconds (197 allocations: 84.203 KiB, 95.09% gc time)
ellmax: 1202
lmaxcache: 1202
fell[:,1,1] = ComplexF64[7.519068145690986e-120 - 1.8416405474382574e-135im, 7.541664537386155e-120 - 1.847175067190611e-135im]
ell 1202, elapsed: 2.002716064453125e-5
ell 1201, elapsed: 0.00031495094299316406
ell 1200, elapsed: 0.00028896331787109375
ell 1199, elapsed: 0.0002830028533935547
ell 1198, elapsed: 0.00028514862060546875
ell 1002, elapsed: 0.0081939697265625
ell 1001, elapsed: 0.0002789497375488281
ell 1000, elapsed: 0.00026798248291015625
ell 999, elapsed: 0.0002689361572265625
ell 998, elapsed: 0.00026679039001464844
ell 902, elapsed: 0.004266023635864258
ell 901, elapsed: 0.0002751350402832031
ell 900, elapsed: 0.0002651214599609375
ell 899, elapsed: 0.00026488304138183594
ell 898, elapsed: 0.00026488304138183594
ell 802, elapsed: 0.004310131072998047
ell 801, elapsed: 0.0002701282501220703
ell 800, elapsed: 0.00026917457580566406
ell 799, elapsed: 0.00026988983154296875
ell 798, elapsed: 0.0002579689025878906
ell 702, elapsed: 0.0041751861572265625
ell 701, elapsed: 0.0002720355987548828
ell 700, elapsed: 0.00026297569274902344
ell 699, elapsed: 0.0002598762512207031
ell 698, elapsed: 0.0002570152282714844
ell 602, elapsed: 0.00426483154296875
ell 601, elapsed: 0.0002701282501220703
ell 600, elapsed: 0.00026106834411621094
ell 599, elapsed: 0.0002579689025878906
ell 598, elapsed: 0.00029206275939941406
ell 502, elapsed: 0.0041599273681640625
ell 501, elapsed: 0.0002739429473876953
ell 500, elapsed: 0.0002620220184326172
ell 499, elapsed: 0.0002601146697998047
ell 498, elapsed: 0.0002598762512207031
ell 402, elapsed: 0.004107952117919922
ell 401, elapsed: 0.000270843505859375
ell 400, elapsed: 0.0002658367156982422
ell 399, elapsed: 0.00026607513427734375
ell 398, elapsed: 0.00026297569274902344
ell 302, elapsed: 0.0041501522064208984
ell 301, elapsed: 0.0002682209014892578
ell 300, elapsed: 0.0002579689025878906
ell 299, elapsed: 0.0002598762512207031
ell 298, elapsed: 0.00026798248291015625
ell 202, elapsed: 0.0041370391845703125
ell 201, elapsed: 0.00026702880859375
ell 200, elapsed: 0.0002589225769042969
ell 199, elapsed: 0.0002579689025878906
ell 198, elapsed: 0.0002620220184326172
ell 152, elapsed: 0.0021240711212158203
ell 151, elapsed: 0.00026798248291015625
ell 150, elapsed: 0.00030684471130371094
ell 149, elapsed: 0.0002601146697998047
ell 148, elapsed: 0.00026106834411621094
ell 127, elapsed: 0.0011129379272460938
ell 126, elapsed: 0.0002601146697998047
ell 125, elapsed: 0.00025916099548339844
ell 124, elapsed: 0.0002620220184326172
ell 123, elapsed: 0.00026416778564453125
ell 114, elapsed: 0.0006430149078369141
ell 113, elapsed: 0.00025916099548339844
ell 112, elapsed: 0.00029206275939941406
ell 111, elapsed: 0.0002608299255371094
ell 110, elapsed: 0.00026297569274902344
ell 102, elapsed: 0.0005979537963867188
ell 101, elapsed: 0.00026106834411621094
ell 100, elapsed: 0.0002608299255371094
ell 99, elapsed: 0.0002589225769042969
ell 98, elapsed: 0.00026106834411621094
ell 97, elapsed: 0.00031113624572753906
ell 96, elapsed: 0.0003020763397216797
ell 95, elapsed: 0.0003020763397216797
ell 94, elapsed: 0.00029087066650390625
ell 93, elapsed: 0.0003509521484375
ell 92, elapsed: 0.0002989768981933594
ell 91, elapsed: 0.00030493736267089844
ell 90, elapsed: 0.0003020763397216797
ell 89, elapsed: 0.0003001689910888672
ell 88, elapsed: 0.0002961158752441406
ell 87, elapsed: 0.0002980232238769531
ell 86, elapsed: 0.0003070831298828125
ell 85, elapsed: 0.00030112266540527344
ell 84, elapsed: 0.00030803680419921875
ell 83, elapsed: 0.00030112266540527344
ell 82, elapsed: 0.00030994415283203125
ell 81, elapsed: 0.0003039836883544922
ell 80, elapsed: 0.00037407875061035156
ell 79, elapsed: 0.0003027915954589844
ell 78, elapsed: 0.00029587745666503906
ell 77, elapsed: 0.0002930164337158203
ell 76, elapsed: 0.0003101825714111328
ell 75, elapsed: 0.0003070831298828125
ell 74, elapsed: 0.000308990478515625
ell 73, elapsed: 0.0002970695495605469
ell 72, elapsed: 0.0002949237823486328
ell 71, elapsed: 0.0003108978271484375
ell 70, elapsed: 0.0003058910369873047
ell 69, elapsed: 0.000308990478515625
ell 68, elapsed: 0.00032711029052734375
ell 67, elapsed: 0.00029397010803222656
ell 66, elapsed: 0.0002980232238769531
ell 65, elapsed: 0.0002961158752441406
ell 64, elapsed: 0.0003039836883544922
ell 63, elapsed: 0.00029397010803222656
ell 62, elapsed: 0.00030303001403808594
ell 61, elapsed: 0.00029778480529785156
ell 60, elapsed: 0.0002989768981933594
ell 59, elapsed: 0.00030803680419921875
ell 58, elapsed: 0.00030112266540527344
ell 57, elapsed: 0.00030493736267089844
[...]
ell 782, elapsed: 0.0009601116180419922
ell 781, elapsed: 0.0005469322204589844
ell 780, elapsed: 0.0005471706390380859
ell 779, elapsed: 0.000537872314453125
ell 778, elapsed: 0.0005800724029541016
ell 772, elapsed: 0.0009610652923583984
ell 771, elapsed: 0.0005412101745605469
ell 770, elapsed: 0.0005431175231933594
ell 769, elapsed: 0.0005459785461425781
ell 768, elapsed: 0.0005421638488769531
ell 762, elapsed: 0.001007080078125
ell 761, elapsed: 0.0005340576171875
ell 760, elapsed: 0.0005400180816650391
ell 759, elapsed: 0.0005369186401367188
ell 758, elapsed: 0.0005450248718261719
ell 752, elapsed: 0.0009479522705078125
ell 751, elapsed: 0.0005700588226318359
ell 750, elapsed: 0.0005419254302978516
ell 749, elapsed: 0.0005369186401367188
ell 748, elapsed: 0.0005500316619873047
ell 742, elapsed: 0.0009810924530029297
ell 741, elapsed: 0.0005419254302978516
ell 740, elapsed: 0.0005669593811035156
ell 739, elapsed: 0.0005369186401367188
ell 738, elapsed: 0.0005440711975097656
ell 732, elapsed: 0.000949859619140625
ell 731, elapsed: 0.0005319118499755859
ell 730, elapsed: 0.0005409717559814453
ell 729, elapsed: 0.0005328655242919922
ell 728, elapsed: 0.0005359649658203125
ell 722, elapsed: 0.0009560585021972656
ell 721, elapsed: 0.0005440711975097656
ell 720, elapsed: 0.000576019287109375
ell 719, elapsed: 0.0005500316619873047
ell 718, elapsed: 0.0005521774291992188
ell 712, elapsed: 0.0010380744934082031
ell 711, elapsed: 0.0005540847778320312
ell 710, elapsed: 0.0005500316619873047
ell 709, elapsed: 0.0005300045013427734
ell 708, elapsed: 0.0005748271942138672
ell 702, elapsed: 0.0009658336639404297
ell 701, elapsed: 0.0005800724029541016
ell 700, elapsed: 0.0005540847778320312
ell 699, elapsed: 0.0005249977111816406
ell 698, elapsed: 0.0005350112915039062
ell 692, elapsed: 0.0009658336639404297
ell 691, elapsed: 0.0005369186401367188
ell 690, elapsed: 0.0005340576171875
ell 689, elapsed: 0.0004858970642089844
ell 688, elapsed: 0.0004849433898925781
ell 682, elapsed: 0.0008380413055419922
ell 681, elapsed: 0.00047087669372558594
ell 680, elapsed: 0.00047588348388671875
ell 679, elapsed: 0.0005269050598144531
ell 678, elapsed: 0.0005939006805419922
ell 672, elapsed: 0.0009789466857910156
ell 671, elapsed: 0.0005340576171875
ell 670, elapsed: 0.0005471706390380859
ell 669, elapsed: 0.0005488395690917969
ell 668, elapsed: 0.0005469322204589844
ell 662, elapsed: 0.0010459423065185547
ell 661, elapsed: 0.0005249977111816406
ell 660, elapsed: 0.0005230903625488281
ell 659, elapsed: 0.0005209445953369141
ell 658, elapsed: 0.0005438327789306641
ell 652, elapsed: 0.0009479522705078125
ell 651, elapsed: 0.0005791187286376953
ell 650, elapsed: 0.0005509853363037109
ell 649, elapsed: 0.0005509853363037109
ell 648, elapsed: 0.0005490779876708984
ell 642, elapsed: 0.0009701251983642578
ell 641, elapsed: 0.0005481243133544922
ell 640, elapsed: 0.0005881786346435547
ell 639, elapsed: 0.0005400180816650391
ell 638, elapsed: 0.0005340576171875
ell 632, elapsed: 0.0009338855743408203
ell 631, elapsed: 0.0005450248718261719
ell 630, elapsed: 0.0005419254302978516
ell 629, elapsed: 0.0005371570587158203
ell 628, elapsed: 0.0005512237548828125
ell 622, elapsed: 0.0009748935699462891
ell 621, elapsed: 0.0005409717559814453
ell 620, elapsed: 0.0005469322204589844
ell 619, elapsed: 0.0005390644073486328
ell 618, elapsed: 0.0005471706390380859
ell 612, elapsed: 0.0009870529174804688
ell 611, elapsed: 0.0005331039428710938
ell 610, elapsed: 0.0005400180816650391
ell 609, elapsed: 0.0005309581756591797
ell 608, elapsed: 0.0005419254302978516
ell 602, elapsed: 0.0009288787841796875
ell 601, elapsed: 0.0005290508270263672
ell 600, elapsed: 0.0005500316619873047
ell 599, elapsed: 0.0005440711975097656
ell 598, elapsed: 0.0005519390106201172
ell 592, elapsed: 0.0009369850158691406
ell 591, elapsed: 0.0005259513854980469
ell 590, elapsed: 0.0006420612335205078
ell 589, elapsed: 0.0005280971527099609
ell 588, elapsed: 0.0005681514739990234
ell 582, elapsed: 0.000949859619140625
ell 581, elapsed: 0.0005218982696533203
ell 580, elapsed: 0.0005400180816650391
ell 579, elapsed: 0.0005571842193603516
ell 578, elapsed: 0.0005309581756591797
ell 572, elapsed: 0.0009489059448242188
ell 571, elapsed: 0.0005249977111816406
ell 570, elapsed: 0.0005190372467041016
ell 569, elapsed: 0.0005099773406982422
ell 568, elapsed: 0.0005249977111816406
ell 562, elapsed: 0.000982046127319336
ell 561, elapsed: 0.0005328655242919922
ell 560, elapsed: 0.0005428791046142578
ell 559, elapsed: 0.0005280971527099609
ell 558, elapsed: 0.0005450248718261719
ell 552, elapsed: 0.0009419918060302734
ell 551, elapsed: 0.0005769729614257812
ell 550, elapsed: 0.0005412101745605469
ell 549, elapsed: 0.0005340576171875
ell 548, elapsed: 0.0005488395690917969
ell 542, elapsed: 0.0009629726409912109
ell 541, elapsed: 0.0005109310150146484
ell 540, elapsed: 0.0005660057067871094
ell 539, elapsed: 0.0005478858947753906
ell 538, elapsed: 0.0005538463592529297
ell 532, elapsed: 0.0009930133819580078
ell 531, elapsed: 0.0005412101745605469
ell 530, elapsed: 0.0005490779876708984
ell 529, elapsed: 0.0005731582641601562
ell 528, elapsed: 0.0005559921264648438
ell 522, elapsed: 0.00096893310546875
ell 521, elapsed: 0.0005359649658203125
ell 520, elapsed: 0.0005500316619873047
ell 519, elapsed: 0.0005400180816650391
ell 518, elapsed: 0.0006129741668701172
ell 512, elapsed: 0.0010008811950683594
ell 511, elapsed: 0.0005490779876708984
ell 510, elapsed: 0.0005631446838378906
ell 509, elapsed: 0.0005648136138916016
ell 508, elapsed: 0.0005638599395751953
ell 502, elapsed: 0.0010459423065185547
ell 501, elapsed: 0.0005488395690917969
ell 500, elapsed: 0.0005590915679931641
ell 499, elapsed: 0.0005300045013427734
ell 498, elapsed: 0.0005419254302978516
ell 492, elapsed: 0.0009069442749023438
ell 491, elapsed: 0.0005588531494140625
ell 490, elapsed: 0.0005428791046142578
ell 489, elapsed: 0.0005350112915039062
ell 488, elapsed: 0.0005471706390380859
ell 482, elapsed: 0.000965118408203125
ell 481, elapsed: 0.0005450248718261719
ell 480, elapsed: 0.0005891323089599609
ell 479, elapsed: 0.0005469322204589844
ell 478, elapsed: 0.0005459785461425781
ell 472, elapsed: 0.0009508132934570312
ell 471, elapsed: 0.0005450248718261719
ell 470, elapsed: 0.0005619525909423828
ell 469, elapsed: 0.0005540847778320312
ell 468, elapsed: 0.0005879402160644531
ell 462, elapsed: 0.0010018348693847656
ell 461, elapsed: 0.0005660057067871094
ell 460, elapsed: 0.0005621910095214844
ell 459, elapsed: 0.0005590915679931641
ell 458, elapsed: 0.0005559921264648438
ell 452, elapsed: 0.0009930133819580078
ell 451, elapsed: 0.0005328655242919922
ell 450, elapsed: 0.0005450248718261719
ell 449, elapsed: 0.0005328655242919922
ell 448, elapsed: 0.0005340576171875
ell 442, elapsed: 0.001026153564453125
ell 441, elapsed: 0.0005488395690917969
ell 440, elapsed: 0.0005519390106201172
ell 439, elapsed: 0.0005521774291992188
ell 438, elapsed: 0.0005469322204589844
ell 432, elapsed: 0.000982046127319336
ell 431, elapsed: 0.0005478858947753906
ell 430, elapsed: 0.0005700588226318359
ell 429, elapsed: 0.0005469322204589844
ell 428, elapsed: 0.0005600452423095703
ell 422, elapsed: 0.0009679794311523438
ell 421, elapsed: 0.0005338191986083984
ell 420, elapsed: 0.0005559921264648438
ell 419, elapsed: 0.0005960464477539062
ell 418, elapsed: 0.0005550384521484375
ell 412, elapsed: 0.0009760856628417969
ell 411, elapsed: 0.0005419254302978516
ell 410, elapsed: 0.0005509853363037109
ell 409, elapsed: 0.0005409717559814453
ell 408, elapsed: 0.0005559921264648438
ell 402, elapsed: 0.0009350776672363281
ell 401, elapsed: 0.0005509853363037109
ell 400, elapsed: 0.0005619525909423828
ell 399, elapsed: 0.0005290508270263672
ell 398, elapsed: 0.0005509853363037109
ell 392, elapsed: 0.0010190010070800781
ell 391, elapsed: 0.0005278587341308594
ell 390, elapsed: 0.0005450248718261719
ell 389, elapsed: 0.0005519390106201172
ell 388, elapsed: 0.0005571842193603516
ell 382, elapsed: 0.001007080078125
ell 381, elapsed: 0.0005919933319091797
ell 380, elapsed: 0.0005609989166259766
ell 379, elapsed: 0.0005478858947753906
ell 378, elapsed: 0.0005459785461425781
ell 372, elapsed: 0.0009598731994628906
ell 371, elapsed: 0.0005278587341308594
ell 370, elapsed: 0.0005621910095214844
ell 369, elapsed: 0.0005469322204589844
ell 368, elapsed: 0.0005350112915039062
ell 362, elapsed: 0.0009481906890869141
ell 361, elapsed: 0.0005581378936767578
ell 360, elapsed: 0.000537872314453125
ell 359, elapsed: 0.0005979537963867188
ell 358, elapsed: 0.0005331039428710938
ell 352, elapsed: 0.0009789466857910156
ell 351, elapsed: 0.0005412101745605469
ell 350, elapsed: 0.0005509853363037109
ell 349, elapsed: 0.0005450248718261719
ell 348, elapsed: 0.0005488395690917969
ell 342, elapsed: 0.001007080078125
ell 341, elapsed: 0.000537872314453125
ell 340, elapsed: 0.0005459785461425781
ell 339, elapsed: 0.0005381107330322266
ell 338, elapsed: 0.000553131103515625
ell 332, elapsed: 0.0009808540344238281
ell 331, elapsed: 0.0005159378051757812
ell 330, elapsed: 0.0005390644073486328
ell 329, elapsed: 0.0005509853363037109
ell 328, elapsed: 0.0005640983581542969
ell 322, elapsed: 0.0010101795196533203
ell 321, elapsed: 0.0005991458892822266
ell 320, elapsed: 0.0005650520324707031
ell 319, elapsed: 0.0005540847778320312
ell 318, elapsed: 0.0005640983581542969
ell 312, elapsed: 0.000988006591796875
ell 311, elapsed: 0.0005478858947753906
ell 310, elapsed: 0.0005710124969482422
ell 309, elapsed: 0.0005550384521484375
ell 308, elapsed: 0.0005562305450439453
ell 302, elapsed: 0.0009799003601074219
ell 301, elapsed: 0.0005459785461425781
ell 300, elapsed: 0.0005500316619873047
ell 299, elapsed: 0.0005469322204589844
ell 298, elapsed: 0.0006000995635986328
ell 292, elapsed: 0.0009958744049072266
ell 291, elapsed: 0.0005400180816650391
ell 290, elapsed: 0.0005450248718261719
ell 289, elapsed: 0.0005390644073486328
ell 288, elapsed: 0.0005500316619873047
ell 282, elapsed: 0.0010590553283691406
ell 281, elapsed: 0.0005450248718261719
ell 280, elapsed: 0.0005500316619873047
ell 279, elapsed: 0.0005519390106201172
ell 278, elapsed: 0.0005588531494140625
ell 272, elapsed: 0.0010950565338134766
ell 271, elapsed: 0.0005390644073486328
ell 270, elapsed: 0.0005519390106201172
ell 269, elapsed: 0.00055694580078125
ell 268, elapsed: 0.0005559921264648438
ell 262, elapsed: 0.0010159015655517578
ell 261, elapsed: 0.0005769729614257812
ell 260, elapsed: 0.0005490779876708984
ell 259, elapsed: 0.0005609989166259766
ell 258, elapsed: 0.0005550384521484375
ell 252, elapsed: 0.0009980201721191406
ell 251, elapsed: 0.0005340576171875
ell 250, elapsed: 0.000576019287109375
ell 249, elapsed: 0.000537872314453125
ell 248, elapsed: 0.0005419254302978516
ell 242, elapsed: 0.0009920597076416016
ell 241, elapsed: 0.0005390644073486328
ell 240, elapsed: 0.0005400180816650391
ell 239, elapsed: 0.0005238056182861328
ell 238, elapsed: 0.0005619525909423828
ell 232, elapsed: 0.0009100437164306641
ell 231, elapsed: 0.0005071163177490234
ell 230, elapsed: 0.0005221366882324219
ell 229, elapsed: 0.0005199909210205078
ell 228, elapsed: 0.0005309581756591797
ell 222, elapsed: 0.0009670257568359375
ell 221, elapsed: 0.0005190372467041016
ell 220, elapsed: 0.0005300045013427734
ell 219, elapsed: 0.0005180835723876953
ell 218, elapsed: 0.0005290508270263672
ell 212, elapsed: 0.00092315673828125
ell 211, elapsed: 0.0005400180816650391
ell 210, elapsed: 0.0005328655242919922
ell 209, elapsed: 0.0005340576171875
ell 208, elapsed: 0.0005271434783935547
ell 202, elapsed: 0.0009069442749023438
ell 201, elapsed: 0.000514984130859375
ell 200, elapsed: 0.0005300045013427734
ell 199, elapsed: 0.0006098747253417969
ell 198, elapsed: 0.0005218982696533203
ell 192, elapsed: 0.0009009838104248047
ell 191, elapsed: 0.0005228519439697266
ell 190, elapsed: 0.0005550384521484375
ell 189, elapsed: 0.0005729198455810547
ell 188, elapsed: 0.0005860328674316406
ell 182, elapsed: 0.0009920597076416016
ell 181, elapsed: 0.0005600452423095703
ell 180, elapsed: 0.0005729198455810547
ell 179, elapsed: 0.0005581378936767578
ell 178, elapsed: 0.0005660057067871094
ell 172, elapsed: 0.0010058879852294922
ell 171, elapsed: 0.0005240440368652344
ell 170, elapsed: 0.0005650520324707031
ell 169, elapsed: 0.0005772113800048828
ell 168, elapsed: 0.0005650520324707031
ell 162, elapsed: 0.0009968280792236328
ell 161, elapsed: 0.0005888938903808594
ell 160, elapsed: 0.000537872314453125
ell 159, elapsed: 0.0005080699920654297
ell 158, elapsed: 0.0005409717559814453
ell 152, elapsed: 0.0009579658508300781
ell 151, elapsed: 0.0005369186401367188
ell 150, elapsed: 0.0005698204040527344
ell 149, elapsed: 0.0005321502685546875
ell 148, elapsed: 0.0005459785461425781
ell 142, elapsed: 0.0009410381317138672
ell 141, elapsed: 0.0005500316619873047
ell 140, elapsed: 0.0005319118499755859
ell 139, elapsed: 0.0005280971527099609
ell 138, elapsed: 0.0006449222564697266
ell 132, elapsed: 0.0010089874267578125
ell 131, elapsed: 0.0005338191986083984
ell 130, elapsed: 0.0005428791046142578
ell 129, elapsed: 0.0005290508270263672
ell 128, elapsed: 0.0005469322204589844
ell 122, elapsed: 0.0010449886322021484
ell 121, elapsed: 0.0005240440368652344
ell 120, elapsed: 0.0005438327789306641
ell 119, elapsed: 0.0005321502685546875
ell 118, elapsed: 0.0005421638488769531
ell 112, elapsed: 0.001010894775390625
ell 111, elapsed: 0.0005311965942382812
ell 110, elapsed: 0.0005428791046142578
ell 109, elapsed: 0.0005331039428710938
ell 108, elapsed: 0.0005481243133544922
ell 102, elapsed: 0.0009508132934570312
ell 101, elapsed: 0.002283811569213867
ell 100, elapsed: 0.002274036407470703
ell 99, elapsed: 0.002301931381225586
ell 98, elapsed: 0.0023648738861083984
ell 92, elapsed: 0.004487037658691406
ell 91, elapsed: 0.002294778823852539
ell 90, elapsed: 0.0023131370544433594
ell 89, elapsed: 0.0023081302642822266
ell 88, elapsed: 0.0022928714752197266
ell 82, elapsed: 0.004522085189819336
ell 81, elapsed: 0.002357006072998047
ell 80, elapsed: 0.002312898635864258
ell 79, elapsed: 0.0023369789123535156
ell 78, elapsed: 0.002357959747314453
ell 72, elapsed: 0.004397869110107422
ell 71, elapsed: 0.0023069381713867188
ell 70, elapsed: 0.002321004867553711
ell 69, elapsed: 0.0023279190063476562
ell 68, elapsed: 0.0023047924041748047
ell 62, elapsed: 0.0044689178466796875
ell 61, elapsed: 0.0024099349975585938
ell 60, elapsed: 0.0022978782653808594
ell 59, elapsed: 0.002331972122192383
ell 58, elapsed: 0.0023288726806640625
ell 52, elapsed: 0.004492998123168945
ell 51, elapsed: 0.002321958541870117
ell 50, elapsed: 0.002355813980102539
ell 49, elapsed: 0.002293825149536133
ell 48, elapsed: 0.0023119449615478516
ell 42, elapsed: 0.005259990692138672
ell 41, elapsed: 0.003400087356567383
ell 40, elapsed: 0.0030820369720458984
ell 39, elapsed: 0.002349853515625
ell 38, elapsed: 0.002315044403076172
ell 32, elapsed: 0.004492998123168945
ell 31, elapsed: 0.002357959747314453
ell 30, elapsed: 0.0023550987243652344
ell 29, elapsed: 0.0023300647735595703
ell 28, elapsed: 0.0023260116577148438
ell 22, elapsed: 0.004428863525390625
ell 21, elapsed: 0.002363920211791992
ell 20, elapsed: 0.0023670196533203125
ell 19, elapsed: 0.0023288726806640625
ell 18, elapsed: 0.0022749900817871094
ell 12, elapsed: 0.0044040679931640625
ell 11, elapsed: 0.0022199153900146484
ell 10, elapsed: 0.002225160598754883
ell 9, elapsed: 0.002234935760498047
ell 8, elapsed: 0.002315044403076172
  0.498539 seconds (68.56 k allocations: 12.176 MiB)
elapsed: 0.002760171890258789
step:          0.043242 sec (0 allocations: 0 byte, 0.0% gc time)
swapping:      0.000394 sec (0 allocations: 0 byte, 0.0% gc time)
calc_Mellell!: 0.020259 sec (0 allocations: 0 byte, 0.0% gc time)
  t0 :  0.006506 sec (0 allocations: 0 byte, 0.0% gc time)
  tm2 : 0.050904 sec (0 allocations: 0 byte, 0.0% gc time)
  tm2s: 0.005634 sec (0 allocations: 0 byte, 0.0% gc time)
  tm4 : 0.114677 sec (0 allocations: 0 byte, 0.0% gc time)
  tp2 : 0.0 sec (0 allocations: 0 byte, 0.0% gc time)
  tp2s: 0.0 sec (0 allocations: 0 byte, 0.0% gc time)
  tp4 : 0.0 sec (0 allocations: 0 byte, 0.0% gc time)
calc_wtdll!:   0.364476 sec (48.6 k allocations: 11.096 MB, 0.0% gc time)
calc_wljj!:    0.020905 sec (69 allocations: 1.078 KB, 0.0% gc time)
mult_prefac!:  0.0 sec (0 allocations: 0 byte, 0.0% gc time)
convert:       0.0 sec (0 allocations: 0 byte, 0.0% gc time)
write:         0.024024 sec (0 allocations: 0 byte, 0.0% gc time)
test_rand_2f1: 0.0 sec (0 allocations: 0 byte, 0.0% gc time)
Closing outfile out/MlCache/MlCache.bin...   0.000008 seconds
xi, l=0, nu=0:   0.286126 seconds (603.00 k allocations: 32.978 MiB, 99.39% compilation time)
xi, l=0, nu=-2:  0.001626 seconds (114 allocations: 148.969 KiB)
Created 'out/xi.tsv'.
  q=1.1, R=0.6:	  0.423466 seconds (264.58 k allocations: 38.109 MiB, 4.54% gc time)
  q=1.1, R=0.7:	  0.476827 seconds (276.43 k allocations: 40.113 MiB, 2.90% gc time)
  q=1.1, R=0.8:	  0.477421 seconds (271.87 k allocations: 39.334 MiB, 2.00% gc time)
  q=1.1, R=0.9:	  0.562285 seconds (266.68 k allocations: 38.464 MiB, 1.17% gc time)
  q=1.1, R=0.998:	 14.901544 seconds (114.96 k allocations: 7.588 MiB)
  q=1.1, R=1.0:	  0.002859 seconds (8.20 k allocations: 704.344 KiB)

ℓ = 1000
Δℓ = 4
ΔℓRg1 = -4
N = 4096
q = 1.1
kmin = 1.0e-5
kmax = 1000.0
χ0 = 0.001
RR = RR.tsv
ℓmax = ℓmax.bin
f21 = f21.bin
kmin = 1.0e-5
kmax = 1000.0
dlrec    = 4
dlrecRg1 = -4
Output size: 1573632 bytes = 0.0014655590057373047 GiB
Output size: 786816 bytes = 0.0007327795028686523 GiB
Reading 'out/F21EllCache'...   0.000950 seconds (198 allocations: 533.078 KiB)
ellmax: 1002
lmaxcache: 1000
fell[:,1,1] = ComplexF64[1.726292812820208e-224 - 4.2281979352226965e-240im, 1.7282693092099638e-224 - 4.233038955177178e-240im]
ell 1002, elapsed: 3.409385681152344e-5
ell 1001, elapsed: 0.00046515464782714844
ell 1000, elapsed: 0.0004398822784423828
ell 999, elapsed: 0.003741025924682617
ell 998, elapsed: 0.0037260055541992188
ell 44, elapsed: 0.5833711624145508
ell 43, elapsed: 0.0037910938262939453
ell 42, elapsed: 0.0037708282470703125
ell 41, elapsed: 0.0037860870361328125
ell 40, elapsed: 0.0037560462951660156
  0.611608 seconds (4.59 k allocations: 322.266 KiB)
elapsed: 0.004563808441162109
step:          0.578477 sec (0 allocations: 0 byte, 0.0% gc time)
swapping:      0.000369 sec (0 allocations: 0 byte, 0.0% gc time)
calc_Mellell!: 0.000729 sec (0 allocations: 0 byte, 0.0% gc time)
  t0 :  0.000198 sec (0 allocations: 0 byte, 0.0% gc time)
  tm2 : 0.00723 sec (0 allocations: 0 byte, 0.0% gc time)
  tm2s: 0.000186 sec (0 allocations: 0 byte, 0.0% gc time)
  tm4 : 0.017426 sec (0 allocations: 0 byte, 0.0% gc time)
  tp2 : 0.0 sec (0 allocations: 0 byte, 0.0% gc time)
  tp2s: 0.0 sec (0 allocations: 0 byte, 0.0% gc time)
  tp4 : 0.0 sec (0 allocations: 0 byte, 0.0% gc time)
calc_wtdll!:   0.025144 sec (480 allocations: 52.5 KB, 0.0% gc time)
calc_wljj!:    0.000635 sec (1 allocations: 16 byte, 0.0% gc time)
mult_prefac!:  0.0 sec (0 allocations: 0 byte, 0.0% gc time)
convert:       0.0 sec (0 allocations: 0 byte, 0.0% gc time)
write:         0.000633 sec (0 allocations: 0 byte, 0.0% gc time)
test_rand_2f1: 0.0 sec (0 allocations: 0 byte, 0.0% gc time)
Closing outfile out/MlCache/MlCache.bin...   0.000004 seconds
  0.389590 seconds (38 allocations: 66.859 KiB)
make_phi():   0.006225 seconds (65 allocations: 275.984 KiB)
  0.036777 seconds (11.42 k allocations: 711.960 KiB, 91.32% compilation time)
tskip:       0.0 sec (0 allocations: 0 byte, 0.0% gc time)
tread:       0.000544 sec (17 allocations: 1.266 KB, 0.0% gc time)
tmultphi:    0.000254 sec (0 allocations: 0 byte, 0.0% gc time)
tbrfft:      0.000934 sec (0 allocations: 0 byte, 0.0% gc time)
tmultprefac: 0.000496 sec (0 allocations: 0 byte, 0.0% gc time)
toutfunc:    0.000101 sec (0 allocations: 0 byte, 0.0% gc time)
Created 'out/wl42_jj00.tsv'.
Created 'out/wl42_jj02.tsv'.
    Testing TwoFAST tests passed 
