Julia Version 1.6.0-DEV.1064
Commit 4165fddaeb (2020-09-27 08:40 UTC)
Platform Info:
  OS: Linux (x86_64-pc-linux-gnu)
  CPU: Intel(R) Xeon(R) Silver 4114 CPU @ 2.20GHz
  WORD_SIZE: 64
  LIBM: libopenlibm
  LLVM: libLLVM-10.0.1 (ORCJIT, skylake-avx512)
Environment:
  JULIA_DEPOT_PATH = ::/usr/local/share/julia
  JULIA_NUM_THREADS = 2

  Resolving package versions...
  Installed OpenSpecFun_jll ────────────── v0.5.3+3
  Installed CompilerSupportLibraries_jll ─ v0.3.3+0
  Installed BinaryProvider ─────────────── v0.5.10
  Installed SpecialFunctions ───────────── v0.10.3
  Installed GenericSchur ───────────────── v0.4.0
  Installed FFTW ───────────────────────── v1.2.4
  Installed Reexport ───────────────────── v0.2.0
  Installed FFTW_jll ───────────────────── v3.3.9+5
  Installed IntelOpenMP_jll ────────────── v2018.0.3+0
  Installed MKL_jll ────────────────────── v2020.2.254+0
  Installed AbstractFFTs ───────────────── v0.5.0
  Installed GenericSVD ─────────────────── v0.3.0
  Installed Readables ──────────────────── v0.3.3
  Installed TwoFAST ────────────────────── v0.1.3
  Installed ArbNumerics ────────────────── v1.2.1
Updating `~/.julia/environments/v1.6/Project.toml`
  [0dd23c3e] + TwoFAST v0.1.3
Updating `~/.julia/environments/v1.6/Manifest.toml`
  [621f4979] + AbstractFFTs v0.5.0
  [7e558dbc] + ArbNumerics v1.2.1
  [b99e7846] + BinaryProvider v0.5.10
  [e66e0078] + CompilerSupportLibraries_jll v0.3.3+0
  [7a1cc6ca] + FFTW v1.2.4
  [f5851436] + FFTW_jll v3.3.9+5
  [01680d73] + GenericSVD v0.3.0
  [c145ed77] + GenericSchur v0.4.0
  [1d5cc7b8] + IntelOpenMP_jll v2018.0.3+0
  [856f044c] + MKL_jll v2020.2.254+0
  [efe28fd5] + OpenSpecFun_jll v0.5.3+3
  [0d4725de] + Readables v0.3.3
  [189a3867] + Reexport v0.2.0
  [276daf66] + SpecialFunctions v0.10.3
  [0dd23c3e] + TwoFAST v0.1.3
  [56f22d72] + Artifacts
  [2a0f44e3] + Base64
  [ade2ca70] + Dates
  [8bb1440f] + DelimitedFiles
  [8ba89e20] + Distributed
  [b77e0a4c] + InteractiveUtils
  [76f85450] + LibGit2
  [8f399da3] + Libdl
  [37e2e46d] + LinearAlgebra
  [56ddb016] + Logging
  [d6f4376e] + Markdown
  [a63ad114] + Mmap
  [44cfe95a] + Pkg
  [de0858da] + Printf
  [3fa0cd96] + REPL
  [9a3f8284] + Random
  [ea8e919c] + SHA
  [9e88b42a] + Serialization
  [6462fe0b] + Sockets
  [fa267f1f] + TOML
  [8dfed614] + Test
  [cf7118a7] + UUIDs
  [4ec0a83e] + Unicode
   Building FFTW ───────→ `~/.julia/packages/FFTW/DMUbN/deps/build.log`
   Building ArbNumerics → `~/.julia/packages/ArbNumerics/joGFm/deps/build.log`
    Testing TwoFAST
Status `/tmp/jl_RobRgf/Project.toml`
  [7e558dbc] ArbNumerics v1.2.1
  [39dd38d3] Dierckx v0.5.0
  [7a1cc6ca] FFTW v1.2.4
  [276daf66] SpecialFunctions v0.10.3
  [0dd23c3e] TwoFAST v0.1.3
  [8bb1440f] DelimitedFiles
  [37e2e46d] LinearAlgebra
  [56ddb016] Logging
  [8dfed614] Test
Status `/tmp/jl_RobRgf/Manifest.toml`
  [621f4979] AbstractFFTs v0.5.0
  [7e558dbc] ArbNumerics v1.2.1
  [b99e7846] BinaryProvider v0.5.10
  [e66e0078] CompilerSupportLibraries_jll v0.3.3+0
  [39dd38d3] Dierckx v0.5.0
  [cd4c43a9] Dierckx_jll v0.0.1+0
  [7a1cc6ca] FFTW v1.2.4
  [f5851436] FFTW_jll v3.3.9+5
  [01680d73] GenericSVD v0.3.0
  [c145ed77] GenericSchur v0.4.0
  [1d5cc7b8] IntelOpenMP_jll v2018.0.3+0
  [856f044c] MKL_jll v2020.2.254+0
  [efe28fd5] OpenSpecFun_jll v0.5.3+3
  [0d4725de] Readables v0.3.3
  [189a3867] Reexport v0.2.0
  [276daf66] SpecialFunctions v0.10.3
  [0dd23c3e] TwoFAST v0.1.3
  [56f22d72] Artifacts
  [2a0f44e3] Base64
  [ade2ca70] Dates
  [8bb1440f] DelimitedFiles
  [8ba89e20] Distributed
  [b77e0a4c] InteractiveUtils
  [76f85450] LibGit2
  [8f399da3] Libdl
  [37e2e46d] LinearAlgebra
  [56ddb016] Logging
  [d6f4376e] Markdown
  [a63ad114] Mmap
  [44cfe95a] Pkg
  [de0858da] Printf
  [3fa0cd96] REPL
  [9a3f8284] Random
  [ea8e919c] SHA
  [9e88b42a] Serialization
  [6462fe0b] Sockets
  [fa267f1f] TOML
  [8dfed614] Test
  [cf7118a7] UUIDs
  [4ec0a83e] Unicode
    Testing Running tests...
WARNING: could not import Printf.ini_hex into ArbNumerics
WARNING: could not import Printf.ini_HEX into ArbNumerics
t = 0.0 sec (0 allocations: 0 byte, 0.0% gc time)
typeof(t) = NamedTuple{(:value, :time, :bytes, :gctime, :gcstats), Tuple{DataType, Float64, Int64, Float64, Base.GC_Diff}}
TwoFAST.PerformanceStats.TimedType = Union{NamedTuple{(:value, :time, :bytes, :gctime, :gcstats), Tuple{T, Float64, Int64, Float64, Base.GC_Diff}}, Tuple{Any, Float64, Int64, Float64, Base.GC_Diff}} where T
t = 1.0e-6 sec (0 allocations: 0 byte, 0.0% gc time)
t: 1.0e-6 sec (0 allocations: 0 byte, 0.0% gc time)
Testing ξ(r), ℓ=0, ν=-1 ... passed
Testing ξ(r), ℓ=0, ν=0 ... passed
Testing ξ(r), ℓ=0, ν=1 ... passed
Testing ξ(r), ℓ=0, ν=2 ... passed
Testing ξ(r), ℓ=0, ν=3 ... passed
Testing ξ(r), ℓ=1, ν=0 ... passed
Testing ξ(r), ℓ=1, ν=1 ... passed
Testing ξ(r), ℓ=1, ν=2 ... passed
Testing ξ(r), ℓ=1, ν=3 ... passed
Testing ξ(r), ℓ=2, ν=-1 ... passed
Testing ξ(r), ℓ=2, ν=0 ... passed
Testing ξ(r), ℓ=2, ν=1 ... passed
Testing ξ(r), ℓ=2, ν=2 ... passed
Testing ξ(r), ℓ=2, ν=3 ... passed
Testing ξ(r), ℓ=3, ν=-1 ... passed
Testing ξ(r), ℓ=3, ν=0 ... passed
Testing ξ(r), ℓ=3, ν=1 ... passed
Testing ξ(r), ℓ=3, ν=2 ... passed
Testing ξ(r), ℓ=3, ν=3 ... passed
Testing ξ(r), ℓ=4, ν=-1 ... passed
Testing ξ(r), ℓ=4, ν=0 ... passed
Testing ξ(r), ℓ=4, ν=1 ... passed
Testing ξ(r), ℓ=4, ν=2 ... passed
Testing ξ(r), ℓ=4, ν=3 ... passed
Testing ξ(r) ... passed
Testing ξ′(r) ... passed
Testing ξ″(r) ... passed
Calculating fmax: 
  dlrec    = 4
  dlrecRg1 = -4
  q=1.1, R=1.1:	  4.335522 seconds (843.28 k allocations: 53.913 MiB, 0.63% gc time)

  4.353932 seconds (855.96 k allocations: 54.702 MiB, 0.63% gc time)
ℓ = 1202
Δℓ = 4
ΔℓRg1 = -4
N = 1600
q = 1.1
kmin = 1.0e-5
kmax = 100000.00000000004
χ0 = 0.023029999999999995
RR = RR.tsv
ℓmax = ℓmax.bin
f21 = f21.bin
kmin = 1.0e-5
kmax = 100000.0
dlrec    = 4
dlrecRg1 = -4
Output size: 5741568 bytes = 0.005347251892089844 GiB
Output size: 51264 bytes = 4.774332046508789e-5 GiB
Reading 'out/F21EllCache'...   0.662295 seconds (395.09 k allocations: 23.201 MiB, 3.32% gc time)
ellmax: 1202
lmaxcache: 1202
fell[:,1,1] = ComplexF64[3.9583795592771634e-52 - 9.695233714158177e-68im, 3.990121772925759e-52 - 9.772979714843386e-68im]
ell 1202, elapsed: 8.177757263183594e-5
ell 1201, elapsed: 1.2893989086151123
ell 1200, elapsed: 0.0006430149078369141
ell 1199, elapsed: 0.0005950927734375
ell 1198, elapsed: 0.0005550384521484375
ell 1002, elapsed: 0.010464191436767578
ell 1001, elapsed: 0.0005850791931152344
ell 1000, elapsed: 0.0005500316619873047
ell 999, elapsed: 0.0005030632019042969
ell 998, elapsed: 0.0004990100860595703
ell 902, elapsed: 0.005324125289916992
ell 901, elapsed: 0.0005178451538085938
ell 900, elapsed: 0.0005581378936767578
ell 899, elapsed: 0.000518798828125
ell 898, elapsed: 0.0005109310150146484
ell 802, elapsed: 0.005466938018798828
ell 801, elapsed: 0.0005419254302978516
ell 800, elapsed: 0.000518798828125
ell 799, elapsed: 0.0005040168762207031
ell 798, elapsed: 0.0004990100860595703
ell 702, elapsed: 0.005388975143432617
ell 701, elapsed: 0.0005261898040771484
ell 700, elapsed: 0.0005090236663818359
ell 699, elapsed: 0.0005049705505371094
ell 698, elapsed: 0.0005049705505371094
ell 602, elapsed: 0.0055348873138427734
ell 601, elapsed: 0.000537872314453125
ell 600, elapsed: 0.0005159378051757812
ell 599, elapsed: 0.000514984130859375
ell 598, elapsed: 0.000514984130859375
ell 502, elapsed: 0.00541996955871582
ell 501, elapsed: 0.0005362033843994141
ell 500, elapsed: 0.0005059242248535156
ell 499, elapsed: 0.0005099773406982422
ell 498, elapsed: 0.0005078315734863281
ell 402, elapsed: 0.0054340362548828125
ell 401, elapsed: 0.0005848407745361328
ell 400, elapsed: 0.0005500316619873047
ell 399, elapsed: 0.0005540847778320312
ell 398, elapsed: 0.0006198883056640625
ell 302, elapsed: 0.005299806594848633
ell 301, elapsed: 0.0005249977111816406
ell 300, elapsed: 0.0005140304565429688
ell 299, elapsed: 0.0005078315734863281
ell 298, elapsed: 0.0005099773406982422
ell 202, elapsed: 0.005475044250488281
ell 201, elapsed: 0.0005080699920654297
ell 200, elapsed: 0.0004918575286865234
ell 199, elapsed: 0.0005021095275878906
ell 198, elapsed: 0.0004949569702148438
ell 152, elapsed: 0.0029659271240234375
ell 151, elapsed: 0.0005109310150146484
ell 150, elapsed: 0.0005178451538085938
ell 149, elapsed: 0.0005218982696533203
ell 148, elapsed: 0.0005068778991699219
ell 127, elapsed: 0.001664876937866211
ell 126, elapsed: 0.0005099773406982422
ell 125, elapsed: 0.0005071163177490234
ell 124, elapsed: 0.0005199909210205078
ell 123, elapsed: 0.0005068778991699219
ell 114, elapsed: 0.0009911060333251953
ell 113, elapsed: 0.0004999637603759766
ell 112, elapsed: 0.0005109310150146484
ell 111, elapsed: 0.0005009174346923828
ell 110, elapsed: 0.0005199909210205078
ell 102, elapsed: 0.0009381771087646484
ell 101, elapsed: 0.0005049705505371094
ell 100, elapsed: 0.0005061626434326172
ell 99, elapsed: 0.0005071163177490234
ell 98, elapsed: 0.0004951953887939453
ell 97, elapsed: 0.0005939006805419922
ell 96, elapsed: 0.0005788803100585938
ell 95, elapsed: 0.0005741119384765625
ell 94, elapsed: 0.0005908012390136719
ell 93, elapsed: 0.0006511211395263672
ell 92, elapsed: 0.0005650520324707031
ell 91, elapsed: 0.0005679130554199219
ell 90, elapsed: 0.0005848407745361328
ell 89, elapsed: 0.0005800724029541016
ell 88, elapsed: 0.0006458759307861328
ell 87, elapsed: 0.0005640983581542969
ell 86, elapsed: 0.0005719661712646484
ell 85, elapsed: 0.0005650520324707031
ell 84, elapsed: 0.0005970001220703125
ell 83, elapsed: 0.0005719661712646484
ell 82, elapsed: 0.0006299018859863281
ell 81, elapsed: 0.0006108283996582031
ell 80, elapsed: 0.0006349086761474609
ell 79, elapsed: 0.0006170272827148438
ell 78, elapsed: 0.0006630420684814453
ell 77, elapsed: 0.0006558895111083984
ell 76, elapsed: 0.0005700588226318359
ell 75, elapsed: 0.0005609989166259766
ell 74, elapsed: 0.0005941390991210938
ell 73, elapsed: 0.0006511211395263672
ell 72, elapsed: 0.0006198883056640625
ell 71, elapsed: 0.0006330013275146484
ell 70, elapsed: 0.0005881786346435547
ell 69, elapsed: 0.0005631446838378906
ell 68, elapsed: 0.0005669593811035156
ell 67, elapsed: 0.0006000995635986328
ell 66, elapsed: 0.0006361007690429688
ell 65, elapsed: 0.0005779266357421875
ell 64, elapsed: 0.0005910396575927734
ell 63, elapsed: 0.0007469654083251953
ell 62, elapsed: 0.0007188320159912109
ell 61, elapsed: 0.0005869865417480469
ell 60, elapsed: 0.0006129741668701172
ell 59, elapsed: 0.0006539821624755859
ell 58, elapsed: 0.0005660057067871094
ell 57, elapsed: 0.0005860328674316406
ell 56, elapsed: 0.0006239414215087891
ell 55, elapsed: 0.0005559921264648438
ell 54, elapsed: 0.0005638599395751953
ell 53, elapsed: 0.0005679130554199219
ell 52, elapsed: 0.0005688667297363281
ell 51, elapsed: 0.0005748271942138672
ell 50, elapsed: 0.0005550384521484375
ell 49, elapsed: 0.0005629062652587891
ell 48, elapsed: 0.0005691051483154297
ell 47, elapsed: 0.0005810260772705078
ell 46, elapsed: 0.000637054443359375
ell 45, elapsed: 0.0005958080291748047
ell 44, elapsed: 0.0006020069122314453
ell 43, elapsed: 0.0005769729614257812
ell 42, elapsed: 0.0005929470062255859
ell 41, elapsed: 0.0006320476531982422
ell 40, elapsed: 0.0005519390106201172
ell 39, elapsed: 0.0005590915679931641
ell 38, elapsed: 0.000576019287109375
ell 37, elapsed: 0.0005588531494140625
ell 36, elapsed: 0.0005731582641601562
ell 35, elapsed: 0.0005621910095214844
ell 34, elapsed: 0.0005660057067871094
ell 33, elapsed: 0.0005609989166259766
ell 32, elapsed: 0.0005669593811035156
ell 31, elapsed: 0.0005691051483154297
ell 30, elapsed: 0.0005581378936767578
ell 29, elapsed: 0.0006070137023925781
ell 28, elapsed: 0.0006279945373535156
ell 27, elapsed: 0.0005819797515869141
ell 26, elapsed: 0.0006670951843261719
ell 25, elapsed: 0.0006268024444580078
ell 24, elapsed: 0.0005979537963867188
ell 23, elapsed: 0.0006220340728759766
ell 22, elapsed: 0.0005700588226318359
ell 21, elapsed: 0.0005669593811035156
ell 20, elapsed: 0.0005578994750976562
ell 19, elapsed: 0.0005621910095214844
ell 18, elapsed: 0.0005538463592529297
ell 17, elapsed: 0.0005550384521484375
ell 16, elapsed: 0.0005660057067871094
ell 15, elapsed: 0.0005669593811035156
ell 14, elapsed: 0.0005648136138916016
ell 13, elapsed: 0.0005791187286376953
ell 12, elapsed: 0.0005729198455810547
ell 11, elapsed: 0.0005578994750976562
ell 10, elapsed: 0.0006330013275146484
ell 9, elapsed: 0.0006251335144042969
ell 8, elapsed: 0.0006909370422363281
ell 7, elapsed: 0.0006351470947265625
ell 6, elapsed: 0.0006721019744873047
ell 5, elapsed: 0.0006549358367919922
ell 4, elapsed: 0.0006630420684814453
ell 3, elapsed: 0.0006170272827148438
ell 2, elapsed: 0.0006108283996582031
ell 1, elapsed: 0.0006101131439208984
ell 0, elapsed: 0.000614166259765625
  1.982441 seconds (1.30 M allocations: 70.964 MiB, 1.11% gc time)
elapsed: 0.0010528564453125
step:          0.365478 sec (311.142 k allocations: 16.962 MB, 0.0% gc time)
swapping:      0.000491 sec (0 allocations: 0 byte, 0.0% gc time)
calc_Mellell!: 0.149602 sec (135.742 k allocations: 7.433 MB, 0.0% gc time)
  t0 :  0.0 sec (0 allocations: 0 byte, 0.0% gc time)
  tm2 : 0.0 sec (0 allocations: 0 byte, 0.0% gc time)
  tm2s: 0.0 sec (0 allocations: 0 byte, 0.0% gc time)
  tm4 : 0.0 sec (0 allocations: 0 byte, 0.0% gc time)
  tp2 : 0.0 sec (0 allocations: 0 byte, 0.0% gc time)
  tp2s: 0.0 sec (0 allocations: 0 byte, 0.0% gc time)
  tp4 : 0.0 sec (0 allocations: 0 byte, 0.0% gc time)
calc_wtdll!:   0.906222 sec (509.616 k allocations: 28.197 MB, 0.0% gc time)
calc_wljj!:    0.00331 sec (6 allocations: 96 byte, 0.0% gc time)
mult_prefac!:  0.0 sec (0 allocations: 0 byte, 0.0% gc time)
convert:       0.0 sec (0 allocations: 0 byte, 0.0% gc time)
write:         0.004324 sec (0 allocations: 0 byte, 0.0% gc time)
test_rand_2f1: 0.0 sec (0 allocations: 0 byte, 0.0% gc time)
Closing outfile out/Ml21-cache.bin...   0.000009 seconds
  1.117036 seconds (246.35 k allocations: 14.216 MiB)
make_phi():   0.014233 seconds (8.18 k allocations: 237.844 KiB)
  0.258370 seconds (87.57 k allocations: 4.749 MiB)
tskip:       2.0e-5 sec (0 allocations: 0 byte, 0.0% gc time)
tread:       0.002695 sec (17 allocations: 2.125 KB, 0.0% gc time)
tmultphi:    0.046022 sec (21.425 k allocations: 1.287 MB, 0.0% gc time)
tbrfft:      0.004135 sec (0 allocations: 0 byte, 0.0% gc time)
tmultprefac: 0.00393 sec (0 allocations: 0 byte, 0.0% gc time)
toutfunc:    0.160812 sec (64.484 k allocations: 3.33 MB, 0.0% gc time)
Testing R=1.1 ... passed
Calculating fmax: 
  dlrec    = 4
  dlrecRg1 = -4
  q=1.1, R=1.0:	  0.001701 seconds (3.20 k allocations: 275.344 KiB)

  0.002626 seconds (3.34 k allocations: 311.422 KiB)
ℓ = 1202
Δℓ = 4
ΔℓRg1 = -4
N = 1600
q = 1.1
kmin = 1.0e-5
kmax = 100000.00000000004
χ0 = 0.023029999999999995
RR = RR.tsv
ℓmax = ℓmax.bin
f21 = f21.bin
kmin = 1.0e-5
kmax = 100000.0
dlrec    = 4
dlrecRg1 = -4
Output size: 61465536 bytes = 0.05724424123764038 GiB
Output size: 51264 bytes = 4.774332046508789e-5 GiB
Reading 'out/F21EllCache'...   0.001067 seconds (197 allocations: 84.203 KiB)
ellmax: 1202
lmaxcache: 1202
fell[:,1,1] = ComplexF64[809.6031528389767 - 1.9829558194077161e-13im, 0.0 + 0.0im]
ell 1202, elapsed: 6.604194641113281e-5
ell 1201, elapsed: 0.016334056854248047
ell 1200, elapsed: 0.0159299373626709
ell 1199, elapsed: 0.0003840923309326172
ell 1198, elapsed: 0.0004899501800537109
ell 1197, elapsed: 0.0005700588226318359
ell 1196, elapsed: 0.0005421638488769531
ell 1195, elapsed: 0.0005640983581542969
ell 1194, elapsed: 0.0005400180816650391
ell 1193, elapsed: 0.0005838871002197266
ell 1192, elapsed: 0.0005240440368652344
ell 1191, elapsed: 0.0005059242248535156
ell 1190, elapsed: 0.0005280971527099609
ell 1189, elapsed: 0.00051116943359375
ell 1188, elapsed: 0.0004830360412597656
ell 1187, elapsed: 0.0004849433898925781
ell 1186, elapsed: 0.0008180141448974609
ell 1185, elapsed: 0.0006220340728759766
ell 1184, elapsed: 0.0006048679351806641
ell 1183, elapsed: 0.0006830692291259766
ell 1182, elapsed: 0.0006518363952636719
ell 1181, elapsed: 0.0006399154663085938
ell 1180, elapsed: 0.0007569789886474609
ell 1179, elapsed: 0.0006551742553710938
ell 1178, elapsed: 0.0006160736083984375
ell 1177, elapsed: 0.0006160736083984375
ell 1176, elapsed: 0.0006341934204101562
ell 1175, elapsed: 0.0005919933319091797
ell 1174, elapsed: 0.0004589557647705078
ell 1173, elapsed: 0.0004811286926269531
ell 1172, elapsed: 0.0005979537963867188
ell 1171, elapsed: 0.0006191730499267578
ell 1170, elapsed: 0.00045800209045410156
ell 1169, elapsed: 0.0004169940948486328
ell 1168, elapsed: 0.0004029273986816406
ell 1167, elapsed: 0.00041103363037109375
ell 1166, elapsed: 0.0004019737243652344
ell 1165, elapsed: 0.0003960132598876953
ell 1164, elapsed: 0.0004029273986816406
ell 1163, elapsed: 0.00039005279541015625
ell 1162, elapsed: 0.010787010192871094
ell 1161, elapsed: 0.00046896934509277344
ell 1160, elapsed: 0.0004169940948486328
ell 1159, elapsed: 0.008308172225952148
ell 1158, elapsed: 0.001680135726928711
ell 1157, elapsed: 0.00051116943359375
ell 1156, elapsed: 0.0005919933319091797
ell 1155, elapsed: 0.0005528926849365234
ell 1154, elapsed: 0.00045990943908691406
ell 1153, elapsed: 0.0004570484161376953
ell 1152, elapsed: 0.0004558563232421875
ell 1151, elapsed: 0.0016329288482666016
ell 1150, elapsed: 0.0004889965057373047
ell 1149, elapsed: 0.00045299530029296875
ell 1148, elapsed: 0.002180814743041992
ell 1147, elapsed: 0.00045609474182128906
ell 1146, elapsed: 0.0004601478576660156
ell 1145, elapsed: 0.0004858970642089844
ell 1144, elapsed: 0.0004589557647705078
ell 1143, elapsed: 0.0004630088806152344
ell 1142, elapsed: 0.00045108795166015625
ell 1141, elapsed: 0.0004611015319824219
ell 1140, elapsed: 0.00047707557678222656
ell 1139, elapsed: 0.00046896934509277344
ell 1138, elapsed: 0.0004570484161376953
ell 1137, elapsed: 0.0004649162292480469
ell 1136, elapsed: 0.00045800209045410156
ell 1135, elapsed: 0.00044798851013183594
ell 1134, elapsed: 0.0013110637664794922
ell 1133, elapsed: 0.0004868507385253906
ell 1132, elapsed: 0.000453948974609375
ell 1131, elapsed: 0.00047397613525390625
ell 1130, elapsed: 0.00045299530029296875
ell 1129, elapsed: 0.0005469322204589844
ell 1128, elapsed: 0.0005068778991699219
ell 1127, elapsed: 0.00046515464782714844
ell 1126, elapsed: 0.0004661083221435547
ell 1125, elapsed: 0.00045299530029296875
ell 1124, elapsed: 0.00045490264892578125
ell 1123, elapsed: 0.00045490264892578125
ell 1122, elapsed: 0.0004470348358154297
ell 1121, elapsed: 0.00045490264892578125
ell 1120, elapsed: 0.00045990943908691406
ell 1119, elapsed: 0.0004520416259765625
ell 1118, elapsed: 0.0004570484161376953
ell 1117, elapsed: 0.00045108795166015625
ell 1116, elapsed: 0.0004470348358154297
ell 1115, elapsed: 0.0004489421844482422
ell 1114, elapsed: 0.0004470348358154297
ell 1113, elapsed: 0.0005199909210205078
ell 1112, elapsed: 0.0004649162292480469
ell 1111, elapsed: 0.00045990943908691406
ell 1110, elapsed: 0.0004439353942871094
ell 1109, elapsed: 0.00045800209045410156
ell 1108, elapsed: 0.00045108795166015625
ell 1107, elapsed: 0.00045108795166015625
ell 1106, elapsed: 0.0004520416259765625
ell 1105, elapsed: 0.00044989585876464844
ell 1104, elapsed: 0.000469207763671875
ell 1103, elapsed: 0.00045180320739746094
ell 1102, elapsed: 0.0004978179931640625
ell 1101, elapsed: 0.0004661083221435547
ell 1100, elapsed: 0.0004489421844482422
ell 1099, elapsed: 0.00045609474182128906
ell 1098, elapsed: 0.0004448890686035156
ell 1097, elapsed: 0.0004780292510986328
ell 1096, elapsed: 0.0004589557647705078
ell 1095, elapsed: 0.00045299530029296875
ell 1094, elapsed: 0.000453948974609375
ell 1093, elapsed: 0.00045800209045410156
ell 1092, elapsed: 0.00045299530029296875
ell 1091, elapsed: 0.0004589557647705078
ell 1090, elapsed: 0.00045800209045410156
ell 1089, elapsed: 0.000537872314453125
ell 1088, elapsed: 0.0005140304565429688
ell 1087, elapsed: 0.0005180835723876953
ell 1086, elapsed: 0.0005421638488769531
ell 1085, elapsed: 0.0005109310150146484
ell 1084, elapsed: 0.0005140304565429688
ell 1083, elapsed: 0.0005240440368652344
ell 1082, elapsed: 0.0005130767822265625
ell 1081, elapsed: 0.0005340576171875
ell 1080, elapsed: 0.0005321502685546875
ell 1079, elapsed: 0.0005240440368652344
ell 1078, elapsed: 0.0005359649658203125
ell 1077, elapsed: 0.0005278587341308594
ell 1076, elapsed: 0.0005309581756591797
ell 1075, elapsed: 0.0005359649658203125
ell 1074, elapsed: 0.0005331039428710938
ell 1073, elapsed: 0.0005099773406982422
ell 1072, elapsed: 0.00048279762268066406
ell 1071, elapsed: 0.00045800209045410156
ell 1070, elapsed: 0.0004558563232421875
ell 1069, elapsed: 0.0004558563232421875
ell 1068, elapsed: 0.00045299530029296875
ell 1067, elapsed: 0.00045108795166015625
ell 1066, elapsed: 0.0004589557647705078
ell 1065, elapsed: 0.0004680156707763672
ell 1064, elapsed: 0.00045490264892578125
ell 1063, elapsed: 0.0004508495330810547
ell 1062, elapsed: 0.00045299530029296875
ell 1061, elapsed: 0.0004551410675048828
ell 1060, elapsed: 0.0004508495330810547
ell 1059, elapsed: 0.00045990943908691406
ell 1058, elapsed: 0.0004489421844482422
ell 1057, elapsed: 0.00048804283142089844
ell 1056, elapsed: 0.0004551410675048828
ell 1055, elapsed: 0.00045418739318847656
ell 1054, elapsed: 0.00045418739318847656
ell 1053, elapsed: 0.00044989585876464844
ell 1052, elapsed: 0.00045990943908691406
ell 1051, elapsed: 0.00044798851013183594
ell 1050, elapsed: 0.00044989585876464844
ell 1049, elapsed: 0.0004889965057373047
ell 1048, elapsed: 0.0004429817199707031
ell 1047, elapsed: 0.0004749298095703125
ell 1046, elapsed: 0.0004680156707763672
ell 1045, elapsed: 0.00045990943908691406
ell 1044, elapsed: 0.00045609474182128906
ell 1043, elapsed: 0.0004489421844482422
ell 1042, elapsed: 0.00044608116149902344
ell 1041, elapsed: 0.00047707557678222656
ell 1040, elapsed: 0.0004470348358154297
ell 1039, elapsed: 0.0004658699035644531
ell 1038, elapsed: 0.0004649162292480469
ell 1037, elapsed: 0.00047087669372558594
ell 1036, elapsed: 0.00045800209045410156
ell 1035, elapsed: 0.00044608116149902344
ell 1034, elapsed: 0.00047707557678222656
ell 1033, elapsed: 0.00045299530029296875
ell 1032, elapsed: 0.000453948974609375
ell 1031, elapsed: 0.00045013427734375
ell 1030, elapsed: 0.00045990943908691406
ell 1029, elapsed: 0.000453948974609375
ell 1028, elapsed: 0.0004470348358154297
ell 1027, elapsed: 0.0004551410675048828
ell 1026, elapsed: 0.00047588348388671875
ell 1025, elapsed: 0.0004730224609375
ell 1024, elapsed: 0.0004730224609375
ell 1023, elapsed: 0.0004749298095703125
ell 1022, elapsed: 0.0004570484161376953
ell 1021, elapsed: 0.0004482269287109375
ell 1020, elapsed: 0.00044989585876464844
ell 1019, elapsed: 0.00045490264892578125
ell 1018, elapsed: 0.00046896934509277344
ell 1017, elapsed: 0.0004620552062988281
ell 1016, elapsed: 0.00045800209045410156
ell 1015, elapsed: 0.0004439353942871094
ell 1014, elapsed: 0.0004520416259765625
ell 1013, elapsed: 0.0004410743713378906
ell 1012, elapsed: 0.00045108795166015625
ell 1011, elapsed: 0.0004379749298095703
ell 1010, elapsed: 0.0006361007690429688
ell 1009, elapsed: 0.00045108795166015625
ell 1008, elapsed: 0.00045180320739746094
ell 1007, elapsed: 0.0004458427429199219
ell 1006, elapsed: 0.0004401206970214844
ell 1005, elapsed: 0.0004410743713378906
ell 1004, elapsed: 0.00044798851013183594
ell 1003, elapsed: 0.0005807876586914062
ell 1002, elapsed: 0.00045609474182128906
ell 1001, elapsed: 0.00043892860412597656
ell 1000, elapsed: 0.00044798851013183594
ell 999, elapsed: 0.0004401206970214844
ell 998, elapsed: 0.000431060791015625
ell 997, elapsed: 0.0004429817199707031
ell 996, elapsed: 0.0004398822784423828
ell 995, elapsed: 0.0004658699035644531
ell 994, elapsed: 0.0004417896270751953
ell 993, elapsed: 0.00043892860412597656
ell 992, elapsed: 0.0004470348358154297
ell 991, elapsed: 0.0004420280456542969
ell 990, elapsed: 0.0004451274871826172
ell 989, elapsed: 0.0004420280456542969
ell 988, elapsed: 0.0004379749298095703
ell 987, elapsed: 0.0006170272827148438
ell 986, elapsed: 0.0005459785461425781
ell 985, elapsed: 0.0004420280456542969
ell 984, elapsed: 0.00042891502380371094
ell 983, elapsed: 0.00043201446533203125
ell 982, elapsed: 0.00043892860412597656
ell 981, elapsed: 0.0004360675811767578
ell 980, elapsed: 0.0004489421844482422
ell 979, elapsed: 0.0005869865417480469
ell 978, elapsed: 0.0004429817199707031
ell 977, elapsed: 0.0004489421844482422
ell 976, elapsed: 0.0004401206970214844
ell 975, elapsed: 0.00044798851013183594
ell 974, elapsed: 0.00043487548828125
ell 973, elapsed: 0.0004398822784423828
ell 972, elapsed: 0.00043582916259765625
ell 971, elapsed: 0.0004889965057373047
ell 970, elapsed: 0.0004520416259765625
ell 969, elapsed: 0.0004451274871826172
ell 968, elapsed: 0.0004429817199707031
ell 967, elapsed: 0.0004489421844482422
ell 966, elapsed: 0.00043702125549316406
ell 965, elapsed: 0.0004420280456542969
ell 964, elapsed: 0.00043487548828125
ell 963, elapsed: 0.0004839897155761719
ell 962, elapsed: 0.0004398822784423828
ell 961, elapsed: 0.00043010711669921875
ell 960, elapsed: 0.0004398822784423828
ell 959, elapsed: 0.0004398822784423828
ell 958, elapsed: 0.00043702125549316406
ell 957, elapsed: 0.0004401206970214844
ell 956, elapsed: 0.0004329681396484375
ell 955, elapsed: 0.0006349086761474609
ell 954, elapsed: 0.0004570484161376953
ell 953, elapsed: 0.0004410743713378906
ell 952, elapsed: 0.00044989585876464844
ell 951, elapsed: 0.0004429817199707031
ell 950, elapsed: 0.0004458427429199219
ell 949, elapsed: 0.00043201446533203125
ell 948, elapsed: 0.0004811286926269531
ell 947, elapsed: 0.0004360675811767578
ell 946, elapsed: 0.00043201446533203125
ell 945, elapsed: 0.0004398822784423828
ell 944, elapsed: 0.0004420280456542969
ell 943, elapsed: 0.0004570484161376953
ell 942, elapsed: 0.0004439353942871094
ell 941, elapsed: 0.0004448890686035156
ell 940, elapsed: 0.0005409717559814453
ell 939, elapsed: 0.00045108795166015625
ell 938, elapsed: 0.00045299530029296875
ell 937, elapsed: 0.0004420280456542969
ell 936, elapsed: 0.0004429817199707031
ell 935, elapsed: 0.0004401206970214844
ell 934, elapsed: 0.0003781318664550781
ell 933, elapsed: 0.00043392181396484375
ell 932, elapsed: 0.0004928112030029297
ell 931, elapsed: 0.00045108795166015625
ell 930, elapsed: 0.00045299530029296875
ell 929, elapsed: 0.0004429817199707031
ell 928, elapsed: 0.0004429817199707031
ell 927, elapsed: 0.00042891502380371094
ell 926, elapsed: 0.0004470348358154297
ell 925, elapsed: 0.00045490264892578125
ell 924, elapsed: 0.0004680156707763672
ell 923, elapsed: 0.000431060791015625
ell 922, elapsed: 0.0004420280456542969
ell 921, elapsed: 0.0004298686981201172
ell 920, elapsed: 0.0004448890686035156
ell 919, elapsed: 0.00045299530029296875
ell 918, elapsed: 0.000453948974609375
ell 917, elapsed: 0.0004267692565917969
ell 916, elapsed: 0.0004680156707763672
ell 915, elapsed: 0.0004630088806152344
ell 914, elapsed: 0.00045108795166015625
ell 913, elapsed: 0.0004391670227050781
ell 912, elapsed: 0.0004489421844482422
ell 911, elapsed: 0.0004448890686035156
ell 910, elapsed: 0.00045013427734375
ell 909, elapsed: 0.0004439353942871094
ell 908, elapsed: 0.0004589557647705078
ell 907, elapsed: 0.00043892860412597656
ell 906, elapsed: 0.0004382133483886719
ell 905, elapsed: 0.00044608116149902344
ell 904, elapsed: 0.0004391670227050781
ell 903, elapsed: 0.0004379749298095703
ell 902, elapsed: 0.0004401206970214844
ell 901, elapsed: 0.00042891502380371094
ell 900, elapsed: 0.0004642009735107422
ell 899, elapsed: 0.0004138946533203125
ell 898, elapsed: 0.00037288665771484375
ell 897, elapsed: 0.00035881996154785156
ell 896, elapsed: 0.0003769397735595703
ell 895, elapsed: 0.0004360675811767578
ell 894, elapsed: 0.0004410743713378906
ell 893, elapsed: 0.0004489421844482422
ell 892, elapsed: 0.00044989585876464844
ell 891, elapsed: 0.00045299530029296875
ell 890, elapsed: 0.00044083595275878906
ell 889, elapsed: 0.0004470348358154297
ell 888, elapsed: 0.0004508495330810547
ell 887, elapsed: 0.0004410743713378906
ell 886, elapsed: 0.000453948974609375
ell 885, elapsed: 0.00042319297790527344
ell 884, elapsed: 0.0004429817199707031
ell 883, elapsed: 0.0004630088806152344
ell 882, elapsed: 0.0004410743713378906
ell 881, elapsed: 0.00044608116149902344
ell 880, elapsed: 0.0004470348358154297
ell 879, elapsed: 0.00044608116149902344
ell 878, elapsed: 0.00044798851013183594
ell 877, elapsed: 0.0004329681396484375
ell 876, elapsed: 0.00045108795166015625
ell 875, elapsed: 0.0004589557647705078
ell 874, elapsed: 0.00043201446533203125
ell 873, elapsed: 0.00044989585876464844
ell 872, elapsed: 0.0004391670227050781
ell 871, elapsed: 0.00045800209045410156
ell 870, elapsed: 0.00044798851013183594
ell 869, elapsed: 0.0004398822784423828
ell 868, elapsed: 0.0004398822784423828
ell 867, elapsed: 0.00044417381286621094
ell 866, elapsed: 0.0004398822784423828
ell 865, elapsed: 0.0004451274871826172
ell 864, elapsed: 0.0004360675811767578
ell 863, elapsed: 0.0004520416259765625
ell 862, elapsed: 0.0004420280456542969
ell 861, elapsed: 0.00044798851013183594
ell 860, elapsed: 0.0004429817199707031
ell 859, elapsed: 0.0004642009735107422
ell 858, elapsed: 0.00044083595275878906
ell 857, elapsed: 0.0004448890686035156
ell 856, elapsed: 0.0004439353942871094
ell 855, elapsed: 0.00043702125549316406
ell 854, elapsed: 0.0004279613494873047
ell 853, elapsed: 0.00045490264892578125
ell 852, elapsed: 0.00043010711669921875
ell 851, elapsed: 0.00044798851013183594
ell 850, elapsed: 0.0004229545593261719
ell 849, elapsed: 0.00044798851013183594
ell 848, elapsed: 0.0004420280456542969
ell 847, elapsed: 0.0004448890686035156
ell 846, elapsed: 0.00043892860412597656
ell 845, elapsed: 0.00044798851013183594
ell 844, elapsed: 0.0004458427429199219
ell 843, elapsed: 0.0004520416259765625
ell 842, elapsed: 0.00043892860412597656
ell 841, elapsed: 0.00045108795166015625
ell 840, elapsed: 0.0004799365997314453
ell 839, elapsed: 0.00046515464782714844
ell 838, elapsed: 0.00045800209045410156
ell 837, elapsed: 0.0004608631134033203
ell 836, elapsed: 0.000469207763671875
ell 835, elapsed: 0.0004749298095703125
ell 834, elapsed: 0.0004551410675048828
ell 833, elapsed: 0.00045490264892578125
ell 832, elapsed: 0.0004639625549316406
ell 831, elapsed: 0.000453948974609375
ell 830, elapsed: 0.0004520416259765625
ell 829, elapsed: 0.0004329681396484375
ell 828, elapsed: 0.00040912628173828125
ell 827, elapsed: 0.00044798851013183594
ell 826, elapsed: 0.0004417896270751953
ell 825, elapsed: 0.00043201446533203125
ell 824, elapsed: 0.00038504600524902344
ell 823, elapsed: 0.0004119873046875
ell 822, elapsed: 0.0004451274871826172
ell 821, elapsed: 0.0003769397735595703
ell 820, elapsed: 0.0004239082336425781
ell 819, elapsed: 0.0004830360412597656
ell 818, elapsed: 0.00043511390686035156
ell 817, elapsed: 0.0004661083221435547
ell 816, elapsed: 0.00045299530029296875
ell 815, elapsed: 0.00044798851013183594
ell 814, elapsed: 0.0004601478576660156
ell 813, elapsed: 0.00044608116149902344
ell 812, elapsed: 0.00045800209045410156
ell 811, elapsed: 0.0004649162292480469
ell 810, elapsed: 0.0004661083221435547
ell 809, elapsed: 0.0004630088806152344
ell 808, elapsed: 0.0004630088806152344
ell 807, elapsed: 0.0004639625549316406
ell 806, elapsed: 0.0003941059112548828
ell 805, elapsed: 0.0003960132598876953
ell 804, elapsed: 0.0004019737243652344
ell 803, elapsed: 0.00039196014404296875
ell 802, elapsed: 0.0004019737243652344
ell 801, elapsed: 0.0003960132598876953
ell 800, elapsed: 0.00039505958557128906
ell 799, elapsed: 0.00043487548828125
ell 798, elapsed: 0.00044798851013183594
ell 797, elapsed: 0.0004470348358154297
ell 796, elapsed: 0.00039696693420410156
ell 795, elapsed: 0.00039696693420410156
ell 794, elapsed: 0.00041103363037109375
ell 793, elapsed: 0.0004019737243652344
ell 792, elapsed: 0.00039386749267578125
ell 791, elapsed: 0.0003998279571533203
ell 790, elapsed: 0.0003991127014160156
ell 789, elapsed: 0.00039696693420410156
ell 788, elapsed: 0.0003960132598876953
ell 787, elapsed: 0.0004019737243652344
ell 786, elapsed: 0.000392913818359375
ell 785, elapsed: 0.00044989585876464844
ell 784, elapsed: 0.00044798851013183594
ell 783, elapsed: 0.0004467964172363281
ell 782, elapsed: 0.0004611015319824219
ell 781, elapsed: 0.0003960132598876953
ell 780, elapsed: 0.00040411949157714844
ell 779, elapsed: 0.00040602684020996094
ell 778, elapsed: 0.0003979206085205078
ell 777, elapsed: 0.00041484832763671875
ell 776, elapsed: 0.0004019737243652344
ell 775, elapsed: 0.0004050731658935547
ell 774, elapsed: 0.0003960132598876953
ell 773, elapsed: 0.000392913818359375
ell 772, elapsed: 0.00043892860412597656
ell 771, elapsed: 0.00044608116149902344
ell 770, elapsed: 0.0004029273986816406
ell 769, elapsed: 0.00040411949157714844
ell 768, elapsed: 0.0004119873046875
ell 767, elapsed: 0.0004038810729980469
ell 766, elapsed: 0.000392913818359375
ell 765, elapsed: 0.0003991127014160156
ell 764, elapsed: 0.00039696693420410156
ell 763, elapsed: 0.00040602684020996094
ell 762, elapsed: 0.0003960132598876953
ell 761, elapsed: 0.0003998279571533203
ell 760, elapsed: 0.00040602684020996094
ell 759, elapsed: 0.0004119873046875
ell 758, elapsed: 0.0004038810729980469
ell 757, elapsed: 0.0004019737243652344
ell 756, elapsed: 0.00039696693420410156
ell 755, elapsed: 0.0003991127014160156
ell 754, elapsed: 0.000392913818359375
ell 753, elapsed: 0.000453948974609375
ell 752, elapsed: 0.0004630088806152344
ell 751, elapsed: 0.0004889965057373047
ell 750, elapsed: 0.0004680156707763672
ell 749, elapsed: 0.00045108795166015625
ell 748, elapsed: 0.00046896934509277344
ell 747, elapsed: 0.0004620552062988281
ell 746, elapsed: 0.0004620552062988281
ell 745, elapsed: 0.0004630088806152344
ell 744, elapsed: 0.0004780292510986328
ell 743, elapsed: 0.0004830360412597656
ell 742, elapsed: 0.00045490264892578125
ell 741, elapsed: 0.00045013427734375
ell 740, elapsed: 0.0004439353942871094
ell 739, elapsed: 0.0004608631134033203
ell 738, elapsed: 0.0004601478576660156
ell 737, elapsed: 0.00045609474182128906
ell 736, elapsed: 0.0004458427429199219
ell 735, elapsed: 0.0004630088806152344
ell 734, elapsed: 0.0004551410675048828
ell 733, elapsed: 0.0004661083221435547
ell 732, elapsed: 0.0004680156707763672
ell 731, elapsed: 0.0004589557647705078
ell 730, elapsed: 0.00044798851013183594
ell 729, elapsed: 0.0004417896270751953
ell 728, elapsed: 0.00045800209045410156
ell 727, elapsed: 0.00045609474182128906
ell 726, elapsed: 0.00044989585876464844
ell 725, elapsed: 0.00045418739318847656
ell 724, elapsed: 0.0004360675811767578
ell 723, elapsed: 0.0004189014434814453
ell 722, elapsed: 0.00039005279541015625
ell 721, elapsed: 0.00039696693420410156
ell 720, elapsed: 0.00039196014404296875
ell 719, elapsed: 0.00041103363037109375
ell 718, elapsed: 0.0003960132598876953
ell 717, elapsed: 0.0004019737243652344
ell 716, elapsed: 0.0003960132598876953
ell 715, elapsed: 0.0003960132598876953
ell 714, elapsed: 0.0003948211669921875
ell 713, elapsed: 0.0004010200500488281
ell 712, elapsed: 0.0003981590270996094
ell 711, elapsed: 0.0004010200500488281
ell 710, elapsed: 0.00039696693420410156
ell 709, elapsed: 0.0003979206085205078
ell 708, elapsed: 0.00040411949157714844
ell 707, elapsed: 0.0004050731658935547
ell 706, elapsed: 0.0004010200500488281
ell 705, elapsed: 0.0003979206085205078
ell 704, elapsed: 0.0003998279571533203
ell 703, elapsed: 0.0004038810729980469
ell 702, elapsed: 0.00041604042053222656
ell 701, elapsed: 0.0004029273986816406
ell 700, elapsed: 0.0003960132598876953
ell 699, elapsed: 0.00040793418884277344
ell 698, elapsed: 0.00040078163146972656
ell 697, elapsed: 0.0004000663757324219
ell 696, elapsed: 0.00040912628173828125
ell 695, elapsed: 0.0004069805145263672
ell 694, elapsed: 0.0004131793975830078
ell 693, elapsed: 0.00041103363037109375
ell 692, elapsed: 0.00040602684020996094
ell 691, elapsed: 0.00044989585876464844
ell 690, elapsed: 0.00045108795166015625
ell 689, elapsed: 0.0004601478576660156
ell 688, elapsed: 0.0004010200500488281
ell 687, elapsed: 0.00040221214294433594
ell 686, elapsed: 0.00040793418884277344
ell 685, elapsed: 0.00040411949157714844
ell 684, elapsed: 0.00044608116149902344
ell 683, elapsed: 0.00045299530029296875
ell 682, elapsed: 0.0004398822784423828
ell 681, elapsed: 0.00045800209045410156
ell 680, elapsed: 0.0003998279571533203
ell 679, elapsed: 0.0004470348358154297
ell 678, elapsed: 0.0004429817199707031
ell 677, elapsed: 0.0004029273986816406
ell 676, elapsed: 0.00042510032653808594
ell 675, elapsed: 0.00040602684020996094
ell 674, elapsed: 0.00040793418884277344
ell 673, elapsed: 0.0003979206085205078
ell 672, elapsed: 0.0004088878631591797
ell 671, elapsed: 0.0004489421844482422
ell 670, elapsed: 0.0004489421844482422
ell 669, elapsed: 0.0004000663757324219
ell 668, elapsed: 0.00042510032653808594
ell 667, elapsed: 0.00040602684020996094
ell 666, elapsed: 0.00042819976806640625
ell 665, elapsed: 0.000453948974609375
ell 664, elapsed: 0.0004019737243652344
ell 663, elapsed: 0.0004019737243652344
ell 662, elapsed: 0.00043511390686035156
ell 661, elapsed: 0.0004489421844482422
ell 660, elapsed: 0.00045990943908691406
ell 659, elapsed: 0.00046515464782714844
ell 658, elapsed: 0.00039505958557128906
ell 657, elapsed: 0.00040602684020996094
ell 656, elapsed: 0.00040793418884277344
ell 655, elapsed: 0.0004391670227050781
ell 654, elapsed: 0.00044798851013183594
ell 653, elapsed: 0.0004010200500488281
ell 652, elapsed: 0.00043201446533203125
ell 651, elapsed: 0.00047087669372558594
ell 650, elapsed: 0.0003948211669921875
ell 649, elapsed: 0.0004031658172607422
ell 648, elapsed: 0.000392913818359375
ell 647, elapsed: 0.0004069805145263672
ell 646, elapsed: 0.0003972053527832031
ell 645, elapsed: 0.0004019737243652344
ell 644, elapsed: 0.0004010200500488281
ell 643, elapsed: 0.0004189014434814453
ell 642, elapsed: 0.00040602684020996094
ell 641, elapsed: 0.00040602684020996094
ell 640, elapsed: 0.0004439353942871094
ell 639, elapsed: 0.0004520416259765625
ell 638, elapsed: 0.0004258155822753906
ell 637, elapsed: 0.0004551410675048828
ell 636, elapsed: 0.0004601478576660156
ell 635, elapsed: 0.00041103363037109375
ell 634, elapsed: 0.0004069805145263672
ell 633, elapsed: 0.0003979206085205078
ell 632, elapsed: 0.00041103363037109375
ell 631, elapsed: 0.0004010200500488281
ell 630, elapsed: 0.00043582916259765625
ell 629, elapsed: 0.0004470348358154297
ell 628, elapsed: 0.0004019737243652344
ell 627, elapsed: 0.0004048347473144531
ell 626, elapsed: 0.0004138946533203125
ell 625, elapsed: 0.0004279613494873047
ell 624, elapsed: 0.0004570484161376953
ell 623, elapsed: 0.0003960132598876953
ell 622, elapsed: 0.00042891502380371094
ell 621, elapsed: 0.0004489421844482422
ell 620, elapsed: 0.0004329681396484375
ell 619, elapsed: 0.000453948974609375
ell 618, elapsed: 0.0004620552062988281
ell 617, elapsed: 0.000453948974609375
ell 616, elapsed: 0.0004010200500488281
ell 615, elapsed: 0.0004050731658935547
ell 614, elapsed: 0.0004029273986816406
ell 613, elapsed: 0.0004210472106933594
ell 612, elapsed: 0.0004520416259765625
ell 611, elapsed: 0.0003991127014160156
ell 610, elapsed: 0.0004038810729980469
ell 609, elapsed: 0.0004107952117919922
ell 608, elapsed: 0.0004019737243652344
ell 607, elapsed: 0.0003998279571533203
ell 606, elapsed: 0.0003960132598876953
ell 605, elapsed: 0.0004048347473144531
ell 604, elapsed: 0.0004010200500488281
ell 603, elapsed: 0.0004031658172607422
ell 602, elapsed: 0.0004050731658935547
ell 601, elapsed: 0.0004019737243652344
ell 600, elapsed: 0.0004210472106933594
ell 599, elapsed: 0.00045299530029296875
ell 598, elapsed: 0.000408172607421875
ell 597, elapsed: 0.00040221214294433594
ell 596, elapsed: 0.00043320655822753906
ell 595, elapsed: 0.0004611015319824219
ell 594, elapsed: 0.0004458427429199219
ell 593, elapsed: 0.0004489421844482422
ell 592, elapsed: 0.00041413307189941406
ell 591, elapsed: 0.00039505958557128906
ell 590, elapsed: 0.0003991127014160156
ell 589, elapsed: 0.0004000663757324219
ell 588, elapsed: 0.0004019737243652344
ell 587, elapsed: 0.0003979206085205078
ell 586, elapsed: 0.00039386749267578125
ell 585, elapsed: 0.00039386749267578125
ell 584, elapsed: 0.0004429817199707031
ell 583, elapsed: 0.0004489421844482422
ell 582, elapsed: 0.0004520416259765625
ell 581, elapsed: 0.0004050731658935547
ell 580, elapsed: 0.0004191398620605469
ell 579, elapsed: 0.0004520416259765625
ell 578, elapsed: 0.0004329681396484375
ell 577, elapsed: 0.00045800209045410156
ell 576, elapsed: 0.0004189014434814453
ell 575, elapsed: 0.0004010200500488281
ell 574, elapsed: 0.0004010200500488281
ell 573, elapsed: 0.0004000663757324219
ell 572, elapsed: 0.00040411949157714844
ell 571, elapsed: 0.000408172607421875
ell 570, elapsed: 0.0004000663757324219
ell 569, elapsed: 0.00044608116149902344
ell 568, elapsed: 0.0004620552062988281
ell 567, elapsed: 0.00046706199645996094
ell 566, elapsed: 0.0004630088806152344
ell 565, elapsed: 0.00044989585876464844
ell 564, elapsed: 0.00045490264892578125
ell 563, elapsed: 0.00045609474182128906
ell 562, elapsed: 0.0004570484161376953
ell 561, elapsed: 0.0004642009735107422
ell 560, elapsed: 0.0004451274871826172
ell 559, elapsed: 0.00046896934509277344
ell 558, elapsed: 0.0004620552062988281
ell 557, elapsed: 0.0004589557647705078
ell 556, elapsed: 0.0004520416259765625
ell 555, elapsed: 0.0004589557647705078
ell 554, elapsed: 0.00046896934509277344
ell 553, elapsed: 0.00039887428283691406
ell 552, elapsed: 0.0004029273986816406
ell 551, elapsed: 0.0004608631134033203
ell 550, elapsed: 0.00045299530029296875
ell 549, elapsed: 0.00045609474182128906
ell 548, elapsed: 0.0004589557647705078
ell 547, elapsed: 0.0004589557647705078
ell 546, elapsed: 0.0004570484161376953
ell 545, elapsed: 0.0004558563232421875
ell 544, elapsed: 0.00044083595275878906
ell 543, elapsed: 0.0004761219024658203
ell 542, elapsed: 0.00045800209045410156
ell 541, elapsed: 0.00043892860412597656
ell 540, elapsed: 0.00044989585876464844
ell 539, elapsed: 0.0004448890686035156
ell 538, elapsed: 0.00044918060302734375
ell 537, elapsed: 0.00045299530029296875
ell 536, elapsed: 0.00045800209045410156
ell 535, elapsed: 0.00047087669372558594
ell 534, elapsed: 0.000453948974609375
ell 533, elapsed: 0.0004520416259765625
ell 532, elapsed: 0.0004489421844482422
ell 531, elapsed: 0.0004558563232421875
ell 530, elapsed: 0.00044798851013183594
ell 529, elapsed: 0.00046896934509277344
ell 528, elapsed: 0.0004570484161376953
ell 527, elapsed: 0.0004620552062988281
ell 526, elapsed: 0.00043892860412597656
ell 525, elapsed: 0.00045108795166015625
ell 524, elapsed: 0.0004520416259765625
ell 523, elapsed: 0.00045490264892578125
ell 522, elapsed: 0.0004570484161376953
ell 521, elapsed: 0.0004391670227050781
ell 520, elapsed: 0.0004489421844482422
ell 519, elapsed: 0.0004677772521972656
ell 518, elapsed: 0.0004620552062988281
ell 517, elapsed: 0.0004639625549316406
ell 516, elapsed: 0.00043702125549316406
ell 515, elapsed: 0.00045299530029296875
ell 514, elapsed: 0.00045490264892578125
ell 513, elapsed: 0.0004489421844482422
ell 512, elapsed: 0.00047898292541503906
ell 511, elapsed: 0.00046515464782714844
ell 510, elapsed: 0.0004558563232421875
ell 509, elapsed: 0.0004570484161376953
ell 508, elapsed: 0.00045013427734375
ell 507, elapsed: 0.0004520416259765625
ell 506, elapsed: 0.00045299530029296875
ell 505, elapsed: 0.00044798851013183594
ell 504, elapsed: 0.0004680156707763672
ell 503, elapsed: 0.0005469322204589844
ell 502, elapsed: 0.0004630088806152344
ell 501, elapsed: 0.0004520416259765625
ell 500, elapsed: 0.0004620552062988281
ell 499, elapsed: 0.00045013427734375
ell 498, elapsed: 0.00045108795166015625
ell 497, elapsed: 0.0004551410675048828
ell 496, elapsed: 0.00039505958557128906
ell 495, elapsed: 0.00039196014404296875
ell 494, elapsed: 0.0003981590270996094
ell 493, elapsed: 0.0003941059112548828
ell 492, elapsed: 0.0004360675811767578
ell 491, elapsed: 0.0004458427429199219
ell 490, elapsed: 0.0004019737243652344
ell 489, elapsed: 0.00039005279541015625
ell 488, elapsed: 0.00039696693420410156
ell 487, elapsed: 0.000431060791015625
ell 486, elapsed: 0.0003941059112548828
ell 485, elapsed: 0.0004420280456542969
ell 484, elapsed: 0.0004458427429199219
ell 483, elapsed: 0.0004000663757324219
ell 482, elapsed: 0.0004031658172607422
ell 481, elapsed: 0.0003871917724609375
ell 480, elapsed: 0.00039887428283691406
ell 479, elapsed: 0.00043392181396484375
ell 478, elapsed: 0.0004520416259765625
ell 477, elapsed: 0.00038909912109375
ell 476, elapsed: 0.00039386749267578125
ell 475, elapsed: 0.0004241466522216797
ell 474, elapsed: 0.0004420280456542969
ell 473, elapsed: 0.00039315223693847656
ell 472, elapsed: 0.00043392181396484375
ell 471, elapsed: 0.0004420280456542969
ell 470, elapsed: 0.00040793418884277344
ell 469, elapsed: 0.00039005279541015625
ell 468, elapsed: 0.00039005279541015625
ell 467, elapsed: 0.00040984153747558594
ell 466, elapsed: 0.0003960132598876953
ell 465, elapsed: 0.0004019737243652344
ell 464, elapsed: 0.0003910064697265625
ell 463, elapsed: 0.00039696693420410156
ell 462, elapsed: 0.0003941059112548828
ell 461, elapsed: 0.00047206878662109375
ell 460, elapsed: 0.0004029273986816406
ell 459, elapsed: 0.0004489421844482422
ell 458, elapsed: 0.0004570484161376953
ell 457, elapsed: 0.0004489421844482422
ell 456, elapsed: 0.00039005279541015625
ell 455, elapsed: 0.0003960132598876953
ell 454, elapsed: 0.00038814544677734375
ell 453, elapsed: 0.0004138946533203125
ell 452, elapsed: 0.0005409717559814453
ell 451, elapsed: 0.0003898143768310547
ell 450, elapsed: 0.0004379749298095703
ell 449, elapsed: 0.00045800209045410156
ell 448, elapsed: 0.00045108795166015625
ell 447, elapsed: 0.00045490264892578125
ell 446, elapsed: 0.000453948974609375
ell 445, elapsed: 0.00045180320739746094
ell 444, elapsed: 0.00039005279541015625
ell 443, elapsed: 0.00039386749267578125
ell 442, elapsed: 0.00039386749267578125
ell 441, elapsed: 0.000392913818359375
ell 440, elapsed: 0.00044417381286621094
ell 439, elapsed: 0.0004360675811767578
ell 438, elapsed: 0.00043201446533203125
ell 437, elapsed: 0.0004551410675048828
ell 436, elapsed: 0.0005300045013427734
ell 435, elapsed: 0.00045013427734375
ell 434, elapsed: 0.00044608116149902344
ell 433, elapsed: 0.0003941059112548828
ell 432, elapsed: 0.00039196014404296875
ell 431, elapsed: 0.00039505958557128906
ell 430, elapsed: 0.00039196014404296875
ell 429, elapsed: 0.0004210472106933594
ell 428, elapsed: 0.0005519390106201172
ell 427, elapsed: 0.0004551410675048828
ell 426, elapsed: 0.0004558563232421875
ell 425, elapsed: 0.0003960132598876953
ell 424, elapsed: 0.00043892860412597656
ell 423, elapsed: 0.00045418739318847656
ell 422, elapsed: 0.0004010200500488281
ell 421, elapsed: 0.0004000663757324219
ell 420, elapsed: 0.0004930496215820312
ell 419, elapsed: 0.00047707557678222656
ell 418, elapsed: 0.0004980564117431641
ell 417, elapsed: 0.0004658699035644531
ell 416, elapsed: 0.0004589557647705078
ell 415, elapsed: 0.0004520416259765625
ell 414, elapsed: 0.00045609474182128906
ell 413, elapsed: 0.00046896934509277344
ell 412, elapsed: 0.0004341602325439453
ell 411, elapsed: 0.0004601478576660156
ell 410, elapsed: 0.00044798851013183594
ell 409, elapsed: 0.0004439353942871094
ell 408, elapsed: 0.00044989585876464844
ell 407, elapsed: 0.00044798851013183594
ell 406, elapsed: 0.0004220008850097656
ell 405, elapsed: 0.00045013427734375
ell 404, elapsed: 0.0004367828369140625
ell 403, elapsed: 0.0004820823669433594
ell 402, elapsed: 0.0004849433898925781
ell 401, elapsed: 0.00043702125549316406
ell 400, elapsed: 0.00043487548828125
ell 399, elapsed: 0.0004379749298095703
ell 398, elapsed: 0.00044918060302734375
ell 397, elapsed: 0.0004420280456542969
ell 396, elapsed: 0.0004451274871826172
ell 395, elapsed: 0.0004508495330810547
ell 394, elapsed: 0.00045990943908691406
ell 393, elapsed: 0.00044608116149902344
ell 392, elapsed: 0.00045990943908691406
ell 391, elapsed: 0.00045609474182128906
ell 390, elapsed: 0.00043201446533203125
ell 389, elapsed: 0.00046706199645996094
ell 388, elapsed: 0.00045990943908691406
ell 387, elapsed: 0.00043320655822753906
ell 386, elapsed: 0.000453948974609375
ell 385, elapsed: 0.00039696693420410156
ell 384, elapsed: 0.00044798851013183594
ell 383, elapsed: 0.0004558563232421875
ell 382, elapsed: 0.00046896934509277344
ell 381, elapsed: 0.0004680156707763672
ell 380, elapsed: 0.00045800209045410156
ell 379, elapsed: 0.0004470348358154297
ell 378, elapsed: 0.0004489421844482422
ell 377, elapsed: 0.0004482269287109375
ell 376, elapsed: 0.0004019737243652344
ell 375, elapsed: 0.00041413307189941406
ell 374, elapsed: 0.0004611015319824219
ell 373, elapsed: 0.0005350112915039062
ell 372, elapsed: 0.00045490264892578125
ell 371, elapsed: 0.0004220008850097656
ell 370, elapsed: 0.0004589557647705078
ell 369, elapsed: 0.00043010711669921875
ell 368, elapsed: 0.00045680999755859375
ell 367, elapsed: 0.00044989585876464844
ell 366, elapsed: 0.0004520416259765625
ell 365, elapsed: 0.0005459785461425781
ell 364, elapsed: 0.0004889965057373047
ell 363, elapsed: 0.0004711151123046875
ell 362, elapsed: 0.00043487548828125
ell 361, elapsed: 0.0004749298095703125
ell 360, elapsed: 0.0004551410675048828
ell 359, elapsed: 0.00043892860412597656
ell 358, elapsed: 0.00046896934509277344
ell 357, elapsed: 0.000453948974609375
ell 356, elapsed: 0.00045609474182128906
ell 355, elapsed: 0.00045299530029296875
ell 354, elapsed: 0.0004639625549316406
ell 353, elapsed: 0.00045609474182128906
ell 352, elapsed: 0.0004639625549316406
ell 351, elapsed: 0.00047588348388671875
ell 350, elapsed: 0.0004608631134033203
ell 349, elapsed: 0.00044608116149902344
ell 348, elapsed: 0.00043010711669921875
ell 347, elapsed: 0.00045800209045410156
ell 346, elapsed: 0.00043010711669921875
ell 345, elapsed: 0.0004630088806152344
ell 344, elapsed: 0.00039696693420410156
ell 343, elapsed: 0.00039696693420410156
ell 342, elapsed: 0.0004470348358154297
ell 341, elapsed: 0.00045609474182128906
ell 340, elapsed: 0.0004360675811767578
ell 339, elapsed: 0.0004489421844482422
ell 338, elapsed: 0.0004801750183105469
ell 337, elapsed: 0.00046896934509277344
ell 336, elapsed: 0.00045990943908691406
ell 335, elapsed: 0.0004279613494873047
ell 334, elapsed: 0.0004608631134033203
ell 333, elapsed: 0.0004551410675048828
ell 332, elapsed: 0.00043892860412597656
ell 331, elapsed: 0.0004608631134033203
ell 330, elapsed: 0.0004420280456542969
ell 329, elapsed: 0.00045108795166015625
ell 328, elapsed: 0.0004489421844482422
ell 327, elapsed: 0.00045299530029296875
ell 326, elapsed: 0.0004649162292480469
ell 325, elapsed: 0.0004601478576660156
ell 324, elapsed: 0.00045108795166015625
ell 323, elapsed: 0.00045299530029296875
ell 322, elapsed: 0.0004680156707763672
ell 321, elapsed: 0.0003960132598876953
ell 320, elapsed: 0.000431060791015625
ell 319, elapsed: 0.00044608116149902344
ell 318, elapsed: 0.00046896934509277344
ell 317, elapsed: 0.0004379749298095703
ell 316, elapsed: 0.0004668235778808594
ell 315, elapsed: 0.00045680999755859375
ell 314, elapsed: 0.00045299530029296875
ell 313, elapsed: 0.00045680999755859375
ell 312, elapsed: 0.00044989585876464844
ell 311, elapsed: 0.00043702125549316406
ell 310, elapsed: 0.0004680156707763672
ell 309, elapsed: 0.0004470348358154297
ell 308, elapsed: 0.0004591941833496094
ell 307, elapsed: 0.00045108795166015625
ell 306, elapsed: 0.00045418739318847656
ell 305, elapsed: 0.0004608631134033203
ell 304, elapsed: 0.00044989585876464844
ell 303, elapsed: 0.00045013427734375
ell 302, elapsed: 0.00046706199645996094
ell 301, elapsed: 0.0004558563232421875
ell 300, elapsed: 0.00042319297790527344
ell 299, elapsed: 0.0004458427429199219
ell 298, elapsed: 0.00045490264892578125
ell 297, elapsed: 0.0004489421844482422
ell 296, elapsed: 0.0004019737243652344
ell 295, elapsed: 0.00043892860412597656
ell 294, elapsed: 0.00047707557678222656
ell 293, elapsed: 0.0004730224609375
ell 292, elapsed: 0.0004410743713378906
ell 291, elapsed: 0.00044608116149902344
ell 290, elapsed: 0.0004429817199707031
ell 289, elapsed: 0.0004591941833496094
ell 288, elapsed: 0.00043487548828125
ell 287, elapsed: 0.00045609474182128906
ell 286, elapsed: 0.0003981590270996094
ell 285, elapsed: 0.0004889965057373047
ell 284, elapsed: 0.0004429817199707031
ell 283, elapsed: 0.0004470348358154297
ell 282, elapsed: 0.0004467964172363281
ell 281, elapsed: 0.0004489421844482422
ell 280, elapsed: 0.00044608116149902344
ell 279, elapsed: 0.00044798851013183594
ell 278, elapsed: 0.0004591941833496094
ell 277, elapsed: 0.0004611015319824219
ell 276, elapsed: 0.00043702125549316406
ell 275, elapsed: 0.0004589557647705078
ell 274, elapsed: 0.0003941059112548828
ell 273, elapsed: 0.00043892860412597656
ell 272, elapsed: 0.0004458427429199219
ell 271, elapsed: 0.00045299530029296875
ell 270, elapsed: 0.00045490264892578125
ell 269, elapsed: 0.0004642009735107422
ell 268, elapsed: 0.0004360675811767578
ell 267, elapsed: 0.00045418739318847656
ell 266, elapsed: 0.00045490264892578125
ell 265, elapsed: 0.0004429817199707031
ell 264, elapsed: 0.0004420280456542969
ell 263, elapsed: 0.0004570484161376953
ell 262, elapsed: 0.00045013427734375
ell 261, elapsed: 0.0004749298095703125
ell 260, elapsed: 0.0004570484161376953
ell 259, elapsed: 0.000392913818359375
ell 258, elapsed: 0.00043511390686035156
ell 257, elapsed: 0.00045013427734375
ell 256, elapsed: 0.0004508495330810547
ell 255, elapsed: 0.0004360675811767578
ell 254, elapsed: 0.0004551410675048828
ell 253, elapsed: 0.0004811286926269531
ell 252, elapsed: 0.00045299530029296875
ell 251, elapsed: 0.0004458427429199219
ell 250, elapsed: 0.00045013427734375
ell 249, elapsed: 0.00045800209045410156
ell 248, elapsed: 0.000453948974609375
ell 247, elapsed: 0.00045418739318847656
ell 246, elapsed: 0.0004520416259765625
ell 245, elapsed: 0.0004639625549316406
ell 244, elapsed: 0.00045609474182128906
ell 243, elapsed: 0.0004069805145263672
ell 242, elapsed: 0.0004291534423828125
ell 241, elapsed: 0.00045108795166015625
ell 240, elapsed: 0.0004551410675048828
ell 239, elapsed: 0.0004489421844482422
ell 238, elapsed: 0.00045299530029296875
ell 237, elapsed: 0.0004131793975830078
ell 236, elapsed: 0.0004088878631591797
ell 235, elapsed: 0.00043892860412597656
ell 234, elapsed: 0.00045490264892578125
ell 233, elapsed: 0.00044798851013183594
ell 232, elapsed: 0.000408172607421875
ell 231, elapsed: 0.0004470348358154297
ell 230, elapsed: 0.00045013427734375
ell 229, elapsed: 0.0004570484161376953
ell 228, elapsed: 0.0004429817199707031
ell 227, elapsed: 0.00047588348388671875
ell 226, elapsed: 0.00045680999755859375
ell 225, elapsed: 0.0004639625549316406
ell 224, elapsed: 0.0004210472106933594
ell 223, elapsed: 0.0004508495330810547
ell 222, elapsed: 0.0004551410675048828
ell 221, elapsed: 0.0004742145538330078
ell 220, elapsed: 0.00044083595275878906
ell 219, elapsed: 0.000453948974609375
ell 218, elapsed: 0.00045299530029296875
ell 217, elapsed: 0.00045609474182128906
ell 216, elapsed: 0.00045609474182128906
ell 215, elapsed: 0.00046706199645996094
ell 214, elapsed: 0.000453948974609375
ell 213, elapsed: 0.0005009174346923828
ell 212, elapsed: 0.00045800209045410156
ell 211, elapsed: 0.00045800209045410156
ell 210, elapsed: 0.0004420280456542969
ell 209, elapsed: 0.0004608631134033203
ell 208, elapsed: 0.00046181678771972656
ell 207, elapsed: 0.0004038810729980469
ell 206, elapsed: 0.0004239082336425781
ell 205, elapsed: 0.0004780292510986328
ell 204, elapsed: 0.00048089027404785156
ell 203, elapsed: 0.00045418739318847656
ell 202, elapsed: 0.00045990943908691406
ell 201, elapsed: 0.0004191398620605469
ell 200, elapsed: 0.0004589557647705078
ell 199, elapsed: 0.00045990943908691406
ell 198, elapsed: 0.00045299530029296875
ell 197, elapsed: 0.00047779083251953125
ell 196, elapsed: 0.0004410743713378906
ell 195, elapsed: 0.00046515464782714844
ell 194, elapsed: 0.0004699230194091797
ell 193, elapsed: 0.0004608631134033203
ell 192, elapsed: 0.00046515464782714844
ell 191, elapsed: 0.0004019737243652344
ell 190, elapsed: 0.0004329681396484375
ell 189, elapsed: 0.0004780292510986328
ell 188, elapsed: 0.0004589557647705078
ell 187, elapsed: 0.0004570484161376953
ell 186, elapsed: 0.0004508495330810547
ell 185, elapsed: 0.00045800209045410156
ell 184, elapsed: 0.00044608116149902344
ell 183, elapsed: 0.0004611015319824219
ell 182, elapsed: 0.0004639625549316406
ell 181, elapsed: 0.00045108795166015625
ell 180, elapsed: 0.0004589557647705078
ell 179, elapsed: 0.00045490264892578125
ell 178, elapsed: 0.0004000663757324219
ell 177, elapsed: 0.00041103363037109375
ell 176, elapsed: 0.0004630088806152344
ell 175, elapsed: 0.00045490264892578125
ell 174, elapsed: 0.0004551410675048828
ell 173, elapsed: 0.0004661083221435547
ell 172, elapsed: 0.00040984153747558594
ell 171, elapsed: 0.0004029273986816406
ell 170, elapsed: 0.0004258155822753906
ell 169, elapsed: 0.0004532337188720703
ell 168, elapsed: 0.00045180320739746094
ell 167, elapsed: 0.0004630088806152344
ell 166, elapsed: 0.00045418739318847656
ell 165, elapsed: 0.00046896934509277344
ell 164, elapsed: 0.0004658699035644531
ell 163, elapsed: 0.00045990943908691406
ell 162, elapsed: 0.00045299530029296875
ell 161, elapsed: 0.00045800209045410156
ell 160, elapsed: 0.0004639625549316406
ell 159, elapsed: 0.0004730224609375
ell 158, elapsed: 0.0004699230194091797
ell 157, elapsed: 0.0004680156707763672
ell 156, elapsed: 0.0004551410675048828
ell 155, elapsed: 0.0004210472106933594
ell 154, elapsed: 0.0004010200500488281
ell 153, elapsed: 0.00040912628173828125
ell 152, elapsed: 0.00043392181396484375
ell 151, elapsed: 0.0004570484161376953
ell 150, elapsed: 0.0004589557647705078
ell 149, elapsed: 0.0005087852478027344
ell 148, elapsed: 0.0004379749298095703
ell 147, elapsed: 0.0004661083221435547
ell 146, elapsed: 0.0004570484161376953
ell 145, elapsed: 0.0005409717559814453
ell 144, elapsed: 0.0005109310150146484
ell 143, elapsed: 0.0004971027374267578
ell 142, elapsed: 0.0005059242248535156
ell 141, elapsed: 0.00047898292541503906
ell 140, elapsed: 0.00047516822814941406
ell 139, elapsed: 0.0004930496215820312
ell 138, elapsed: 0.0005068778991699219
ell 137, elapsed: 0.0004911422729492188
ell 136, elapsed: 0.0004999637603759766
ell 135, elapsed: 0.0005390644073486328
ell 134, elapsed: 0.0005259513854980469
ell 133, elapsed: 0.0005249977111816406
ell 132, elapsed: 0.0005161762237548828
ell 131, elapsed: 0.0005190372467041016
ell 130, elapsed: 0.00049591064453125
ell 129, elapsed: 0.0004830360412597656
ell 128, elapsed: 0.0005040168762207031
ell 127, elapsed: 0.0006079673767089844
ell 126, elapsed: 0.0005598068237304688
ell 125, elapsed: 0.0004711151123046875
ell 124, elapsed: 0.0004849433898925781
ell 123, elapsed: 0.00045800209045410156
ell 122, elapsed: 0.0005178451538085938
ell 121, elapsed: 0.000514984130859375
ell 120, elapsed: 0.0005159378051757812
ell 119, elapsed: 0.0005137920379638672
ell 118, elapsed: 0.0004930496215820312
ell 117, elapsed: 0.00045299530029296875
ell 116, elapsed: 0.00046706199645996094
ell 115, elapsed: 0.0003979206085205078
ell 114, elapsed: 0.00041103363037109375
ell 113, elapsed: 0.0004589557647705078
ell 112, elapsed: 0.000453948974609375
ell 111, elapsed: 0.0004489421844482422
ell 110, elapsed: 0.00045299530029296875
ell 109, elapsed: 0.0003960132598876953
ell 108, elapsed: 0.000431060791015625
ell 107, elapsed: 0.0004470348358154297
ell 106, elapsed: 0.0004489421844482422
ell 105, elapsed: 0.0004420280456542969
ell 104, elapsed: 0.0004050731658935547
ell 103, elapsed: 0.0004000663757324219
ell 102, elapsed: 0.00041103363037109375
ell 101, elapsed: 0.0004000663757324219
ell 100, elapsed: 0.00040793418884277344
ell 99, elapsed: 0.0004029273986816406
ell 98, elapsed: 0.0004391670227050781
ell 97, elapsed: 0.00045490264892578125
ell 96, elapsed: 0.00040602684020996094
ell 95, elapsed: 0.0003998279571533203
ell 94, elapsed: 0.0003998279571533203
ell 93, elapsed: 0.0004239082336425781
ell 92, elapsed: 0.0004029273986816406
ell 91, elapsed: 0.00040602684020996094
ell 90, elapsed: 0.00039696693420410156
ell 89, elapsed: 0.0003941059112548828
ell 88, elapsed: 0.0004470348358154297
ell 87, elapsed: 0.00044989585876464844
ell 86, elapsed: 0.0004038810729980469
ell 85, elapsed: 0.0004088878631591797
ell 84, elapsed: 0.0004010200500488281
ell 83, elapsed: 0.00044608116149902344
ell 82, elapsed: 0.00045490264892578125
ell 81, elapsed: 0.0004069805145263672
ell 80, elapsed: 0.00039696693420410156
ell 79, elapsed: 0.0004029273986816406
ell 78, elapsed: 0.0004551410675048828
ell 77, elapsed: 0.00045490264892578125
ell 76, elapsed: 0.00041794776916503906
ell 75, elapsed: 0.0003998279571533203
ell 74, elapsed: 0.0004010200500488281
ell 73, elapsed: 0.0003981590270996094
ell 72, elapsed: 0.00042891502380371094
ell 71, elapsed: 0.00046706199645996094
ell 70, elapsed: 0.0003979206085205078
ell 69, elapsed: 0.0004029273986816406
ell 68, elapsed: 0.0004010200500488281
ell 67, elapsed: 0.0004150867462158203
ell 66, elapsed: 0.0003991127014160156
ell 65, elapsed: 0.0004551410675048828
ell 64, elapsed: 0.0004630088806152344
ell 63, elapsed: 0.0003991127014160156
ell 62, elapsed: 0.0004019737243652344
ell 61, elapsed: 0.00039696693420410156
ell 60, elapsed: 0.0003991127014160156
ell 59, elapsed: 0.00041604042053222656
ell 58, elapsed: 0.0004000663757324219
ell 57, elapsed: 0.0004010200500488281
ell 56, elapsed: 0.0004019737243652344
ell 55, elapsed: 0.0004010200500488281
ell 54, elapsed: 0.00040411949157714844
ell 53, elapsed: 0.0003960132598876953
ell 52, elapsed: 0.0004050731658935547
ell 51, elapsed: 0.00039887428283691406
ell 50, elapsed: 0.0004119873046875
ell 49, elapsed: 0.00043487548828125
ell 48, elapsed: 0.0004608631134033203
ell 47, elapsed: 0.0004589557647705078
ell 46, elapsed: 0.0003941059112548828
ell 45, elapsed: 0.00039887428283691406
ell 44, elapsed: 0.0004038810729980469
ell 43, elapsed: 0.0003960132598876953
ell 42, elapsed: 0.0004019737243652344
ell 41, elapsed: 0.0004069805145263672
ell 40, elapsed: 0.0004038810729980469
ell 39, elapsed: 0.0004069805145263672
ell 38, elapsed: 0.0004029273986816406
ell 37, elapsed: 0.0003979206085205078
ell 36, elapsed: 0.0003981590270996094
ell 35, elapsed: 0.00040793418884277344
ell 34, elapsed: 0.0004029273986816406
ell 33, elapsed: 0.000408172607421875
ell 32, elapsed: 0.0004191398620605469
ell 31, elapsed: 0.0003981590270996094
ell 30, elapsed: 0.0003998279571533203
ell 29, elapsed: 0.00044417381286621094
ell 28, elapsed: 0.0004620552062988281
ell 27, elapsed: 0.00044798851013183594
ell 26, elapsed: 0.0003960132598876953
ell 25, elapsed: 0.0004019737243652344
ell 24, elapsed: 0.0003972053527832031
ell 23, elapsed: 0.0004189014434814453
ell 22, elapsed: 0.0004088878631591797
ell 21, elapsed: 0.0004029273986816406
ell 20, elapsed: 0.0004010200500488281
ell 19, elapsed: 0.0004019737243652344
ell 18, elapsed: 0.00039505958557128906
ell 17, elapsed: 0.0004069805145263672
ell 16, elapsed: 0.00039696693420410156
ell 15, elapsed: 0.0004000663757324219
ell 14, elapsed: 0.00040793418884277344
ell 13, elapsed: 0.0004019737243652344
ell 12, elapsed: 0.00039696693420410156
ell 11, elapsed: 0.00040078163146972656
ell 10, elapsed: 0.0004019737243652344
ell 9, elapsed: 0.0003979206085205078
ell 8, elapsed: 0.0004000663757324219
ell 7, elapsed: 0.0004010200500488281
ell 6, elapsed: 0.00044608116149902344
ell 5, elapsed: 0.0004749298095703125
ell 4, elapsed: 0.0004029273986816406
ell 3, elapsed: 0.0004057884216308594
ell 2, elapsed: 0.0004000663757324219
ell 1, elapsed: 0.00040411949157714844
ell 0, elapsed: 0.0004000663757324219
  0.679934 seconds (103.52 k allocations: 3.968 MiB)
elapsed: 0.0005040168762207031
step:          0.06409 sec (0 allocations: 0 byte, 0.0% gc time)
swapping:      0.000654 sec (0 allocations: 0 byte, 0.0% gc time)
calc_Mellell!: 0.010255 sec (0 allocations: 0 byte, 0.0% gc time)
  t0 :  0.002112 sec (0 allocations: 0 byte, 0.0% gc time)
  tm2 : 0.090696 sec (0 allocations: 0 byte, 0.0% gc time)
  tm2s: 0.001405 sec (0 allocations: 0 byte, 0.0% gc time)
  tm4 : 0.259543 sec (0 allocations: 0 byte, 0.0% gc time)
  tp2 : 0.0 sec (0 allocations: 0 byte, 0.0% gc time)
  tp2s: 0.0 sec (0 allocations: 0 byte, 0.0% gc time)
  tp4 : 0.0 sec (0 allocations: 0 byte, 0.0% gc time)
calc_wtdll!:   0.389831 sec (9.9 k allocations: 1.047 MB, 0.0% gc time)
calc_wljj!:    0.038848 sec (689 allocations: 10.766 KB, 0.0% gc time)
mult_prefac!:  0.0 sec (0 allocations: 0 byte, 0.0% gc time)
convert:       0.0 sec (0 allocations: 0 byte, 0.0% gc time)
write:         0.042187 sec (0 allocations: 0 byte, 0.0% gc time)
test_rand_2f1: 0.0 sec (0 allocations: 0 byte, 0.0% gc time)
Closing outfile out/Ml21-cache.bin...   0.000006 seconds
  0.000355 seconds (36 allocations: 27.953 KiB)
make_phi():   0.002606 seconds (8.18 k allocations: 237.844 KiB)
  0.202085 seconds (141.90 k allocations: 3.483 MiB)
tskip:       0.001016 sec (0 allocations: 0 byte, 0.0% gc time)
tread:       0.026653 sec (17 allocations: 10.641 KB, 0.0% gc time)
tmultphi:    0.020349 sec (0 allocations: 0 byte, 0.0% gc time)
tbrfft:      0.045176 sec (0 allocations: 0 byte, 0.0% gc time)
tmultprefac: 0.045961 sec (0 allocations: 0 byte, 0.0% gc time)
toutfunc:    0.059328 sec (127.507 k allocations: 2.312 MB, 0.0% gc time)
Testing R=1.0 ... passed
Calculating fmax: 
  dlrec    = 4
  dlrecRg1 = -4
  q=1.1, R=0.9:	  0.445893 seconds (105.76 k allocations: 15.287 MiB)

  0.446171 seconds (105.99 k allocations: 15.324 MiB)
ℓ = 1202
Δℓ = 4
ΔℓRg1 = -4
N = 1600
q = 1.1
kmin = 1.0e-5
kmax = 100000.00000000004
χ0 = 0.023029999999999995
RR = RR.tsv
ℓmax = ℓmax.bin
f21 = f21.bin
kmin = 1.0e-5
kmax = 100000.0
dlrec    = 4
dlrecRg1 = -4
Output size: 5741568 bytes = 0.005347251892089844 GiB
Output size: 51264 bytes = 4.774332046508789e-5 GiB
Reading 'out/F21EllCache'...   0.001173 seconds (197 allocations: 84.203 KiB)
ellmax: 1202
lmaxcache: 1202
fell[:,1,1] = ComplexF64[1.3482014726274674e-57 - 3.302141236118086e-73im, 1.357860004724329e-57 - 3.3257978169518355e-73im]
ell 1202, elapsed: 2.8133392333984375e-5
ell 1201, elapsed: 0.0004858970642089844
ell 1200, elapsed: 0.00043511390686035156
ell 1199, elapsed: 0.00043487548828125
ell 1198, elapsed: 0.0004360675811767578
ell 1002, elapsed: 0.010589122772216797
ell 1001, elapsed: 0.0003609657287597656
ell 1000, elapsed: 0.00034880638122558594
ell 999, elapsed: 0.00034499168395996094
ell 998, elapsed: 0.0003440380096435547
ell 902, elapsed: 0.005246162414550781
ell 901, elapsed: 0.0003521442413330078
ell 900, elapsed: 0.00034689903259277344
ell 899, elapsed: 0.00034308433532714844
ell 898, elapsed: 0.00034499168395996094
ell 802, elapsed: 0.005320072174072266
ell 801, elapsed: 0.0003521442413330078
ell 800, elapsed: 0.0003559589385986328
ell 799, elapsed: 0.0003409385681152344
ell 798, elapsed: 0.0003440380096435547
ell 702, elapsed: 0.005350828170776367
ell 701, elapsed: 0.00035309791564941406
ell 700, elapsed: 0.00034499168395996094
ell 699, elapsed: 0.0003509521484375
ell 698, elapsed: 0.0003590583801269531
ell 602, elapsed: 0.0053598880767822266
ell 601, elapsed: 0.00035500526428222656
ell 600, elapsed: 0.0003440380096435547
ell 599, elapsed: 0.0003399848937988281
ell 598, elapsed: 0.0003409385681152344
ell 502, elapsed: 0.005240201950073242
ell 501, elapsed: 0.00034999847412109375
ell 500, elapsed: 0.0003399848937988281
ell 499, elapsed: 0.0003418922424316406
ell 498, elapsed: 0.0003409385681152344
ell 402, elapsed: 0.005246877670288086
ell 401, elapsed: 0.00034499168395996094
ell 400, elapsed: 0.0003390312194824219
ell 399, elapsed: 0.000392913818359375
ell 398, elapsed: 0.00039696693420410156
ell 302, elapsed: 0.005381107330322266
ell 301, elapsed: 0.0003490447998046875
ell 300, elapsed: 0.0003437995910644531
ell 299, elapsed: 0.0003418922424316406
ell 298, elapsed: 0.0003380775451660156
ell 202, elapsed: 0.005594015121459961
ell 201, elapsed: 0.0003459453582763672
ell 200, elapsed: 0.00038695335388183594
ell 199, elapsed: 0.00038504600524902344
ell 198, elapsed: 0.0003540515899658203
ell 152, elapsed: 0.0028221607208251953
ell 151, elapsed: 0.0003428459167480469
ell 150, elapsed: 0.0003409385681152344
ell 149, elapsed: 0.0003750324249267578
ell 148, elapsed: 0.0003840923309326172
ell 127, elapsed: 0.001569986343383789
ell 126, elapsed: 0.0003399848937988281
ell 125, elapsed: 0.0003390312194824219
ell 124, elapsed: 0.0003380775451660156
ell 123, elapsed: 0.0003390312194824219
ell 114, elapsed: 0.0008230209350585938
ell 113, elapsed: 0.00043511390686035156
ell 112, elapsed: 0.00036597251892089844
ell 111, elapsed: 0.0003509521484375
ell 110, elapsed: 0.0003399848937988281
ell 102, elapsed: 0.0007579326629638672
ell 101, elapsed: 0.0003371238708496094
ell 100, elapsed: 0.00033593177795410156
ell 99, elapsed: 0.0003361701965332031
ell 98, elapsed: 0.0003390312194824219
ell 97, elapsed: 0.0005600452423095703
ell 96, elapsed: 0.0004639625549316406
ell 95, elapsed: 0.0004069805145263672
ell 94, elapsed: 0.0003979206085205078
ell 93, elapsed: 0.0003979206085205078
ell 92, elapsed: 0.0004050731658935547
ell 91, elapsed: 0.0003941059112548828
ell 90, elapsed: 0.0004019737243652344
ell 89, elapsed: 0.0003960132598876953
ell 88, elapsed: 0.0005049705505371094
ell 87, elapsed: 0.00043082237243652344
ell 86, elapsed: 0.00039887428283691406
ell 85, elapsed: 0.0004031658172607422
ell 84, elapsed: 0.0004019737243652344
ell 83, elapsed: 0.00039696693420410156
ell 82, elapsed: 0.00040602684020996094
ell 81, elapsed: 0.0003960132598876953
ell 80, elapsed: 0.0004010200500488281
ell 79, elapsed: 0.0005071163177490234
ell 78, elapsed: 0.0004239082336425781
ell 77, elapsed: 0.00044608116149902344
ell 76, elapsed: 0.0004639625549316406
ell 75, elapsed: 0.0004458427429199219
ell 74, elapsed: 0.0004029273986816406
ell 73, elapsed: 0.0004000663757324219
ell 72, elapsed: 0.0004000663757324219
ell 71, elapsed: 0.00043392181396484375
ell 70, elapsed: 0.00043511390686035156
ell 69, elapsed: 0.00039696693420410156
ell 68, elapsed: 0.0004019737243652344
ell 67, elapsed: 0.00039696693420410156
ell 66, elapsed: 0.0004010200500488281
ell 65, elapsed: 0.00039696693420410156
ell 64, elapsed: 0.00039887428283691406
ell 63, elapsed: 0.0004000663757324219
ell 62, elapsed: 0.0005130767822265625
ell 61, elapsed: 0.00042510032653808594
ell 60, elapsed: 0.0004019737243652344
ell 59, elapsed: 0.0003991127014160156
ell 58, elapsed: 0.0004010200500488281
ell 57, elapsed: 0.0004010200500488281
ell 56, elapsed: 0.0003960132598876953
ell 55, elapsed: 0.00045013427734375
ell 54, elapsed: 0.0005409717559814453
ell 53, elapsed: 0.0005209445953369141
ell 52, elapsed: 0.00044083595275878906
ell 51, elapsed: 0.00045418739318847656
ell 50, elapsed: 0.0004439353942871094
ell 49, elapsed: 0.0004570484161376953
ell 48, elapsed: 0.0004711151123046875
ell 47, elapsed: 0.0004830360412597656
ell 46, elapsed: 0.0004420280456542969
ell 45, elapsed: 0.0004470348358154297
ell 44, elapsed: 0.00045013427734375
ell 43, elapsed: 0.00045108795166015625
ell 42, elapsed: 0.0004391670227050781
ell 41, elapsed: 0.00047898292541503906
ell 40, elapsed: 0.00045609474182128906
ell 39, elapsed: 0.0004360675811767578
ell 38, elapsed: 0.0004410743713378906
ell 37, elapsed: 0.0004379749298095703
ell 36, elapsed: 0.0004520416259765625
ell 35, elapsed: 0.00046896934509277344
ell 34, elapsed: 0.0004608631134033203
ell 33, elapsed: 0.0004088878631591797
ell 32, elapsed: 0.0003991127014160156
ell 31, elapsed: 0.0004019737243652344
ell 30, elapsed: 0.0004050731658935547
ell 29, elapsed: 0.0004000663757324219
ell 28, elapsed: 0.0004048347473144531
ell 27, elapsed: 0.0003960132598876953
ell 26, elapsed: 0.0005049705505371094
ell 25, elapsed: 0.00041604042053222656
ell 24, elapsed: 0.0003998279571533203
ell 23, elapsed: 0.0004000663757324219
ell 22, elapsed: 0.0003979206085205078
ell 21, elapsed: 0.0004019737243652344
ell 20, elapsed: 0.0004000663757324219
ell 19, elapsed: 0.00039696693420410156
ell 18, elapsed: 0.0004050731658935547
ell 17, elapsed: 0.0004329681396484375
ell 16, elapsed: 0.0004169940948486328
ell 15, elapsed: 0.00039696693420410156
ell 14, elapsed: 0.0004010200500488281
ell 13, elapsed: 0.0004229545593261719
ell 12, elapsed: 0.00045108795166015625
ell 11, elapsed: 0.0004639625549316406
ell 10, elapsed: 0.0004391670227050781
ell 9, elapsed: 0.0005011558532714844
ell 8, elapsed: 0.0004279613494873047
ell 7, elapsed: 0.0003960132598876953
ell 6, elapsed: 0.00039887428283691406
ell 5, elapsed: 0.000392913818359375
ell 4, elapsed: 0.0003981590270996094
ell 3, elapsed: 0.0004010200500488281
ell 2, elapsed: 0.00039315223693847656
ell 1, elapsed: 0.0003981590270996094
ell 0, elapsed: 0.0005221366882324219
  0.132094 seconds (19.61 k allocations: 846.266 KiB)
elapsed: 0.0004961490631103516
step:          0.059904 sec (0 allocations: 0 byte, 0.0% gc time)
swapping:      0.000457 sec (0 allocations: 0 byte, 0.0% gc time)
calc_Mellell!: 0.00133 sec (0 allocations: 0 byte, 0.0% gc time)
  t0 :  0.000363 sec (0 allocations: 0 byte, 0.0% gc time)
  tm2 : 0.012169 sec (0 allocations: 0 byte, 0.0% gc time)
  tm2s: 0.000256 sec (0 allocations: 0 byte, 0.0% gc time)
  tm4 : 0.034237 sec (0 allocations: 0 byte, 0.0% gc time)
  tp2 : 0.0 sec (0 allocations: 0 byte, 0.0% gc time)
  tp2s: 0.0 sec (0 allocations: 0 byte, 0.0% gc time)
  tp4 : 0.0 sec (0 allocations: 0 byte, 0.0% gc time)
calc_wtdll!:   0.047502 sec (1.344 k allocations: 147.0 KB, 0.0% gc time)
calc_wljj!:    0.003794 sec (6 allocations: 96 byte, 0.0% gc time)
mult_prefac!:  0.0 sec (0 allocations: 0 byte, 0.0% gc time)
convert:       0.0 sec (0 allocations: 0 byte, 0.0% gc time)
write:         0.003744 sec (0 allocations: 0 byte, 0.0% gc time)
test_rand_2f1: 0.0 sec (0 allocations: 0 byte, 0.0% gc time)
Closing outfile out/Ml21-cache.bin...   0.000005 seconds
  0.000260 seconds (36 allocations: 27.953 KiB)
make_phi():   0.002704 seconds (8.18 k allocations: 237.844 KiB)
  0.019140 seconds (11.65 k allocations: 308.688 KiB)
tskip:       2.0e-5 sec (0 allocations: 0 byte, 0.0% gc time)
tread:       0.002609 sec (17 allocations: 2.125 KB, 0.0% gc time)
tmultphi:    0.00191 sec (0 allocations: 0 byte, 0.0% gc time)
tbrfft:      0.004316 sec (0 allocations: 0 byte, 0.0% gc time)
tmultprefac: 0.004436 sec (0 allocations: 0 byte, 0.0% gc time)
toutfunc:    0.005577 sec (10.304 k allocations: 196.0 KB, 0.0% gc time)
Testing R=0.9 ... passed
Calculating fmax: 
  dlrec    = 4
  dlrecRg1 = -4
  q=1.1, R=0.8:	  0.380407 seconds (103.25 k allocations: 14.856 MiB)

  0.380779 seconds (103.48 k allocations: 14.893 MiB)
ℓ = 1202
Δℓ = 4
ΔℓRg1 = -4
N = 1600
q = 1.1
kmin = 1.0e-5
kmax = 100000.00000000004
χ0 = 0.023029999999999995
RR = RR.tsv
ℓmax = ℓmax.bin
f21 = f21.bin
kmin = 1.0e-5
kmax = 100000.0
dlrec    = 4
dlrecRg1 = -4
Output size: 5741568 bytes = 0.005347251892089844 GiB
Output size: 51264 bytes = 4.774332046508789e-5 GiB
Reading 'out/F21EllCache'...   0.001098 seconds (197 allocations: 84.203 KiB)
ellmax: 1202
lmaxcache: 1202
fell[:,1,1] = ComplexF64[7.519068145690986e-120 - 1.8416405474382574e-135im, 7.541664537386155e-120 - 1.847175067190611e-135im]
ell 1202, elapsed: 0.00014591217041015625
ell 1201, elapsed: 0.0004918575286865234
ell 1200, elapsed: 0.0004260540008544922
ell 1199, elapsed: 0.0004189014434814453
ell 1198, elapsed: 0.0004851818084716797
ell 1002, elapsed: 0.010350942611694336
ell 1001, elapsed: 0.0004131793975830078
ell 1000, elapsed: 0.0003960132598876953
ell 999, elapsed: 0.0003819465637207031
ell 998, elapsed: 0.00038886070251464844
ell 902, elapsed: 0.005321025848388672
ell 901, elapsed: 0.0004150867462158203
ell 900, elapsed: 0.00038695335388183594
ell 899, elapsed: 0.0003859996795654297
ell 898, elapsed: 0.0003809928894042969
ell 802, elapsed: 0.005307912826538086
ell 801, elapsed: 0.0004000663757324219
ell 800, elapsed: 0.0004010200500488281
ell 799, elapsed: 0.00038695335388183594
ell 798, elapsed: 0.00039696693420410156
ell 702, elapsed: 0.0054399967193603516
ell 701, elapsed: 0.00040411949157714844
ell 700, elapsed: 0.0003898143768310547
ell 699, elapsed: 0.00039196014404296875
ell 698, elapsed: 0.0003859996795654297
ell 602, elapsed: 0.005362033843994141
ell 601, elapsed: 0.00045299530029296875
ell 600, elapsed: 0.0003981590270996094
ell 599, elapsed: 0.00039196014404296875
ell 598, elapsed: 0.0003960132598876953
ell 502, elapsed: 0.0052831172943115234
ell 501, elapsed: 0.0003631114959716797
ell 500, elapsed: 0.00039196014404296875
ell 499, elapsed: 0.00039386749267578125
ell 498, elapsed: 0.00039196014404296875
ell 402, elapsed: 0.005255222320556641
ell 401, elapsed: 0.0004119873046875
ell 400, elapsed: 0.0004029273986816406
ell 399, elapsed: 0.00038695335388183594
ell 398, elapsed: 0.0003819465637207031
ell 302, elapsed: 0.005319118499755859
ell 301, elapsed: 0.0004208087921142578
ell 300, elapsed: 0.00039887428283691406
ell 299, elapsed: 0.00047707557678222656
ell 298, elapsed: 0.0005371570587158203
ell 202, elapsed: 0.005560874938964844
ell 201, elapsed: 0.0004520416259765625
ell 200, elapsed: 0.0004298686981201172
ell 199, elapsed: 0.0004260540008544922
ell 198, elapsed: 0.00043487548828125
ell 152, elapsed: 0.002843141555786133
ell 151, elapsed: 0.0004119873046875
ell 150, elapsed: 0.0004069805145263672
ell 149, elapsed: 0.0004317760467529297
ell 148, elapsed: 0.0004131793975830078
ell 127, elapsed: 0.0015721321105957031
ell 126, elapsed: 0.00041604042053222656
ell 125, elapsed: 0.00041294097900390625
ell 124, elapsed: 0.0004229545593261719
ell 123, elapsed: 0.00041604042053222656
ell 114, elapsed: 0.0009560585021972656
ell 113, elapsed: 0.00040602684020996094
ell 112, elapsed: 0.00041413307189941406
ell 111, elapsed: 0.00040984153747558594
ell 110, elapsed: 0.0004169940948486328
ell 102, elapsed: 0.0009119510650634766
ell 101, elapsed: 0.0004200935363769531
ell 100, elapsed: 0.0004169940948486328
ell 99, elapsed: 0.0004100799560546875
ell 98, elapsed: 0.0004169940948486328
ell 97, elapsed: 0.0004949569702148438
ell 96, elapsed: 0.00048804283142089844
ell 95, elapsed: 0.0005052089691162109
ell 94, elapsed: 0.00047588348388671875
ell 93, elapsed: 0.0004811286926269531
ell 92, elapsed: 0.00046896934509277344
ell 91, elapsed: 0.0005102157592773438
ell 90, elapsed: 0.0004761219024658203
ell 89, elapsed: 0.00047779083251953125
ell 88, elapsed: 0.0004930496215820312
ell 87, elapsed: 0.0004830360412597656
ell 86, elapsed: 0.0005049705505371094
ell 85, elapsed: 0.0004839897155761719
ell 84, elapsed: 0.00048804283142089844
ell 83, elapsed: 0.0004830360412597656
ell 82, elapsed: 0.0004818439483642578
ell 81, elapsed: 0.0004999637603759766
ell 80, elapsed: 0.0004930496215820312
ell 79, elapsed: 0.0004839897155761719
ell 78, elapsed: 0.00047898292541503906
ell 77, elapsed: 0.0004899501800537109
ell 76, elapsed: 0.0004930496215820312
ell 75, elapsed: 0.0004849433898925781
ell 74, elapsed: 0.0005159378051757812
ell 73, elapsed: 0.0004961490631103516
ell 72, elapsed: 0.0004940032958984375
ell 71, elapsed: 0.0004940032958984375
ell 70, elapsed: 0.0005052089691162109
ell 69, elapsed: 0.0005168914794921875
ell 68, elapsed: 0.0004940032958984375
ell 67, elapsed: 0.0005090236663818359
ell 66, elapsed: 0.0005040168762207031
ell 65, elapsed: 0.0004949569702148438
ell 64, elapsed: 0.0005030632019042969
ell 63, elapsed: 0.0005030632019042969
ell 62, elapsed: 0.0004949569702148438
ell 61, elapsed: 0.0004999637603759766
ell 60, elapsed: 0.0005021095275878906
ell 59, elapsed: 0.0005049705505371094
ell 58, elapsed: 0.0005021095275878906
ell 57, elapsed: 0.0005021095275878906
ell 56, elapsed: 0.0005009174346923828
ell 55, elapsed: 0.0005040168762207031
ell 54, elapsed: 0.0005059242248535156
ell 53, elapsed: 0.0005180835723876953
ell 52, elapsed: 0.0005137920379638672
ell 51, elapsed: 0.0004839897155761719
ell 50, elapsed: 0.0004730224609375
ell 49, elapsed: 0.0004870891571044922
ell 48, elapsed: 0.0004949569702148438
[...]
ell 789, elapsed: 0.0007159709930419922
ell 788, elapsed: 0.0007369518280029297
ell 782, elapsed: 0.0014650821685791016
ell 781, elapsed: 0.0007388591766357422
ell 780, elapsed: 0.0007190704345703125
ell 779, elapsed: 0.0007281303405761719
ell 778, elapsed: 0.0008299350738525391
ell 772, elapsed: 0.0013959407806396484
ell 771, elapsed: 0.0007379055023193359
ell 770, elapsed: 0.00074005126953125
ell 769, elapsed: 0.0007500648498535156
ell 768, elapsed: 0.0007421970367431641
ell 762, elapsed: 0.0013630390167236328
ell 761, elapsed: 0.0007429122924804688
ell 760, elapsed: 0.0007281303405761719
ell 759, elapsed: 0.0008530616760253906
ell 758, elapsed: 0.0007660388946533203
ell 752, elapsed: 0.0014040470123291016
ell 751, elapsed: 0.0007448196411132812
ell 750, elapsed: 0.0008099079132080078
ell 749, elapsed: 0.0007190704345703125
ell 748, elapsed: 0.0007319450378417969
ell 742, elapsed: 0.0013349056243896484
ell 741, elapsed: 0.0008170604705810547
ell 740, elapsed: 0.0007178783416748047
ell 739, elapsed: 0.0007219314575195312
ell 738, elapsed: 0.0007410049438476562
ell 732, elapsed: 0.001374959945678711
ell 731, elapsed: 0.0007450580596923828
ell 730, elapsed: 0.0007390975952148438
ell 729, elapsed: 0.0007288455963134766
ell 728, elapsed: 0.0007469654083251953
ell 722, elapsed: 0.0014328956604003906
ell 721, elapsed: 0.0007312297821044922
ell 720, elapsed: 0.0007541179656982422
ell 719, elapsed: 0.0007350444793701172
ell 718, elapsed: 0.000782012939453125
ell 712, elapsed: 0.0013589859008789062
ell 711, elapsed: 0.0007300376892089844
ell 710, elapsed: 0.0007309913635253906
ell 709, elapsed: 0.0008120536804199219
ell 708, elapsed: 0.0007510185241699219
ell 702, elapsed: 0.0014030933380126953
ell 701, elapsed: 0.0007410049438476562
ell 700, elapsed: 0.0007059574127197266
ell 699, elapsed: 0.0007078647613525391
ell 698, elapsed: 0.0007381439208984375
ell 692, elapsed: 0.0013668537139892578
ell 691, elapsed: 0.0007350444793701172
ell 690, elapsed: 0.0007388591766357422
ell 689, elapsed: 0.0007100105285644531
ell 688, elapsed: 0.0007309913635253906
ell 682, elapsed: 0.0013859272003173828
ell 681, elapsed: 0.0007271766662597656
ell 680, elapsed: 0.0007309913635253906
ell 679, elapsed: 0.0007328987121582031
ell 678, elapsed: 0.0007460117340087891
ell 672, elapsed: 0.0013570785522460938
ell 671, elapsed: 0.0007398128509521484
ell 670, elapsed: 0.00074005126953125
ell 669, elapsed: 0.0007390975952148438
ell 668, elapsed: 0.0007359981536865234
ell 662, elapsed: 0.0013718605041503906
ell 661, elapsed: 0.0007259845733642578
ell 660, elapsed: 0.0007419586181640625
ell 659, elapsed: 0.0007121562957763672
ell 658, elapsed: 0.0007371902465820312
ell 652, elapsed: 0.001394033432006836
ell 651, elapsed: 0.0007288455963134766
ell 650, elapsed: 0.0007319450378417969
ell 649, elapsed: 0.000720977783203125
ell 648, elapsed: 0.0007569789886474609
ell 642, elapsed: 0.0013461112976074219
ell 641, elapsed: 0.0007238388061523438
ell 640, elapsed: 0.00074005126953125
ell 639, elapsed: 0.0007519721984863281
ell 638, elapsed: 0.0007441043853759766
ell 632, elapsed: 0.0013549327850341797
ell 631, elapsed: 0.0007219314575195312
ell 630, elapsed: 0.000759124755859375
ell 629, elapsed: 0.0007379055023193359
ell 628, elapsed: 0.0007519721984863281
ell 622, elapsed: 0.0013930797576904297
ell 621, elapsed: 0.0007381439208984375
ell 620, elapsed: 0.0007429122924804688
ell 619, elapsed: 0.0007350444793701172
ell 618, elapsed: 0.0007359981536865234
ell 612, elapsed: 0.0014090538024902344
ell 611, elapsed: 0.0007801055908203125
ell 610, elapsed: 0.0007390975952148438
ell 609, elapsed: 0.0007297992706298828
ell 608, elapsed: 0.0007421970367431641
ell 602, elapsed: 0.0014290809631347656
ell 601, elapsed: 0.0007619857788085938
ell 600, elapsed: 0.0007388591766357422
ell 599, elapsed: 0.0007450580596923828
ell 598, elapsed: 0.0007550716400146484
ell 592, elapsed: 0.0014390945434570312
ell 591, elapsed: 0.0007410049438476562
ell 590, elapsed: 0.0007479190826416016
ell 589, elapsed: 0.0007550716400146484
ell 588, elapsed: 0.0007770061492919922
ell 582, elapsed: 0.0014748573303222656
ell 581, elapsed: 0.0007407665252685547
ell 580, elapsed: 0.0007491111755371094
ell 579, elapsed: 0.0007607936859130859
ell 578, elapsed: 0.0007669925689697266
ell 572, elapsed: 0.0014379024505615234
ell 571, elapsed: 0.0007109642028808594
ell 570, elapsed: 0.0007479190826416016
ell 569, elapsed: 0.000759124755859375
ell 568, elapsed: 0.0007269382476806641
ell 562, elapsed: 0.001341104507446289
ell 561, elapsed: 0.0007450580596923828
ell 560, elapsed: 0.0007429122924804688
ell 559, elapsed: 0.0007259845733642578
ell 558, elapsed: 0.0007278919219970703
ell 552, elapsed: 0.0013971328735351562
ell 551, elapsed: 0.0007300376892089844
ell 550, elapsed: 0.0007309913635253906
ell 549, elapsed: 0.0007190704345703125
ell 548, elapsed: 0.0007450580596923828
ell 542, elapsed: 0.001360177993774414
ell 541, elapsed: 0.0007297992706298828
ell 540, elapsed: 0.0007281303405761719
ell 539, elapsed: 0.00074005126953125
ell 538, elapsed: 0.0007300376892089844
ell 532, elapsed: 0.001435995101928711
ell 531, elapsed: 0.0007269382476806641
ell 530, elapsed: 0.0007250308990478516
ell 529, elapsed: 0.0007579326629638672
ell 528, elapsed: 0.000804901123046875
ell 522, elapsed: 0.0014171600341796875
ell 521, elapsed: 0.0007369518280029297
ell 520, elapsed: 0.0007269382476806641
ell 519, elapsed: 0.0007381439208984375
ell 518, elapsed: 0.0007190704345703125
ell 512, elapsed: 0.001394033432006836
ell 511, elapsed: 0.0007381439208984375
ell 510, elapsed: 0.0007419586181640625
ell 509, elapsed: 0.0007138252258300781
ell 508, elapsed: 0.0007309913635253906
ell 502, elapsed: 0.0013759136199951172
ell 501, elapsed: 0.0007560253143310547
ell 500, elapsed: 0.0007240772247314453
ell 499, elapsed: 0.0007240772247314453
ell 498, elapsed: 0.0007271766662597656
ell 492, elapsed: 0.0014190673828125
ell 491, elapsed: 0.0007719993591308594
ell 490, elapsed: 0.0007321834564208984
ell 489, elapsed: 0.0007271766662597656
ell 488, elapsed: 0.0007359981536865234
ell 482, elapsed: 0.0013959407806396484
ell 481, elapsed: 0.0007419586181640625
ell 480, elapsed: 0.0007250308990478516
ell 479, elapsed: 0.0007100105285644531
ell 478, elapsed: 0.0007200241088867188
ell 472, elapsed: 0.0014078617095947266
ell 471, elapsed: 0.0007278919219970703
ell 470, elapsed: 0.0007312297821044922
ell 469, elapsed: 0.0007200241088867188
ell 468, elapsed: 0.0007538795471191406
ell 462, elapsed: 0.0014200210571289062
ell 461, elapsed: 0.0007369518280029297
ell 460, elapsed: 0.0007431507110595703
ell 459, elapsed: 0.0007569789886474609
ell 458, elapsed: 0.0007541179656982422
ell 452, elapsed: 0.0020139217376708984
ell 451, elapsed: 0.0007450580596923828
ell 450, elapsed: 0.0007309913635253906
ell 449, elapsed: 0.0007340908050537109
ell 448, elapsed: 0.0007531642913818359
ell 442, elapsed: 0.0014460086822509766
ell 441, elapsed: 0.0008120536804199219
ell 440, elapsed: 0.0007669925689697266
ell 439, elapsed: 0.0007350444793701172
ell 438, elapsed: 0.0007350444793701172
ell 432, elapsed: 0.0014400482177734375
ell 431, elapsed: 0.0007278919219970703
ell 430, elapsed: 0.0007250308990478516
ell 429, elapsed: 0.0007278919219970703
ell 428, elapsed: 0.0007460117340087891
ell 422, elapsed: 0.0014100074768066406
ell 421, elapsed: 0.0007429122924804688
ell 420, elapsed: 0.0007331371307373047
ell 419, elapsed: 0.0007290840148925781
ell 418, elapsed: 0.0007648468017578125
ell 412, elapsed: 0.0013089179992675781
ell 411, elapsed: 0.000743865966796875
ell 410, elapsed: 0.0007271766662597656
ell 409, elapsed: 0.0007450580596923828
ell 408, elapsed: 0.0007309913635253906
ell 402, elapsed: 0.0014369487762451172
ell 401, elapsed: 0.0007419586181640625
ell 400, elapsed: 0.0007522106170654297
ell 399, elapsed: 0.0007309913635253906
ell 398, elapsed: 0.0007410049438476562
ell 392, elapsed: 0.0014200210571289062
ell 391, elapsed: 0.0007860660552978516
ell 390, elapsed: 0.0007510185241699219
ell 389, elapsed: 0.000743865966796875
ell 388, elapsed: 0.0007331371307373047
ell 382, elapsed: 0.0014331340789794922
ell 381, elapsed: 0.0007579326629638672
ell 380, elapsed: 0.0007519721984863281
ell 379, elapsed: 0.0007472038269042969
ell 378, elapsed: 0.0007581710815429688
ell 372, elapsed: 0.0013840198516845703
ell 371, elapsed: 0.0007989406585693359
ell 370, elapsed: 0.0007510185241699219
ell 369, elapsed: 0.0007901191711425781
ell 368, elapsed: 0.0008029937744140625
ell 362, elapsed: 0.0013089179992675781
ell 361, elapsed: 0.0007581710815429688
ell 360, elapsed: 0.0007569789886474609
ell 359, elapsed: 0.0007159709930419922
ell 358, elapsed: 0.0007262229919433594
ell 352, elapsed: 0.0013239383697509766
ell 351, elapsed: 0.0007150173187255859
ell 350, elapsed: 0.0007059574127197266
ell 349, elapsed: 0.0007278919219970703
ell 348, elapsed: 0.0007178783416748047
ell 342, elapsed: 0.0013840198516845703
ell 341, elapsed: 0.0007200241088867188
ell 340, elapsed: 0.0007350444793701172
ell 339, elapsed: 0.0007369518280029297
ell 338, elapsed: 0.0007328987121582031
ell 332, elapsed: 0.001386880874633789
ell 331, elapsed: 0.0007250308990478516
ell 330, elapsed: 0.0007390975952148438
ell 329, elapsed: 0.0007369518280029297
ell 328, elapsed: 0.0007519721984863281
ell 322, elapsed: 0.001355886459350586
ell 321, elapsed: 0.0009050369262695312
ell 320, elapsed: 0.0008938312530517578
ell 319, elapsed: 0.0007121562957763672
ell 318, elapsed: 0.0007290840148925781
ell 312, elapsed: 0.001371145248413086
ell 311, elapsed: 0.0007429122924804688
ell 310, elapsed: 0.0007429122924804688
ell 309, elapsed: 0.0007340908050537109
ell 308, elapsed: 0.0007131099700927734
ell 302, elapsed: 0.0014300346374511719
ell 301, elapsed: 0.0007550716400146484
ell 300, elapsed: 0.0007481575012207031
ell 299, elapsed: 0.0008149147033691406
ell 298, elapsed: 0.0007388591766357422
ell 292, elapsed: 0.0013000965118408203
ell 291, elapsed: 0.0006999969482421875
ell 290, elapsed: 0.0006949901580810547
ell 289, elapsed: 0.00074005126953125
ell 288, elapsed: 0.0007228851318359375
ell 282, elapsed: 0.0012989044189453125
ell 281, elapsed: 0.0007050037384033203
ell 280, elapsed: 0.0007140636444091797
ell 279, elapsed: 0.0007319450378417969
ell 278, elapsed: 0.0007081031799316406
ell 272, elapsed: 0.0012850761413574219
ell 271, elapsed: 0.0006890296936035156
ell 270, elapsed: 0.0007271766662597656
ell 269, elapsed: 0.000701904296875
ell 268, elapsed: 0.0007140636444091797
ell 262, elapsed: 0.0016639232635498047
ell 261, elapsed: 0.0009138584136962891
ell 260, elapsed: 0.0007839202880859375
ell 259, elapsed: 0.0007669925689697266
ell 258, elapsed: 0.0007688999176025391
ell 252, elapsed: 0.0014750957489013672
ell 251, elapsed: 0.0007658004760742188
ell 250, elapsed: 0.0007750988006591797
ell 249, elapsed: 0.0007679462432861328
ell 248, elapsed: 0.0007750988006591797
ell 242, elapsed: 0.0014731884002685547
ell 241, elapsed: 0.0007610321044921875
ell 240, elapsed: 0.0007770061492919922
ell 239, elapsed: 0.0007610321044921875
ell 238, elapsed: 0.0007739067077636719
ell 232, elapsed: 0.0013790130615234375
ell 231, elapsed: 0.0007619857788085938
ell 230, elapsed: 0.0007331371307373047
ell 229, elapsed: 0.0007271766662597656
ell 228, elapsed: 0.0007269382476806641
ell 222, elapsed: 0.0013289451599121094
ell 221, elapsed: 0.0007250308990478516
ell 220, elapsed: 0.0008289813995361328
ell 219, elapsed: 0.0007200241088867188
ell 218, elapsed: 0.00074005126953125
ell 212, elapsed: 0.0013577938079833984
ell 211, elapsed: 0.0009069442749023438
ell 210, elapsed: 0.0007231235504150391
ell 209, elapsed: 0.000720977783203125
ell 208, elapsed: 0.0007441043853759766
ell 202, elapsed: 0.0013659000396728516
ell 201, elapsed: 0.0007331371307373047
ell 200, elapsed: 0.0007388591766357422
ell 199, elapsed: 0.0007350444793701172
ell 198, elapsed: 0.0007290840148925781
ell 192, elapsed: 0.0014188289642333984
ell 191, elapsed: 0.0007390975952148438
ell 190, elapsed: 0.0007410049438476562
ell 189, elapsed: 0.0007300376892089844
ell 188, elapsed: 0.0007309913635253906
ell 182, elapsed: 0.0013649463653564453
ell 181, elapsed: 0.0007460117340087891
ell 180, elapsed: 0.0007319450378417969
ell 179, elapsed: 0.0007231235504150391
ell 178, elapsed: 0.0007479190826416016
ell 172, elapsed: 0.0013930797576904297
ell 171, elapsed: 0.0007600784301757812
ell 170, elapsed: 0.0007531642913818359
ell 169, elapsed: 0.0007529258728027344
ell 168, elapsed: 0.0007519721984863281
ell 162, elapsed: 0.0013430118560791016
ell 161, elapsed: 0.0007288455963134766
ell 160, elapsed: 0.0007579326629638672
ell 159, elapsed: 0.0007188320159912109
ell 158, elapsed: 0.0007390975952148438
ell 152, elapsed: 0.0013887882232666016
ell 151, elapsed: 0.0007259845733642578
ell 150, elapsed: 0.0007309913635253906
ell 149, elapsed: 0.0007319450378417969
ell 148, elapsed: 0.0007429122924804688
ell 142, elapsed: 0.0014100074768066406
ell 141, elapsed: 0.0007770061492919922
ell 140, elapsed: 0.0007350444793701172
ell 139, elapsed: 0.0007441043853759766
ell 138, elapsed: 0.000743865966796875
ell 132, elapsed: 0.0015192031860351562
ell 131, elapsed: 0.0007159709930419922
ell 130, elapsed: 0.0007340908050537109
ell 129, elapsed: 0.0007460117340087891
ell 128, elapsed: 0.0007491111755371094
ell 122, elapsed: 0.001444101333618164
ell 121, elapsed: 0.0007319450378417969
ell 120, elapsed: 0.0007429122924804688
ell 119, elapsed: 0.0007359981536865234
ell 118, elapsed: 0.0008149147033691406
ell 112, elapsed: 0.0014240741729736328
ell 111, elapsed: 0.0007879734039306641
ell 110, elapsed: 0.0007610321044921875
ell 109, elapsed: 0.000762939453125
ell 108, elapsed: 0.0007419586181640625
ell 102, elapsed: 0.0013968944549560547
ell 101, elapsed: 0.00298309326171875
ell 100, elapsed: 0.0031239986419677734
ell 99, elapsed: 0.0031812191009521484
ell 98, elapsed: 0.0030808448791503906
ell 92, elapsed: 0.005999088287353516
ell 91, elapsed: 0.003064870834350586
ell 90, elapsed: 0.003159046173095703
ell 89, elapsed: 0.0029609203338623047
ell 88, elapsed: 0.003165006637573242
ell 82, elapsed: 0.005986928939819336
ell 81, elapsed: 0.0030889511108398438
ell 80, elapsed: 0.0032949447631835938
ell 79, elapsed: 0.0031828880310058594
ell 78, elapsed: 0.0030951499938964844
ell 72, elapsed: 0.005841970443725586
ell 71, elapsed: 0.003014087677001953
ell 70, elapsed: 0.0031371116638183594
ell 69, elapsed: 0.003113985061645508
ell 68, elapsed: 0.0032939910888671875
ell 62, elapsed: 0.005956172943115234
ell 61, elapsed: 0.0031311511993408203
ell 60, elapsed: 0.003362894058227539
ell 59, elapsed: 0.0031290054321289062
ell 58, elapsed: 0.0031549930572509766
ell 52, elapsed: 0.005752086639404297
ell 51, elapsed: 0.003278970718383789
ell 50, elapsed: 0.0032019615173339844
ell 49, elapsed: 0.003091096878051758
ell 48, elapsed: 0.0029969215393066406
ell 42, elapsed: 0.005784034729003906
ell 41, elapsed: 0.0029859542846679688
ell 40, elapsed: 0.0030798912048339844
ell 39, elapsed: 0.0029931068420410156
ell 38, elapsed: 0.0031261444091796875
ell 32, elapsed: 0.005616903305053711
ell 31, elapsed: 0.003206014633178711
ell 30, elapsed: 0.0031201839447021484
ell 29, elapsed: 0.0030150413513183594
ell 28, elapsed: 0.0032019615173339844
ell 22, elapsed: 0.0057828426361083984
ell 21, elapsed: 0.0030241012573242188
ell 20, elapsed: 0.003220081329345703
ell 19, elapsed: 0.002986907958984375
ell 18, elapsed: 0.0029878616333007812
ell 12, elapsed: 0.0056569576263427734
ell 11, elapsed: 0.0029790401458740234
ell 10, elapsed: 0.00315093994140625
ell 9, elapsed: 0.003000974655151367
ell 8, elapsed: 0.0030820369720458984
  0.700360 seconds (97.19 k allocations: 12.613 MiB)
elapsed: 0.0036230087280273438
step:          0.058553 sec (0 allocations: 0 byte, 0.0% gc time)
swapping:      0.000666 sec (0 allocations: 0 byte, 0.0% gc time)
calc_Mellell!: 0.03481 sec (0 allocations: 0 byte, 0.0% gc time)
  t0 :  0.00937 sec (0 allocations: 0 byte, 0.0% gc time)
  tm2 : 0.065592 sec (0 allocations: 0 byte, 0.0% gc time)
  tm2s: 0.007154 sec (0 allocations: 0 byte, 0.0% gc time)
  tm4 : 0.157759 sec (0 allocations: 0 byte, 0.0% gc time)
  tp2 : 0.0 sec (0 allocations: 0 byte, 0.0% gc time)
  tp2s: 0.0 sec (0 allocations: 0 byte, 0.0% gc time)
  tp4 : 0.0 sec (0 allocations: 0 byte, 0.0% gc time)
calc_wtdll!:   0.480488 sec (48.6 k allocations: 11.096 MB, 0.0% gc time)
calc_wljj!:    0.033759 sec (69 allocations: 1.078 KB, 0.0% gc time)
mult_prefac!:  0.0 sec (0 allocations: 0 byte, 0.0% gc time)
convert:       0.0 sec (0 allocations: 0 byte, 0.0% gc time)
write:         0.032573 sec (0 allocations: 0 byte, 0.0% gc time)
test_rand_2f1: 0.0 sec (0 allocations: 0 byte, 0.0% gc time)
Closing outfile out/MlCache/MlCache.bin...   0.000009 seconds
xi, l=0, nu=0:   0.361158 seconds (603.11 k allocations: 32.984 MiB)
xi, l=0, nu=-2:  0.002427 seconds (114 allocations: 148.969 KiB)
Created 'out/xi.tsv'.
  q=1.1, R=0.6:	  0.892658 seconds (264.51 k allocations: 38.097 MiB)
  q=1.1, R=0.7:	  0.800871 seconds (276.48 k allocations: 40.118 MiB, 4.83% gc time)
  q=1.1, R=0.8:	  0.998428 seconds (271.73 k allocations: 39.310 MiB, 1.08% gc time)
  q=1.1, R=0.9:	  1.177081 seconds (266.62 k allocations: 38.459 MiB, 0.66% gc time)
  q=1.1, R=0.998:	 18.736067 seconds (114.96 k allocations: 7.588 MiB)
  q=1.1, R=1.0:	  0.004020 seconds (8.20 k allocations: 704.344 KiB)

ℓ = 1000
Δℓ = 4
ΔℓRg1 = -4
N = 4096
q = 1.1
kmin = 1.0e-5
kmax = 1000.0
χ0 = 0.001
RR = RR.tsv
ℓmax = ℓmax.bin
f21 = f21.bin
kmin = 1.0e-5
kmax = 1000.0
dlrec    = 4
dlrecRg1 = -4
Output size: 1573632 bytes = 0.0014655590057373047 GiB
Output size: 786816 bytes = 0.0007327795028686523 GiB
Reading 'out/F21EllCache'...   0.001306 seconds (198 allocations: 533.078 KiB)
ellmax: 1002
lmaxcache: 1000
fell[:,1,1] = ComplexF64[1.726292812820208e-224 - 4.2281979352226965e-240im, 1.7282693092099638e-224 - 4.233038955177178e-240im]
ell 1002, elapsed: 2.8133392333984375e-5
ell 1001, elapsed: 0.0005769729614257812
ell 1000, elapsed: 0.0008890628814697266
ell 999, elapsed: 0.00551295280456543
ell 998, elapsed: 0.005754947662353516
ell 44, elapsed: 0.730971097946167
ell 43, elapsed: 0.0054569244384765625
ell 42, elapsed: 0.005335092544555664
ell 41, elapsed: 0.00544285774230957
ell 40, elapsed: 0.005454063415527344
  0.772830 seconds (5.06 k allocations: 329.562 KiB)
elapsed: 0.006953001022338867
step:          0.728919 sec (0 allocations: 0 byte, 0.0% gc time)
swapping:      0.000446 sec (0 allocations: 0 byte, 0.0% gc time)
calc_Mellell!: 0.001116 sec (0 allocations: 0 byte, 0.0% gc time)
  t0 :  0.00042 sec (0 allocations: 0 byte, 0.0% gc time)
  tm2 : 0.009493 sec (0 allocations: 0 byte, 0.0% gc time)
  tm2s: 0.000316 sec (0 allocations: 0 byte, 0.0% gc time)
  tm4 : 0.026366 sec (0 allocations: 0 byte, 0.0% gc time)
  tp2 : 0.0 sec (0 allocations: 0 byte, 0.0% gc time)
  tp2s: 0.0 sec (0 allocations: 0 byte, 0.0% gc time)
  tp4 : 0.0 sec (0 allocations: 0 byte, 0.0% gc time)
calc_wtdll!:   0.0368 sec (480 allocations: 52.5 KB, 0.0% gc time)
calc_wljj!:    0.00128 sec (1 allocations: 16 byte, 0.0% gc time)
mult_prefac!:  0.0 sec (0 allocations: 0 byte, 0.0% gc time)
convert:       0.0 sec (0 allocations: 0 byte, 0.0% gc time)
write:         0.000919 sec (0 allocations: 0 byte, 0.0% gc time)
test_rand_2f1: 0.0 sec (0 allocations: 0 byte, 0.0% gc time)
Closing outfile out/MlCache/MlCache.bin...   0.000019 seconds
  0.477099 seconds (38 allocations: 66.859 KiB)
make_phi():   0.010048 seconds (65 allocations: 275.984 KiB)
  0.046024 seconds (11.42 k allocations: 711.851 KiB)
tskip:       1.0e-6 sec (0 allocations: 0 byte, 0.0% gc time)
tread:       0.000809 sec (17 allocations: 1.266 KB, 0.0% gc time)
tmultphi:    0.000471 sec (0 allocations: 0 byte, 0.0% gc time)
tbrfft:      0.001402 sec (0 allocations: 0 byte, 0.0% gc time)
tmultprefac: 0.001136 sec (0 allocations: 0 byte, 0.0% gc time)
toutfunc:    0.000192 sec (0 allocations: 0 byte, 0.0% gc time)
Created 'out/wl42_jj00.tsv'.
Created 'out/wl42_jj02.tsv'.
    Testing TwoFAST tests passed 
