Julia Version 1.6.0-DEV.1063
Commit 93bbe0833b (2020-09-26 14:27 UTC)
Platform Info:
  OS: Linux (x86_64-pc-linux-gnu)
  CPU: Intel(R) Xeon(R) Silver 4114 CPU @ 2.20GHz
  WORD_SIZE: 64
  LIBM: libopenlibm
  LLVM: libLLVM-10.0.1 (ORCJIT, skylake-avx512)
Environment:
  JULIA_DEPOT_PATH = ::/usr/local/share/julia
  JULIA_NUM_THREADS = 2

  Resolving package versions...
  Installed IntelOpenMP_jll ────────────── v2018.0.3+0
  Installed CompilerSupportLibraries_jll ─ v0.3.3+0
  Installed MKL_jll ────────────────────── v2020.2.254+0
  Installed FFTW_jll ───────────────────── v3.3.9+5
  Installed BinaryProvider ─────────────── v0.5.10
  Installed GenericSchur ───────────────── v0.4.0
  Installed ArbNumerics ────────────────── v1.2.1
  Installed Readables ──────────────────── v0.3.3
  Installed Reexport ───────────────────── v0.2.0
  Installed OpenSpecFun_jll ────────────── v0.5.3+3
  Installed GenericSVD ─────────────────── v0.3.0
  Installed TwoFAST ────────────────────── v0.1.3
  Installed AbstractFFTs ───────────────── v0.5.0
  Installed SpecialFunctions ───────────── v0.10.3
  Installed FFTW ───────────────────────── v1.2.4
Updating `~/.julia/environments/v1.6/Project.toml`
  [0dd23c3e] + TwoFAST v0.1.3
Updating `~/.julia/environments/v1.6/Manifest.toml`
  [621f4979] + AbstractFFTs v0.5.0
  [7e558dbc] + ArbNumerics v1.2.1
  [b99e7846] + BinaryProvider v0.5.10
  [e66e0078] + CompilerSupportLibraries_jll v0.3.3+0
  [7a1cc6ca] + FFTW v1.2.4
  [f5851436] + FFTW_jll v3.3.9+5
  [01680d73] + GenericSVD v0.3.0
  [c145ed77] + GenericSchur v0.4.0
  [1d5cc7b8] + IntelOpenMP_jll v2018.0.3+0
  [856f044c] + MKL_jll v2020.2.254+0
  [efe28fd5] + OpenSpecFun_jll v0.5.3+3
  [0d4725de] + Readables v0.3.3
  [189a3867] + Reexport v0.2.0
  [276daf66] + SpecialFunctions v0.10.3
  [0dd23c3e] + TwoFAST v0.1.3
  [56f22d72] + Artifacts
  [2a0f44e3] + Base64
  [ade2ca70] + Dates
  [8bb1440f] + DelimitedFiles
  [8ba89e20] + Distributed
  [b77e0a4c] + InteractiveUtils
  [76f85450] + LibGit2
  [8f399da3] + Libdl
  [37e2e46d] + LinearAlgebra
  [56ddb016] + Logging
  [d6f4376e] + Markdown
  [a63ad114] + Mmap
  [44cfe95a] + Pkg
  [de0858da] + Printf
  [3fa0cd96] + REPL
  [9a3f8284] + Random
  [ea8e919c] + SHA
  [9e88b42a] + Serialization
  [6462fe0b] + Sockets
  [fa267f1f] + TOML
  [8dfed614] + Test
  [cf7118a7] + UUIDs
  [4ec0a83e] + Unicode
   Building ArbNumerics → `~/.julia/packages/ArbNumerics/joGFm/deps/build.log`
   Building FFTW ───────→ `~/.julia/packages/FFTW/DMUbN/deps/build.log`
    Testing TwoFAST
Status `/tmp/jl_RKxgyv/Project.toml`
  [7e558dbc] ArbNumerics v1.2.1
  [39dd38d3] Dierckx v0.5.0
  [7a1cc6ca] FFTW v1.2.4
  [276daf66] SpecialFunctions v0.10.3
  [0dd23c3e] TwoFAST v0.1.3
  [8bb1440f] DelimitedFiles
  [37e2e46d] LinearAlgebra
  [56ddb016] Logging
  [8dfed614] Test
Status `/tmp/jl_RKxgyv/Manifest.toml`
  [621f4979] AbstractFFTs v0.5.0
  [7e558dbc] ArbNumerics v1.2.1
  [b99e7846] BinaryProvider v0.5.10
  [e66e0078] CompilerSupportLibraries_jll v0.3.3+0
  [39dd38d3] Dierckx v0.5.0
  [cd4c43a9] Dierckx_jll v0.0.1+0
  [7a1cc6ca] FFTW v1.2.4
  [f5851436] FFTW_jll v3.3.9+5
  [01680d73] GenericSVD v0.3.0
  [c145ed77] GenericSchur v0.4.0
  [1d5cc7b8] IntelOpenMP_jll v2018.0.3+0
  [856f044c] MKL_jll v2020.2.254+0
  [efe28fd5] OpenSpecFun_jll v0.5.3+3
  [0d4725de] Readables v0.3.3
  [189a3867] Reexport v0.2.0
  [276daf66] SpecialFunctions v0.10.3
  [0dd23c3e] TwoFAST v0.1.3
  [56f22d72] Artifacts
  [2a0f44e3] Base64
  [ade2ca70] Dates
  [8bb1440f] DelimitedFiles
  [8ba89e20] Distributed
  [b77e0a4c] InteractiveUtils
  [76f85450] LibGit2
  [8f399da3] Libdl
  [37e2e46d] LinearAlgebra
  [56ddb016] Logging
  [d6f4376e] Markdown
  [a63ad114] Mmap
  [44cfe95a] Pkg
  [de0858da] Printf
  [3fa0cd96] REPL
  [9a3f8284] Random
  [ea8e919c] SHA
  [9e88b42a] Serialization
  [6462fe0b] Sockets
  [fa267f1f] TOML
  [8dfed614] Test
  [cf7118a7] UUIDs
  [4ec0a83e] Unicode
    Testing Running tests...
WARNING: could not import Printf.ini_hex into ArbNumerics
WARNING: could not import Printf.ini_HEX into ArbNumerics
t = 0.0 sec (0 allocations: 0 byte, 0.0% gc time)
typeof(t) = NamedTuple{(:value, :time, :bytes, :gctime, :gcstats), Tuple{DataType, Float64, Int64, Float64, Base.GC_Diff}}
TwoFAST.PerformanceStats.TimedType = Union{NamedTuple{(:value, :time, :bytes, :gctime, :gcstats), Tuple{T, Float64, Int64, Float64, Base.GC_Diff}}, Tuple{Any, Float64, Int64, Float64, Base.GC_Diff}} where T
t = 0.0 sec (0 allocations: 0 byte, 0.0% gc time)
t: 0.0 sec (0 allocations: 0 byte, 0.0% gc time)
Testing ξ(r), ℓ=0, ν=-1 ... passed
Testing ξ(r), ℓ=0, ν=0 ... passed
Testing ξ(r), ℓ=0, ν=1 ... passed
Testing ξ(r), ℓ=0, ν=2 ... passed
Testing ξ(r), ℓ=0, ν=3 ... passed
Testing ξ(r), ℓ=1, ν=0 ... passed
Testing ξ(r), ℓ=1, ν=1 ... passed
Testing ξ(r), ℓ=1, ν=2 ... passed
Testing ξ(r), ℓ=1, ν=3 ... passed
Testing ξ(r), ℓ=2, ν=-1 ... passed
Testing ξ(r), ℓ=2, ν=0 ... passed
Testing ξ(r), ℓ=2, ν=1 ... passed
Testing ξ(r), ℓ=2, ν=2 ... passed
Testing ξ(r), ℓ=2, ν=3 ... passed
Testing ξ(r), ℓ=3, ν=-1 ... passed
Testing ξ(r), ℓ=3, ν=0 ... passed
Testing ξ(r), ℓ=3, ν=1 ... passed
Testing ξ(r), ℓ=3, ν=2 ... passed
Testing ξ(r), ℓ=3, ν=3 ... passed
Testing ξ(r), ℓ=4, ν=-1 ... passed
Testing ξ(r), ℓ=4, ν=0 ... passed
Testing ξ(r), ℓ=4, ν=1 ... passed
Testing ξ(r), ℓ=4, ν=2 ... passed
Testing ξ(r), ℓ=4, ν=3 ... passed
Testing ξ(r) ... passed
Testing ξ′(r) ... passed
Testing ξ″(r) ... passed
Calculating fmax: 
  dlrec    = 4
  dlrecRg1 = -4
  q=1.1, R=1.1:	  5.036134 seconds (843.45 k allocations: 53.916 MiB, 0.99% gc time)

  5.053332 seconds (856.12 k allocations: 54.706 MiB, 0.98% gc time)
ℓ = 1202
Δℓ = 4
ΔℓRg1 = -4
N = 1600
q = 1.1
kmin = 1.0e-5
kmax = 100000.00000000004
χ0 = 0.023029999999999995
RR = RR.tsv
ℓmax = ℓmax.bin
f21 = f21.bin
kmin = 1.0e-5
kmax = 100000.0
dlrec    = 4
dlrecRg1 = -4
Output size: 5741568 bytes = 0.005347251892089844 GiB
Output size: 51264 bytes = 4.774332046508789e-5 GiB
Reading 'out/F21EllCache'...   0.700998 seconds (395.09 k allocations: 23.198 MiB, 6.71% gc time)
ellmax: 1202
lmaxcache: 1202
fell[:,1,1] = ComplexF64[3.9583795592771634e-52 - 9.695233714158177e-68im, 3.990121772925759e-52 - 9.772979714843386e-68im]
ell 1202, elapsed: 3.600120544433594e-5
ell 1201, elapsed: 1.4375689029693604
ell 1200, elapsed: 0.0008189678192138672
ell 1199, elapsed: 0.0007650852203369141
ell 1198, elapsed: 0.0007579326629638672
ell 1002, elapsed: 0.012424945831298828
ell 1001, elapsed: 0.0006420612335205078
ell 1000, elapsed: 0.0005829334259033203
ell 999, elapsed: 0.0005841255187988281
ell 998, elapsed: 0.0006320476531982422
ell 902, elapsed: 0.006195068359375
ell 901, elapsed: 0.0006167888641357422
ell 900, elapsed: 0.0005791187286376953
ell 899, elapsed: 0.0005810260772705078
ell 898, elapsed: 0.0005869865417480469
ell 802, elapsed: 0.006273031234741211
ell 801, elapsed: 0.0006461143493652344
ell 800, elapsed: 0.0006339550018310547
ell 799, elapsed: 0.0006358623504638672
ell 798, elapsed: 0.0006339550018310547
ell 702, elapsed: 0.006262063980102539
ell 701, elapsed: 0.0006258487701416016
ell 700, elapsed: 0.0006730556488037109
ell 699, elapsed: 0.0006229877471923828
ell 698, elapsed: 0.0006170272827148438
ell 602, elapsed: 0.005937099456787109
ell 601, elapsed: 0.000553131103515625
ell 600, elapsed: 0.0005729198455810547
ell 599, elapsed: 0.0005359649658203125
ell 598, elapsed: 0.0005071163177490234
ell 502, elapsed: 0.005658149719238281
ell 501, elapsed: 0.0005359649658203125
ell 500, elapsed: 0.0005161762237548828
ell 499, elapsed: 0.0005228519439697266
ell 498, elapsed: 0.0005609989166259766
ell 402, elapsed: 0.005418062210083008
ell 401, elapsed: 0.0005180835723876953
ell 400, elapsed: 0.0006110668182373047
ell 399, elapsed: 0.0005860328674316406
ell 398, elapsed: 0.0005879402160644531
ell 302, elapsed: 0.0057070255279541016
ell 301, elapsed: 0.0006029605865478516
ell 300, elapsed: 0.0006639957427978516
ell 299, elapsed: 0.0006330013275146484
ell 298, elapsed: 0.0006070137023925781
ell 202, elapsed: 0.005572080612182617
ell 201, elapsed: 0.0005960464477539062
ell 200, elapsed: 0.0005600452423095703
ell 199, elapsed: 0.0005881786346435547
ell 198, elapsed: 0.000576019287109375
ell 152, elapsed: 0.0029010772705078125
ell 151, elapsed: 0.0012781620025634766
ell 150, elapsed: 0.0005841255187988281
ell 149, elapsed: 0.0005710124969482422
ell 148, elapsed: 0.0005710124969482422
ell 127, elapsed: 0.0018911361694335938
ell 126, elapsed: 0.0005719661712646484
ell 125, elapsed: 0.0005860328674316406
ell 124, elapsed: 0.0005691051483154297
ell 123, elapsed: 0.0005741119384765625
ell 114, elapsed: 0.0011219978332519531
ell 113, elapsed: 0.0005769729614257812
ell 112, elapsed: 0.0005810260772705078
ell 111, elapsed: 0.0005800724029541016
ell 110, elapsed: 0.0005731582641601562
ell 102, elapsed: 0.001068115234375
ell 101, elapsed: 0.0005731582641601562
ell 100, elapsed: 0.0005719661712646484
ell 99, elapsed: 0.0005748271942138672
ell 98, elapsed: 0.000576019287109375
ell 97, elapsed: 0.0006711483001708984
ell 96, elapsed: 0.0006508827209472656
ell 95, elapsed: 0.0006549358367919922
ell 94, elapsed: 0.0006568431854248047
ell 93, elapsed: 0.0006561279296875
ell 92, elapsed: 0.0006551742553710938
ell 91, elapsed: 0.0006628036499023438
ell 90, elapsed: 0.0007250308990478516
ell 89, elapsed: 0.0007779598236083984
ell 88, elapsed: 0.0005629062652587891
ell 87, elapsed: 0.0005869865417480469
ell 86, elapsed: 0.0005750656127929688
ell 85, elapsed: 0.0006098747253417969
ell 84, elapsed: 0.0006101131439208984
ell 83, elapsed: 0.0006468296051025391
ell 82, elapsed: 0.000614166259765625
ell 81, elapsed: 0.0005891323089599609
ell 80, elapsed: 0.0005841255187988281
ell 79, elapsed: 0.0005948543548583984
ell 78, elapsed: 0.000576019287109375
ell 77, elapsed: 0.0005810260772705078
ell 76, elapsed: 0.0005710124969482422
ell 75, elapsed: 0.0005819797515869141
ell 74, elapsed: 0.0005908012390136719
ell 73, elapsed: 0.0007359981536865234
ell 72, elapsed: 0.0006368160247802734
ell 71, elapsed: 0.0005719661712646484
ell 70, elapsed: 0.000576019287109375
ell 69, elapsed: 0.0005681514739990234
ell 68, elapsed: 0.0005741119384765625
ell 67, elapsed: 0.0006442070007324219
ell 66, elapsed: 0.0005810260772705078
ell 65, elapsed: 0.0005669593811035156
ell 64, elapsed: 0.000576019287109375
ell 63, elapsed: 0.0005741119384765625
ell 62, elapsed: 0.0005848407745361328
ell 61, elapsed: 0.0006029605865478516
ell 60, elapsed: 0.0006968975067138672
ell 59, elapsed: 0.000579833984375
ell 58, elapsed: 0.0005888938903808594
ell 57, elapsed: 0.0006480216979980469
ell 56, elapsed: 0.0005939006805419922
ell 55, elapsed: 0.0006508827209472656
ell 54, elapsed: 0.0006411075592041016
ell 53, elapsed: 0.0005908012390136719
ell 52, elapsed: 0.0006608963012695312
ell 51, elapsed: 0.0006420612335205078
ell 50, elapsed: 0.0005910396575927734
ell 49, elapsed: 0.0006299018859863281
ell 48, elapsed: 0.000579833984375
ell 47, elapsed: 0.0005939006805419922
ell 46, elapsed: 0.0006411075592041016
ell 45, elapsed: 0.0005970001220703125
ell 44, elapsed: 0.0006418228149414062
ell 43, elapsed: 0.0005571842193603516
ell 42, elapsed: 0.0006439685821533203
ell 41, elapsed: 0.0005679130554199219
ell 40, elapsed: 0.0005869865417480469
ell 39, elapsed: 0.000640869140625
ell 38, elapsed: 0.0005719661712646484
ell 37, elapsed: 0.0005691051483154297
ell 36, elapsed: 0.0006399154663085938
ell 35, elapsed: 0.0006029605865478516
ell 34, elapsed: 0.0006389617919921875
ell 33, elapsed: 0.0005939006805419922
ell 32, elapsed: 0.000637054443359375
ell 31, elapsed: 0.0005469322204589844
ell 30, elapsed: 0.0006558895111083984
ell 29, elapsed: 0.0005719661712646484
ell 28, elapsed: 0.0005800724029541016
ell 27, elapsed: 0.0006320476531982422
ell 26, elapsed: 0.0005970001220703125
ell 25, elapsed: 0.0005509853363037109
ell 24, elapsed: 0.0006310939788818359
ell 23, elapsed: 0.00055694580078125
ell 22, elapsed: 0.0005691051483154297
ell 21, elapsed: 0.0005621910095214844
ell 20, elapsed: 0.0005769729614257812
ell 19, elapsed: 0.0005640983581542969
ell 18, elapsed: 0.0005619525909423828
ell 17, elapsed: 0.0006580352783203125
ell 16, elapsed: 0.0006520748138427734
ell 15, elapsed: 0.0005960464477539062
ell 14, elapsed: 0.0006320476531982422
ell 13, elapsed: 0.0005741119384765625
ell 12, elapsed: 0.0006089210510253906
ell 11, elapsed: 0.0007390975952148438
ell 10, elapsed: 0.0006220340728759766
ell 9, elapsed: 0.0006308555603027344
ell 8, elapsed: 0.0006330013275146484
ell 7, elapsed: 0.0006210803985595703
ell 6, elapsed: 0.0007460117340087891
ell 5, elapsed: 0.0006170272827148438
ell 4, elapsed: 0.0005209445953369141
ell 3, elapsed: 0.00048613548278808594
ell 2, elapsed: 0.0004811286926269531
ell 1, elapsed: 0.0004811286926269531
ell 0, elapsed: 0.00048804283142089844
  2.111406 seconds (1.30 M allocations: 70.966 MiB, 0.98% gc time)
elapsed: 0.0006580352783203125
step:          0.531092 sec (311.142 k allocations: 16.962 MB, 0.0% gc time)
swapping:      0.000542 sec (0 allocations: 0 byte, 0.0% gc time)
calc_Mellell!: 0.149338 sec (135.743 k allocations: 7.434 MB, 0.0% gc time)
  t0 :  0.0 sec (0 allocations: 0 byte, 0.0% gc time)
  tm2 : 0.0 sec (0 allocations: 0 byte, 0.0% gc time)
  tm2s: 0.0 sec (0 allocations: 0 byte, 0.0% gc time)
  tm4 : 0.0 sec (0 allocations: 0 byte, 0.0% gc time)
  tp2 : 0.0 sec (0 allocations: 0 byte, 0.0% gc time)
  tp2s: 0.0 sec (0 allocations: 0 byte, 0.0% gc time)
  tp4 : 1.0e-6 sec (0 allocations: 0 byte, 0.0% gc time)
calc_wtdll!:   0.901295 sec (509.615 k allocations: 28.196 MB, 0.0% gc time)
calc_wljj!:    0.003444 sec (6 allocations: 96 byte, 0.0% gc time)
mult_prefac!:  0.0 sec (0 allocations: 0 byte, 0.0% gc time)
convert:       0.0 sec (0 allocations: 0 byte, 0.0% gc time)
write:         0.003917 sec (0 allocations: 0 byte, 0.0% gc time)
test_rand_2f1: 0.0 sec (0 allocations: 0 byte, 0.0% gc time)
Closing outfile out/Ml21-cache.bin...   0.000011 seconds
  1.103968 seconds (246.25 k allocations: 14.212 MiB)
make_phi():   0.013018 seconds (8.18 k allocations: 237.844 KiB)
  0.246321 seconds (87.57 k allocations: 4.749 MiB)
tskip:       2.0e-5 sec (0 allocations: 0 byte, 0.0% gc time)
tread:       0.002431 sec (17 allocations: 2.125 KB, 0.0% gc time)
tmultphi:    0.042325 sec (21.425 k allocations: 1.287 MB, 0.0% gc time)
tbrfft:      0.004278 sec (0 allocations: 0 byte, 0.0% gc time)
tmultprefac: 0.003445 sec (0 allocations: 0 byte, 0.0% gc time)
toutfunc:    0.1555 sec (64.484 k allocations: 3.33 MB, 0.0% gc time)
Testing R=1.1 ... passed
Calculating fmax: 
  dlrec    = 4
  dlrecRg1 = -4
  q=1.1, R=1.0:	  0.002044 seconds (3.20 k allocations: 275.344 KiB)

  0.002695 seconds (3.34 k allocations: 311.422 KiB)
ℓ = 1202
Δℓ = 4
ΔℓRg1 = -4
N = 1600
q = 1.1
kmin = 1.0e-5
kmax = 100000.00000000004
χ0 = 0.023029999999999995
RR = RR.tsv
ℓmax = ℓmax.bin
f21 = f21.bin
kmin = 1.0e-5
kmax = 100000.0
dlrec    = 4
dlrecRg1 = -4
Output size: 61465536 bytes = 0.05724424123764038 GiB
Output size: 51264 bytes = 4.774332046508789e-5 GiB
Reading 'out/F21EllCache'...   0.001348 seconds (197 allocations: 84.203 KiB)
ellmax: 1202
lmaxcache: 1202
fell[:,1,1] = ComplexF64[809.6031528389767 - 1.9829558194077161e-13im, 0.0 + 0.0im]
ell 1202, elapsed: 8.320808410644531e-5
ell 1201, elapsed: 0.015597820281982422
ell 1200, elapsed: 0.016026020050048828
ell 1199, elapsed: 0.00040912628173828125
ell 1198, elapsed: 0.00045800209045410156
ell 1197, elapsed: 0.0006129741668701172
ell 1196, elapsed: 0.0005269050598144531
ell 1195, elapsed: 0.00048089027404785156
ell 1194, elapsed: 0.0005550384521484375
ell 1193, elapsed: 0.0005438327789306641
ell 1192, elapsed: 0.0005319118499755859
ell 1191, elapsed: 0.0005221366882324219
ell 1190, elapsed: 0.0005538463592529297
ell 1189, elapsed: 0.0004761219024658203
ell 1188, elapsed: 0.0006220340728759766
ell 1187, elapsed: 0.0006361007690429688
ell 1186, elapsed: 0.0005948543548583984
ell 1185, elapsed: 0.0006070137023925781
ell 1184, elapsed: 0.00047016143798828125
ell 1183, elapsed: 0.0006010532379150391
ell 1182, elapsed: 0.0006189346313476562
ell 1181, elapsed: 0.0004951953887939453
ell 1180, elapsed: 0.0004470348358154297
ell 1179, elapsed: 0.0004391670227050781
ell 1178, elapsed: 0.0005741119384765625
ell 1177, elapsed: 0.00055694580078125
ell 1176, elapsed: 0.00061798095703125
ell 1175, elapsed: 0.0006189346313476562
ell 1174, elapsed: 0.0005869865417480469
ell 1173, elapsed: 0.00047087669372558594
ell 1172, elapsed: 0.0004298686981201172
ell 1171, elapsed: 0.0004467964172363281
ell 1170, elapsed: 0.0005860328674316406
ell 1169, elapsed: 0.0006020069122314453
ell 1168, elapsed: 0.0006070137023925781
ell 1167, elapsed: 0.0005397796630859375
ell 1166, elapsed: 0.0005638599395751953
ell 1165, elapsed: 0.0005471706390380859
ell 1164, elapsed: 0.0005278587341308594
ell 1163, elapsed: 0.0005278587341308594
ell 1162, elapsed: 0.0005278587341308594
ell 1161, elapsed: 0.0005438327789306641
ell 1160, elapsed: 0.0005440711975097656
ell 1159, elapsed: 0.0005228519439697266
ell 1158, elapsed: 0.0005469322204589844
ell 1157, elapsed: 0.0005240440368652344
ell 1156, elapsed: 0.0004999637603759766
ell 1155, elapsed: 0.0005171298980712891
ell 1154, elapsed: 0.0005209445953369141
ell 1153, elapsed: 0.0004851818084716797
ell 1152, elapsed: 0.0004909038543701172
ell 1151, elapsed: 0.00048613548278808594
ell 1150, elapsed: 0.0005750656127929688
ell 1149, elapsed: 0.0005519390106201172
ell 1148, elapsed: 0.0006260871887207031
ell 1147, elapsed: 0.0005331039428710938
ell 1146, elapsed: 0.0005390644073486328
ell 1145, elapsed: 0.0005710124969482422
ell 1144, elapsed: 0.0005340576171875
ell 1143, elapsed: 0.00055694580078125
ell 1142, elapsed: 0.0005619525909423828
ell 1141, elapsed: 0.0005548000335693359
ell 1140, elapsed: 0.0005478858947753906
ell 1139, elapsed: 0.0005578994750976562
ell 1138, elapsed: 0.0005769729614257812
ell 1137, elapsed: 0.0005180835723876953
ell 1136, elapsed: 0.0005290508270263672
ell 1135, elapsed: 0.0007560253143310547
ell 1134, elapsed: 0.000823974609375
ell 1133, elapsed: 0.0005741119384765625
ell 1132, elapsed: 0.00045800209045410156
ell 1131, elapsed: 0.00048804283142089844
ell 1130, elapsed: 0.00043892860412597656
ell 1129, elapsed: 0.0004630088806152344
ell 1128, elapsed: 0.0004780292510986328
ell 1127, elapsed: 0.0004620552062988281
ell 1126, elapsed: 0.000476837158203125
ell 1125, elapsed: 0.00040602684020996094
ell 1124, elapsed: 0.00041604042053222656
ell 1123, elapsed: 0.00043201446533203125
ell 1122, elapsed: 0.0004649162292480469
ell 1121, elapsed: 0.0004239082336425781
ell 1120, elapsed: 0.0004458427429199219
ell 1119, elapsed: 0.0005259513854980469
ell 1118, elapsed: 0.0005459785461425781
ell 1117, elapsed: 0.0005571842193603516
ell 1116, elapsed: 0.000537872314453125
ell 1115, elapsed: 0.0005719661712646484
ell 1114, elapsed: 0.0005161762237548828
ell 1113, elapsed: 0.0005319118499755859
ell 1112, elapsed: 0.0005369186401367188
ell 1111, elapsed: 0.0005350112915039062
ell 1110, elapsed: 0.0004858970642089844
ell 1109, elapsed: 0.0005471706390380859
ell 1108, elapsed: 0.0005021095275878906
ell 1107, elapsed: 0.0005228519439697266
ell 1106, elapsed: 0.0005650520324707031
ell 1105, elapsed: 0.0005540847778320312
ell 1104, elapsed: 0.0005130767822265625
ell 1103, elapsed: 0.0004639625549316406
ell 1102, elapsed: 0.0004978179931640625
ell 1101, elapsed: 0.0004961490631103516
ell 1100, elapsed: 0.0004699230194091797
ell 1099, elapsed: 0.00048089027404785156
ell 1098, elapsed: 0.0005769729614257812
ell 1097, elapsed: 0.0005638599395751953
ell 1096, elapsed: 0.0005488395690917969
ell 1095, elapsed: 0.0005691051483154297
ell 1094, elapsed: 0.0005650520324707031
ell 1093, elapsed: 0.0005741119384765625
ell 1092, elapsed: 0.0005879402160644531
ell 1091, elapsed: 0.0005888938903808594
ell 1090, elapsed: 0.0005970001220703125
ell 1089, elapsed: 0.0006020069122314453
ell 1088, elapsed: 0.0005848407745361328
ell 1087, elapsed: 0.0005841255187988281
ell 1086, elapsed: 0.000598907470703125
ell 1085, elapsed: 0.0006060600280761719
ell 1084, elapsed: 0.0006401538848876953
ell 1083, elapsed: 0.0007030963897705078
ell 1082, elapsed: 0.0005240440368652344
ell 1081, elapsed: 0.0005140304565429688
ell 1080, elapsed: 0.0005218982696533203
ell 1079, elapsed: 0.0005698204040527344
ell 1078, elapsed: 0.0005249977111816406
ell 1077, elapsed: 0.0005071163177490234
ell 1076, elapsed: 0.0005099773406982422
ell 1075, elapsed: 0.0005040168762207031
ell 1074, elapsed: 0.0005190372467041016
ell 1073, elapsed: 0.0005459785461425781
ell 1072, elapsed: 0.0005559921264648438
ell 1071, elapsed: 0.0005488395690917969
ell 1070, elapsed: 0.0005462169647216797
ell 1069, elapsed: 0.0005369186401367188
ell 1068, elapsed: 0.0005929470062255859
ell 1067, elapsed: 0.0005390644073486328
ell 1066, elapsed: 0.0005347728729248047
ell 1065, elapsed: 0.0005519390106201172
ell 1064, elapsed: 0.0005669593811035156
ell 1063, elapsed: 0.0006990432739257812
ell 1062, elapsed: 0.0005640983581542969
ell 1061, elapsed: 0.0005528926849365234
ell 1060, elapsed: 0.0005571842193603516
ell 1059, elapsed: 0.0005629062652587891
ell 1058, elapsed: 0.0005750656127929688
ell 1057, elapsed: 0.0005619525909423828
ell 1056, elapsed: 0.0005590915679931641
ell 1055, elapsed: 0.0005550384521484375
ell 1054, elapsed: 0.0005540847778320312
ell 1053, elapsed: 0.0006079673767089844
ell 1052, elapsed: 0.0005528926849365234
ell 1051, elapsed: 0.000553131103515625
ell 1050, elapsed: 0.0005550384521484375
ell 1049, elapsed: 0.0005481243133544922
ell 1048, elapsed: 0.0006039142608642578
ell 1047, elapsed: 0.0005741119384765625
ell 1046, elapsed: 0.0005779266357421875
ell 1045, elapsed: 0.0005731582641601562
ell 1044, elapsed: 0.0005700588226318359
ell 1043, elapsed: 0.0005700588226318359
ell 1042, elapsed: 0.0005340576171875
ell 1041, elapsed: 0.0005559921264648438
ell 1040, elapsed: 0.0006430149078369141
ell 1039, elapsed: 0.0005538463592529297
ell 1038, elapsed: 0.0005190372467041016
ell 1037, elapsed: 0.0005381107330322266
ell 1036, elapsed: 0.0005340576171875
ell 1035, elapsed: 0.0005168914794921875
ell 1034, elapsed: 0.0005259513854980469
ell 1033, elapsed: 0.000576019287109375
ell 1032, elapsed: 0.0006649494171142578
ell 1031, elapsed: 0.0005218982696533203
ell 1030, elapsed: 0.0005068778991699219
ell 1029, elapsed: 0.0005178451538085938
ell 1028, elapsed: 0.0005300045013427734
ell 1027, elapsed: 0.0004639625549316406
ell 1026, elapsed: 0.00047898292541503906
ell 1025, elapsed: 0.0004980564117431641
ell 1024, elapsed: 0.0004839897155761719
ell 1023, elapsed: 0.00045990943908691406
ell 1022, elapsed: 0.0004858970642089844
ell 1021, elapsed: 0.000492095947265625
ell 1020, elapsed: 0.0005180835723876953
ell 1019, elapsed: 0.0005478858947753906
ell 1018, elapsed: 0.0005278587341308594
ell 1017, elapsed: 0.0005650520324707031
ell 1016, elapsed: 0.0004730224609375
ell 1015, elapsed: 0.0004570484161376953
ell 1014, elapsed: 0.00045180320739746094
ell 1013, elapsed: 0.0005030632019042969
ell 1012, elapsed: 0.0005259513854980469
ell 1011, elapsed: 0.0005669593811035156
ell 1010, elapsed: 0.0007560253143310547
ell 1009, elapsed: 0.0005331039428710938
ell 1008, elapsed: 0.0005137920379638672
ell 1007, elapsed: 0.0005090236663818359
ell 1006, elapsed: 0.0005779266357421875
ell 1005, elapsed: 0.0005218982696533203
ell 1004, elapsed: 0.0004911422729492188
ell 1003, elapsed: 0.00045990943908691406
ell 1002, elapsed: 0.0005249977111816406
ell 1001, elapsed: 0.0005068778991699219
ell 1000, elapsed: 0.0007250308990478516
ell 999, elapsed: 0.0005271434783935547
ell 998, elapsed: 0.0005309581756591797
ell 997, elapsed: 0.0005199909210205078
ell 996, elapsed: 0.0005059242248535156
ell 995, elapsed: 0.000514984130859375
ell 994, elapsed: 0.0004801750183105469
ell 993, elapsed: 0.0005059242248535156
ell 992, elapsed: 0.0005109310150146484
ell 991, elapsed: 0.0005359649658203125
ell 990, elapsed: 0.0005462169647216797
ell 989, elapsed: 0.0004799365997314453
ell 988, elapsed: 0.0004870891571044922
ell 987, elapsed: 0.0004949569702148438
ell 986, elapsed: 0.00048613548278808594
ell 985, elapsed: 0.0005228519439697266
ell 984, elapsed: 0.0005650520324707031
ell 983, elapsed: 0.0004990100860595703
ell 982, elapsed: 0.00047707557678222656
ell 981, elapsed: 0.00049591064453125
ell 980, elapsed: 0.0005140304565429688
ell 979, elapsed: 0.0005490779876708984
ell 978, elapsed: 0.0004940032958984375
ell 977, elapsed: 0.0005381107330322266
ell 976, elapsed: 0.0005419254302978516
ell 975, elapsed: 0.0005481243133544922
ell 974, elapsed: 0.0005290508270263672
ell 973, elapsed: 0.0005300045013427734
ell 972, elapsed: 0.0005109310150146484
ell 971, elapsed: 0.0005390644073486328
ell 970, elapsed: 0.0005211830139160156
ell 969, elapsed: 0.0005450248718261719
ell 968, elapsed: 0.0005509853363037109
ell 967, elapsed: 0.0005040168762207031
ell 966, elapsed: 0.0005419254302978516
ell 965, elapsed: 0.000537872314453125
ell 964, elapsed: 0.0005059242248535156
ell 963, elapsed: 0.000576019287109375
ell 962, elapsed: 0.0005071163177490234
ell 961, elapsed: 0.0004911422729492188
ell 960, elapsed: 0.0004928112030029297
ell 959, elapsed: 0.0005288124084472656
ell 958, elapsed: 0.0005669593811035156
ell 957, elapsed: 0.0005290508270263672
ell 956, elapsed: 0.0005478858947753906
ell 955, elapsed: 0.0005228519439697266
ell 954, elapsed: 0.0004858970642089844
ell 953, elapsed: 0.0005548000335693359
ell 952, elapsed: 0.0005109310150146484
ell 951, elapsed: 0.000492095947265625
ell 950, elapsed: 0.0005300045013427734
ell 949, elapsed: 0.0005190372467041016
ell 948, elapsed: 0.0005309581756591797
ell 947, elapsed: 0.0005929470062255859
ell 946, elapsed: 0.0005121231079101562
ell 945, elapsed: 0.0005280971527099609
ell 944, elapsed: 0.0004971027374267578
ell 943, elapsed: 0.0005078315734863281
ell 942, elapsed: 0.0006091594696044922
ell 941, elapsed: 0.0005171298980712891
ell 940, elapsed: 0.0005249977111816406
ell 939, elapsed: 0.0005178451538085938
ell 938, elapsed: 0.0005209445953369141
ell 937, elapsed: 0.0008490085601806641
ell 936, elapsed: 0.0004930496215820312
ell 935, elapsed: 0.00047588348388671875
ell 934, elapsed: 0.00047707557678222656
ell 933, elapsed: 0.0005059242248535156
ell 932, elapsed: 0.0005381107330322266
ell 931, elapsed: 0.0005638599395751953
ell 930, elapsed: 0.0005199909210205078
ell 929, elapsed: 0.0005159378051757812
ell 928, elapsed: 0.0005359649658203125
ell 927, elapsed: 0.0005118846893310547
ell 926, elapsed: 0.0005979537963867188
ell 925, elapsed: 0.0005371570587158203
ell 924, elapsed: 0.0005099773406982422
ell 923, elapsed: 0.000514984130859375
ell 922, elapsed: 0.0006730556488037109
ell 921, elapsed: 0.0005259513854980469
ell 920, elapsed: 0.0004780292510986328
ell 919, elapsed: 0.0004909038543701172
ell 918, elapsed: 0.0004930496215820312
ell 917, elapsed: 0.0005331039428710938
ell 916, elapsed: 0.000514984130859375
ell 915, elapsed: 0.0005278587341308594
ell 914, elapsed: 0.00047087669372558594
ell 913, elapsed: 0.0005099773406982422
ell 912, elapsed: 0.0005059242248535156
ell 911, elapsed: 0.0005199909210205078
ell 910, elapsed: 0.0005140304565429688
ell 909, elapsed: 0.0005180835723876953
ell 908, elapsed: 0.0005278587341308594
ell 907, elapsed: 0.00047588348388671875
ell 906, elapsed: 0.0005199909210205078
ell 905, elapsed: 0.0004830360412597656
ell 904, elapsed: 0.0005118846893310547
ell 903, elapsed: 0.0004990100860595703
ell 902, elapsed: 0.0005002021789550781
ell 901, elapsed: 0.0004780292510986328
ell 900, elapsed: 0.0005409717559814453
ell 899, elapsed: 0.0005209445953369141
ell 898, elapsed: 0.0005540847778320312
ell 897, elapsed: 0.0004909038543701172
ell 896, elapsed: 0.0005331039428710938
ell 895, elapsed: 0.0005199909210205078
ell 894, elapsed: 0.0005631446838378906
ell 893, elapsed: 0.0005800724029541016
ell 892, elapsed: 0.0005099773406982422
ell 891, elapsed: 0.0005002021789550781
ell 890, elapsed: 0.0005309581756591797
ell 889, elapsed: 0.0005199909210205078
ell 888, elapsed: 0.0005280971527099609
ell 887, elapsed: 0.0005509853363037109
ell 886, elapsed: 0.0004799365997314453
ell 885, elapsed: 0.000492095947265625
ell 884, elapsed: 0.0005178451538085938
ell 883, elapsed: 0.0004749298095703125
ell 882, elapsed: 0.0005822181701660156
ell 881, elapsed: 0.0005230903625488281
ell 880, elapsed: 0.0006380081176757812
ell 879, elapsed: 0.0005350112915039062
ell 878, elapsed: 0.0004780292510986328
ell 877, elapsed: 0.0005328655242919922
ell 876, elapsed: 0.0005278587341308594
ell 875, elapsed: 0.0005140304565429688
ell 874, elapsed: 0.000514984130859375
ell 873, elapsed: 0.0005161762237548828
ell 872, elapsed: 0.0005249977111816406
ell 871, elapsed: 0.0005700588226318359
ell 870, elapsed: 0.0005300045013427734
ell 869, elapsed: 0.0005309581756591797
ell 868, elapsed: 0.000518798828125
ell 867, elapsed: 0.0005338191986083984
ell 866, elapsed: 0.0005919933319091797
ell 865, elapsed: 0.0005300045013427734
ell 864, elapsed: 0.0005180835723876953
ell 863, elapsed: 0.0005369186401367188
ell 862, elapsed: 0.0005362033843994141
ell 861, elapsed: 0.0005249977111816406
ell 860, elapsed: 0.0005588531494140625
ell 859, elapsed: 0.0005428791046142578
ell 858, elapsed: 0.0005218982696533203
ell 857, elapsed: 0.0005328655242919922
ell 856, elapsed: 0.0005598068237304688
ell 855, elapsed: 0.0005979537963867188
ell 854, elapsed: 0.0005278587341308594
ell 853, elapsed: 0.0005300045013427734
ell 852, elapsed: 0.0004940032958984375
ell 851, elapsed: 0.0005009174346923828
ell 850, elapsed: 0.0004909038543701172
ell 849, elapsed: 0.0004999637603759766
ell 848, elapsed: 0.0004661083221435547
ell 847, elapsed: 0.0004558563232421875
ell 846, elapsed: 0.0004949569702148438
ell 845, elapsed: 0.00047588348388671875
ell 844, elapsed: 0.0004940032958984375
ell 843, elapsed: 0.0005409717559814453
ell 842, elapsed: 0.0005061626434326172
ell 841, elapsed: 0.0006492137908935547
ell 840, elapsed: 0.0004711151123046875
ell 839, elapsed: 0.0004930496215820312
ell 838, elapsed: 0.0004239082336425781
ell 837, elapsed: 0.0005059242248535156
ell 836, elapsed: 0.0004980564117431641
ell 835, elapsed: 0.0005059242248535156
ell 834, elapsed: 0.0005171298980712891
ell 833, elapsed: 0.0005381107330322266
ell 832, elapsed: 0.0004749298095703125
ell 831, elapsed: 0.0005621910095214844
ell 830, elapsed: 0.0005290508270263672
ell 829, elapsed: 0.0005021095275878906
ell 828, elapsed: 0.00048422813415527344
ell 827, elapsed: 0.0005121231079101562
ell 826, elapsed: 0.0004909038543701172
ell 825, elapsed: 0.0005638599395751953
ell 824, elapsed: 0.000682830810546875
ell 823, elapsed: 0.00045800209045410156
ell 822, elapsed: 0.0004520416259765625
ell 821, elapsed: 0.0004608631134033203
ell 820, elapsed: 0.0005540847778320312
ell 819, elapsed: 0.00048089027404785156
ell 818, elapsed: 0.0004680156707763672
ell 817, elapsed: 0.0004658699035644531
ell 816, elapsed: 0.0004990100860595703
ell 815, elapsed: 0.0005409717559814453
ell 814, elapsed: 0.00055694580078125
ell 813, elapsed: 0.0005049705505371094
ell 812, elapsed: 0.0005388259887695312
ell 811, elapsed: 0.0005099773406982422
ell 810, elapsed: 0.00045990943908691406
ell 809, elapsed: 0.00047206878662109375
ell 808, elapsed: 0.000514984130859375
ell 807, elapsed: 0.00047397613525390625
ell 806, elapsed: 0.0005240440368652344
ell 805, elapsed: 0.0005350112915039062
ell 804, elapsed: 0.0005581378936767578
ell 803, elapsed: 0.0005619525909423828
ell 802, elapsed: 0.0005509853363037109
ell 801, elapsed: 0.0005459785461425781
ell 800, elapsed: 0.0005500316619873047
ell 799, elapsed: 0.0005519390106201172
ell 798, elapsed: 0.0005450248718261719
ell 797, elapsed: 0.000598907470703125
ell 796, elapsed: 0.0005939006805419922
ell 795, elapsed: 0.0006029605865478516
ell 794, elapsed: 0.0006008148193359375
ell 793, elapsed: 0.0006289482116699219
ell 792, elapsed: 0.0006031990051269531
ell 791, elapsed: 0.0005981922149658203
ell 790, elapsed: 0.0005939006805419922
ell 789, elapsed: 0.000598907470703125
ell 788, elapsed: 0.0006010532379150391
ell 787, elapsed: 0.0005958080291748047
ell 786, elapsed: 0.0005888938903808594
ell 785, elapsed: 0.0005919933319091797
ell 784, elapsed: 0.0005960464477539062
ell 783, elapsed: 0.0006101131439208984
ell 782, elapsed: 0.0005970001220703125
ell 781, elapsed: 0.0005939006805419922
ell 780, elapsed: 0.0005910396575927734
ell 779, elapsed: 0.0006010532379150391
ell 778, elapsed: 0.0006089210510253906
ell 777, elapsed: 0.0006210803985595703
ell 776, elapsed: 0.0006310939788818359
ell 775, elapsed: 0.0006170272827148438
ell 774, elapsed: 0.0005919933319091797
ell 773, elapsed: 0.0006070137023925781
ell 772, elapsed: 0.000598907470703125
ell 771, elapsed: 0.0005891323089599609
ell 770, elapsed: 0.0006129741668701172
ell 769, elapsed: 0.0006101131439208984
ell 768, elapsed: 0.0006201267242431641
ell 767, elapsed: 0.0006139278411865234
ell 766, elapsed: 0.0006110668182373047
ell 765, elapsed: 0.0006268024444580078
ell 764, elapsed: 0.0006170272827148438
ell 763, elapsed: 0.0006110668182373047
ell 762, elapsed: 0.000614166259765625
ell 761, elapsed: 0.0006089210510253906
ell 760, elapsed: 0.0006170272827148438
ell 759, elapsed: 0.0006229877471923828
ell 758, elapsed: 0.0006279945373535156
ell 757, elapsed: 0.0006270408630371094
ell 756, elapsed: 0.0006110668182373047
ell 755, elapsed: 0.0006330013275146484
ell 754, elapsed: 0.0006129741668701172
ell 753, elapsed: 0.0006051063537597656
ell 752, elapsed: 0.0006299018859863281
ell 751, elapsed: 0.0006051063537597656
ell 750, elapsed: 0.0006279945373535156
ell 749, elapsed: 0.0005910396575927734
ell 748, elapsed: 0.0006101131439208984
ell 747, elapsed: 0.0005929470062255859
ell 746, elapsed: 0.0006220340728759766
ell 745, elapsed: 0.0006361007690429688
ell 744, elapsed: 0.0006310939788818359
ell 743, elapsed: 0.0006320476531982422
ell 742, elapsed: 0.0006239414215087891
ell 741, elapsed: 0.0006389617919921875
ell 740, elapsed: 0.0006339550018310547
ell 739, elapsed: 0.0006279945373535156
ell 738, elapsed: 0.0006299018859863281
ell 737, elapsed: 0.0006320476531982422
ell 736, elapsed: 0.0006248950958251953
ell 735, elapsed: 0.00045108795166015625
ell 734, elapsed: 0.000370025634765625
ell 733, elapsed: 0.0003631114959716797
ell 732, elapsed: 0.00035691261291503906
ell 731, elapsed: 0.0005099773406982422
ell 730, elapsed: 0.00041413307189941406
ell 729, elapsed: 0.0003361701965332031
ell 728, elapsed: 0.0003211498260498047
ell 727, elapsed: 0.00031304359436035156
ell 726, elapsed: 0.00030803680419921875
ell 725, elapsed: 0.0003631114959716797
ell 724, elapsed: 0.0003521442413330078
ell 723, elapsed: 0.0003249645233154297
ell 722, elapsed: 0.00034999847412109375
ell 721, elapsed: 0.0003509521484375
ell 720, elapsed: 0.0003249645233154297
ell 719, elapsed: 0.00041103363037109375
ell 718, elapsed: 0.0003681182861328125
ell 717, elapsed: 0.0003349781036376953
ell 716, elapsed: 0.00037217140197753906
ell 715, elapsed: 0.00036907196044921875
ell 714, elapsed: 0.00038504600524902344
ell 713, elapsed: 0.00037789344787597656
ell 712, elapsed: 0.0003669261932373047
ell 711, elapsed: 0.00037789344787597656
ell 710, elapsed: 0.0003821849822998047
ell 709, elapsed: 0.0005381107330322266
ell 708, elapsed: 0.0005140304565429688
ell 707, elapsed: 0.00047397613525390625
ell 706, elapsed: 0.0005300045013427734
ell 705, elapsed: 0.0005018711090087891
ell 704, elapsed: 0.00047588348388671875
ell 703, elapsed: 0.00047516822814941406
ell 702, elapsed: 0.0006430149078369141
ell 701, elapsed: 0.0006289482116699219
ell 700, elapsed: 0.00047707557678222656
ell 699, elapsed: 0.0005059242248535156
ell 698, elapsed: 0.0005421638488769531
ell 697, elapsed: 0.0005319118499755859
ell 696, elapsed: 0.0005440711975097656
ell 695, elapsed: 0.0005469322204589844
ell 694, elapsed: 0.0005521774291992188
ell 693, elapsed: 0.0005419254302978516
ell 692, elapsed: 0.0005400180816650391
ell 691, elapsed: 0.0005428791046142578
ell 690, elapsed: 0.0005388259887695312
ell 689, elapsed: 0.0005638599395751953
ell 688, elapsed: 0.0005581378936767578
ell 687, elapsed: 0.0005371570587158203
ell 686, elapsed: 0.0005519390106201172
ell 685, elapsed: 0.0006017684936523438
ell 684, elapsed: 0.0006039142608642578
ell 683, elapsed: 0.0005280971527099609
ell 682, elapsed: 0.0005590915679931641
ell 681, elapsed: 0.0006289482116699219
ell 680, elapsed: 0.0005619525909423828
ell 679, elapsed: 0.0005819797515869141
ell 678, elapsed: 0.0006251335144042969
ell 677, elapsed: 0.0005562305450439453
ell 676, elapsed: 0.0006361007690429688
ell 675, elapsed: 0.0006351470947265625
ell 674, elapsed: 0.0005848407745361328
ell 673, elapsed: 0.0005590915679931641
ell 672, elapsed: 0.00061798095703125
ell 671, elapsed: 0.0006999969482421875
ell 670, elapsed: 0.0006380081176757812
ell 669, elapsed: 0.0006289482116699219
ell 668, elapsed: 0.00055694580078125
ell 667, elapsed: 0.0005710124969482422
ell 666, elapsed: 0.0006480216979980469
ell 665, elapsed: 0.0006339550018310547
ell 664, elapsed: 0.0006449222564697266
ell 663, elapsed: 0.0005588531494140625
ell 662, elapsed: 0.0005688667297363281
ell 661, elapsed: 0.0006251335144042969
ell 660, elapsed: 0.0006101131439208984
ell 659, elapsed: 0.0005600452423095703
ell 658, elapsed: 0.0005671977996826172
ell 657, elapsed: 0.0006189346313476562
ell 656, elapsed: 0.0005791187286376953
ell 655, elapsed: 0.0005578994750976562
ell 654, elapsed: 0.0005710124969482422
ell 653, elapsed: 0.0006968975067138672
ell 652, elapsed: 0.00061798095703125
ell 651, elapsed: 0.0006420612335205078
ell 650, elapsed: 0.0006439685821533203
ell 649, elapsed: 0.0006160736083984375
ell 648, elapsed: 0.0006389617919921875
ell 647, elapsed: 0.0006527900695800781
ell 646, elapsed: 0.0006368160247802734
ell 645, elapsed: 0.0006158351898193359
ell 644, elapsed: 0.0006518363952636719
ell 643, elapsed: 0.0006439685821533203
ell 642, elapsed: 0.0006248950958251953
ell 641, elapsed: 0.0006289482116699219
ell 640, elapsed: 0.0006489753723144531
ell 639, elapsed: 0.0006499290466308594
ell 638, elapsed: 0.0006570816040039062
ell 637, elapsed: 0.0006468296051025391
ell 636, elapsed: 0.0006480216979980469
ell 635, elapsed: 0.0006411075592041016
ell 634, elapsed: 0.0006320476531982422
ell 633, elapsed: 0.0008528232574462891
ell 632, elapsed: 0.0006380081176757812
ell 631, elapsed: 0.0006210803985595703
ell 630, elapsed: 0.0005819797515869141
ell 629, elapsed: 0.0005829334259033203
ell 628, elapsed: 0.0006411075592041016
ell 627, elapsed: 0.0006229877471923828
ell 626, elapsed: 0.0005459785461425781
ell 625, elapsed: 0.0007281303405761719
ell 624, elapsed: 0.0007150173187255859
ell 623, elapsed: 0.0006921291351318359
ell 622, elapsed: 0.0006918907165527344
ell 621, elapsed: 0.00067901611328125
ell 620, elapsed: 0.0006911754608154297
ell 619, elapsed: 0.0006830692291259766
ell 618, elapsed: 0.0006818771362304688
ell 617, elapsed: 0.0006968975067138672
ell 616, elapsed: 0.0006830692291259766
ell 615, elapsed: 0.0006830692291259766
ell 614, elapsed: 0.0006968975067138672
ell 613, elapsed: 0.0006849765777587891
ell 612, elapsed: 0.0006909370422363281
ell 611, elapsed: 0.0006902217864990234
ell 610, elapsed: 0.0005040168762207031
ell 609, elapsed: 0.00038886070251464844
ell 608, elapsed: 0.0003879070281982422
ell 607, elapsed: 0.0003681182861328125
ell 606, elapsed: 0.00038313865661621094
ell 605, elapsed: 0.0004260540008544922
ell 604, elapsed: 0.0005049705505371094
ell 603, elapsed: 0.000865936279296875
ell 602, elapsed: 0.0006239414215087891
ell 601, elapsed: 0.0005691051483154297
ell 600, elapsed: 0.0006420612335205078
ell 599, elapsed: 0.0006289482116699219
ell 598, elapsed: 0.0006320476531982422
ell 597, elapsed: 0.000537872314453125
ell 596, elapsed: 0.0005950927734375
ell 595, elapsed: 0.0005359649658203125
ell 594, elapsed: 0.0005152225494384766
ell 593, elapsed: 0.0005800724029541016
ell 592, elapsed: 0.0005261898040771484
ell 591, elapsed: 0.0009100437164306641
ell 590, elapsed: 0.0008130073547363281
ell 589, elapsed: 0.000820159912109375
ell 588, elapsed: 0.0008251667022705078
ell 587, elapsed: 0.0009210109710693359
ell 586, elapsed: 0.0008471012115478516
ell 585, elapsed: 0.0008718967437744141
ell 584, elapsed: 0.0008590221405029297
ell 583, elapsed: 0.0008530616760253906
ell 582, elapsed: 0.0008420944213867188
ell 581, elapsed: 0.0009849071502685547
ell 580, elapsed: 0.0009860992431640625
ell 579, elapsed: 0.0010349750518798828
ell 578, elapsed: 0.0007040500640869141
ell 577, elapsed: 0.0007150173187255859
ell 576, elapsed: 0.0006608963012695312
ell 575, elapsed: 0.0006670951843261719
ell 574, elapsed: 0.0007460117340087891
ell 573, elapsed: 0.0007197856903076172
ell 572, elapsed: 0.0006840229034423828
ell 571, elapsed: 0.0007290840148925781
ell 570, elapsed: 0.0006182193756103516
ell 569, elapsed: 0.0007970333099365234
ell 568, elapsed: 0.0008139610290527344
ell 567, elapsed: 0.0008060932159423828
ell 566, elapsed: 0.0007469654083251953
ell 565, elapsed: 0.0006940364837646484
ell 564, elapsed: 0.0006968975067138672
ell 563, elapsed: 0.0007240772247314453
ell 562, elapsed: 0.0007278919219970703
ell 561, elapsed: 0.0007071495056152344
ell 560, elapsed: 0.0007410049438476562
ell 559, elapsed: 0.0008101463317871094
ell 558, elapsed: 0.0008380413055419922
ell 557, elapsed: 0.0007219314575195312
ell 556, elapsed: 0.0008759498596191406
ell 555, elapsed: 0.0006909370422363281
ell 554, elapsed: 0.0007879734039306641
ell 553, elapsed: 0.0006299018859863281
ell 552, elapsed: 0.0007121562957763672
ell 551, elapsed: 0.0007231235504150391
ell 550, elapsed: 0.0006320476531982422
ell 549, elapsed: 0.0006401538848876953
ell 548, elapsed: 0.0006940364837646484
ell 547, elapsed: 0.0006909370422363281
ell 546, elapsed: 0.00067901611328125
ell 545, elapsed: 0.0007610321044921875
ell 544, elapsed: 0.0006148815155029297
ell 543, elapsed: 0.0006999969482421875
ell 542, elapsed: 0.0006289482116699219
ell 541, elapsed: 0.0007739067077636719
ell 540, elapsed: 0.0006361007690429688
ell 539, elapsed: 0.0009341239929199219
ell 538, elapsed: 0.0007801055908203125
ell 537, elapsed: 0.0008158683776855469
ell 536, elapsed: 0.0008208751678466797
ell 535, elapsed: 0.0008678436279296875
ell 534, elapsed: 0.000843048095703125
ell 533, elapsed: 0.0009250640869140625
ell 532, elapsed: 0.0008540153503417969
ell 531, elapsed: 0.0008690357208251953
ell 530, elapsed: 0.0008599758148193359
ell 529, elapsed: 0.0008590221405029297
ell 528, elapsed: 0.000843048095703125
ell 527, elapsed: 0.0008990764617919922
ell 526, elapsed: 0.0009388923645019531
ell 525, elapsed: 0.0009438991546630859
ell 524, elapsed: 0.0009438991546630859
ell 523, elapsed: 0.0009539127349853516
ell 522, elapsed: 0.0008540153503417969
ell 521, elapsed: 0.0007951259613037109
ell 520, elapsed: 0.000804901123046875
ell 519, elapsed: 0.0007150173187255859
ell 518, elapsed: 0.0007269382476806641
ell 517, elapsed: 0.0008060932159423828
ell 516, elapsed: 0.0008089542388916016
ell 515, elapsed: 0.0007739067077636719
ell 514, elapsed: 0.0007882118225097656
ell 513, elapsed: 0.0007779598236083984
ell 512, elapsed: 0.000823974609375
ell 511, elapsed: 0.0008511543273925781
ell 510, elapsed: 0.0008308887481689453
ell 509, elapsed: 0.0008029937744140625
ell 508, elapsed: 0.0007810592651367188
ell 507, elapsed: 0.0008389949798583984
ell 506, elapsed: 0.0008060932159423828
ell 505, elapsed: 0.000843048095703125
ell 504, elapsed: 0.0009031295776367188
ell 503, elapsed: 0.0008380413055419922
ell 502, elapsed: 0.0008730888366699219
ell 501, elapsed: 0.0008630752563476562
ell 500, elapsed: 0.000926971435546875
ell 499, elapsed: 0.0009419918060302734
ell 498, elapsed: 0.0009419918060302734
ell 497, elapsed: 0.0009121894836425781
ell 496, elapsed: 0.0008749961853027344
ell 495, elapsed: 0.0008809566497802734
ell 494, elapsed: 0.0008988380432128906
ell 493, elapsed: 0.0008690357208251953
ell 492, elapsed: 0.0008859634399414062
ell 491, elapsed: 0.0008819103240966797
ell 490, elapsed: 0.0008797645568847656
ell 489, elapsed: 0.0008871555328369141
ell 488, elapsed: 0.0008530616760253906
ell 487, elapsed: 0.0008800029754638672
ell 486, elapsed: 0.0008740425109863281
ell 485, elapsed: 0.0008969306945800781
ell 484, elapsed: 0.0009238719940185547
ell 483, elapsed: 0.0009238719940185547
ell 482, elapsed: 0.0009639263153076172
ell 481, elapsed: 0.0009260177612304688
ell 480, elapsed: 0.0008931159973144531
ell 479, elapsed: 0.0008749961853027344
ell 478, elapsed: 0.0009198188781738281
ell 477, elapsed: 0.000942230224609375
ell 476, elapsed: 0.0009300708770751953
ell 475, elapsed: 0.0009210109710693359
ell 474, elapsed: 0.0009000301361083984
ell 473, elapsed: 0.0009100437164306641
ell 472, elapsed: 0.0009019374847412109
ell 471, elapsed: 0.0009260177612304688
ell 470, elapsed: 0.0009520053863525391
ell 469, elapsed: 0.0009608268737792969
ell 468, elapsed: 0.0009241104125976562
ell 467, elapsed: 0.0009379386901855469
ell 466, elapsed: 0.0009639263153076172
ell 465, elapsed: 0.0009369850158691406
ell 464, elapsed: 0.0008859634399414062
ell 463, elapsed: 0.0009140968322753906
ell 462, elapsed: 0.0009388923645019531
ell 461, elapsed: 0.0009260177612304688
ell 460, elapsed: 0.0009400844573974609
ell 459, elapsed: 0.0009009838104248047
ell 458, elapsed: 0.0008828639984130859
ell 457, elapsed: 0.0009570121765136719
ell 456, elapsed: 0.0009319782257080078
ell 455, elapsed: 0.0009319782257080078
ell 454, elapsed: 0.0009038448333740234
ell 453, elapsed: 0.000675201416015625
ell 452, elapsed: 0.0006201267242431641
ell 451, elapsed: 0.0006461143493652344
ell 450, elapsed: 0.0006630420684814453
ell 449, elapsed: 0.0006380081176757812
ell 448, elapsed: 0.000637054443359375
ell 447, elapsed: 0.0006101131439208984
ell 446, elapsed: 0.0006089210510253906
ell 445, elapsed: 0.0006198883056640625
ell 444, elapsed: 0.0006029605865478516
ell 443, elapsed: 0.0006189346313476562
ell 442, elapsed: 0.0006120204925537109
ell 441, elapsed: 0.0006129741668701172
ell 440, elapsed: 0.0006148815155029297
ell 439, elapsed: 0.0006051063537597656
ell 438, elapsed: 0.00061798095703125
ell 437, elapsed: 0.0006091594696044922
ell 436, elapsed: 0.0006251335144042969
ell 435, elapsed: 0.0006170272827148438
ell 434, elapsed: 0.0006120204925537109
ell 433, elapsed: 0.0006129741668701172
ell 432, elapsed: 0.0006167888641357422
ell 431, elapsed: 0.0006339550018310547
ell 430, elapsed: 0.0006251335144042969
ell 429, elapsed: 0.0006110668182373047
ell 428, elapsed: 0.0006170272827148438
ell 427, elapsed: 0.0006098747253417969
ell 426, elapsed: 0.0006320476531982422
ell 425, elapsed: 0.0005519390106201172
ell 424, elapsed: 0.0007579326629638672
ell 423, elapsed: 0.0005400180816650391
ell 422, elapsed: 0.0005390644073486328
ell 421, elapsed: 0.0005648136138916016
ell 420, elapsed: 0.0005440711975097656
ell 419, elapsed: 0.0005390644073486328
ell 418, elapsed: 0.0005440711975097656
ell 417, elapsed: 0.0005440711975097656
ell 416, elapsed: 0.0005481243133544922
ell 415, elapsed: 0.0005462169647216797
ell 414, elapsed: 0.0005490779876708984
ell 413, elapsed: 0.000782012939453125
ell 412, elapsed: 0.0005300045013427734
ell 411, elapsed: 0.0005199909210205078
ell 410, elapsed: 0.0005338191986083984
ell 409, elapsed: 0.0005130767822265625
ell 408, elapsed: 0.0005538463592529297
ell 407, elapsed: 0.0005390644073486328
ell 406, elapsed: 0.0005409717559814453
ell 405, elapsed: 0.0005350112915039062
ell 404, elapsed: 0.0005300045013427734
ell 403, elapsed: 0.0005338191986083984
ell 402, elapsed: 0.0005350112915039062
ell 401, elapsed: 0.0005509853363037109
ell 400, elapsed: 0.0005328655242919922
ell 399, elapsed: 0.0005412101745605469
ell 398, elapsed: 0.0005412101745605469
ell 397, elapsed: 0.0005362033843994141
ell 396, elapsed: 0.0005400180816650391
ell 395, elapsed: 0.000537872314453125
ell 394, elapsed: 0.00055694580078125
ell 393, elapsed: 0.0005409717559814453
ell 392, elapsed: 0.0005369186401367188
ell 391, elapsed: 0.0005419254302978516
ell 390, elapsed: 0.0005369186401367188
ell 389, elapsed: 0.0005438327789306641
ell 388, elapsed: 0.0005359649658203125
ell 387, elapsed: 0.0005359649658203125
ell 386, elapsed: 0.0005428791046142578
ell 385, elapsed: 0.0005500316619873047
ell 384, elapsed: 0.0005447864532470703
ell 383, elapsed: 0.0005338191986083984
ell 382, elapsed: 0.0005381107330322266
ell 381, elapsed: 0.0005550384521484375
ell 380, elapsed: 0.000537872314453125
ell 379, elapsed: 0.0005381107330322266
ell 378, elapsed: 0.0005390644073486328
ell 377, elapsed: 0.0005340576171875
ell 376, elapsed: 0.0005409717559814453
ell 375, elapsed: 0.0005321502685546875
ell 374, elapsed: 0.0005509853363037109
ell 373, elapsed: 0.0005290508270263672
ell 372, elapsed: 0.0005381107330322266
ell 371, elapsed: 0.0005371570587158203
ell 370, elapsed: 0.0005340576171875
ell 369, elapsed: 0.0005400180816650391
ell 368, elapsed: 0.0005340576171875
ell 367, elapsed: 0.0005331039428710938
ell 366, elapsed: 0.0005400180816650391
ell 365, elapsed: 0.0005309581756591797
ell 364, elapsed: 0.0005419254302978516
ell 363, elapsed: 0.0005340576171875
ell 362, elapsed: 0.0005419254302978516
ell 361, elapsed: 0.0005609989166259766
ell 360, elapsed: 0.0005328655242919922
ell 359, elapsed: 0.0005450248718261719
ell 358, elapsed: 0.0005369186401367188
ell 357, elapsed: 0.0005409717559814453
ell 356, elapsed: 0.0005359649658203125
ell 355, elapsed: 0.0005359649658203125
ell 354, elapsed: 0.0005528926849365234
ell 353, elapsed: 0.0005350112915039062
ell 352, elapsed: 0.0005440711975097656
ell 351, elapsed: 0.000537872314453125
ell 350, elapsed: 0.0005371570587158203
ell 349, elapsed: 0.0005388259887695312
ell 348, elapsed: 0.0005478858947753906
ell 347, elapsed: 0.0005419254302978516
ell 346, elapsed: 0.0005340576171875
ell 345, elapsed: 0.0005390644073486328
ell 344, elapsed: 0.0005390644073486328
ell 343, elapsed: 0.0005388259887695312
ell 342, elapsed: 0.0005440711975097656
ell 341, elapsed: 0.0005497932434082031
ell 340, elapsed: 0.0005328655242919922
ell 339, elapsed: 0.0005421638488769531
ell 338, elapsed: 0.0005362033843994141
ell 337, elapsed: 0.0005440711975097656
ell 336, elapsed: 0.0005390644073486328
ell 335, elapsed: 0.0005390644073486328
ell 334, elapsed: 0.0005421638488769531
ell 333, elapsed: 0.0005381107330322266
ell 332, elapsed: 0.0005381107330322266
ell 331, elapsed: 0.0005371570587158203
ell 330, elapsed: 0.0005390644073486328
ell 329, elapsed: 0.0005328655242919922
ell 328, elapsed: 0.0005338191986083984
ell 327, elapsed: 0.0003781318664550781
ell 326, elapsed: 0.0004329681396484375
ell 325, elapsed: 0.0005269050598144531
ell 324, elapsed: 0.00035500526428222656
ell 323, elapsed: 0.0003819465637207031
ell 322, elapsed: 0.00035691261291503906
ell 321, elapsed: 0.00035190582275390625
ell 320, elapsed: 0.00037598609924316406
ell 319, elapsed: 0.00035500526428222656
ell 318, elapsed: 0.0003809928894042969
ell 317, elapsed: 0.00036406517028808594
ell 316, elapsed: 0.0003650188446044922
ell 315, elapsed: 0.00032901763916015625
ell 314, elapsed: 0.00032806396484375
ell 313, elapsed: 0.00032210350036621094
ell 312, elapsed: 0.0003161430358886719
ell 311, elapsed: 0.0003180503845214844
ell 310, elapsed: 0.0003669261932373047
ell 309, elapsed: 0.0003528594970703125
ell 308, elapsed: 0.00032901763916015625
ell 307, elapsed: 0.000370025634765625
ell 306, elapsed: 0.0003669261932373047
ell 305, elapsed: 0.0003299713134765625
ell 304, elapsed: 0.00032591819763183594
ell 303, elapsed: 0.00036406517028808594
ell 302, elapsed: 0.00035309791564941406
ell 301, elapsed: 0.0003170967102050781
ell 300, elapsed: 0.0003211498260498047
ell 299, elapsed: 0.0003540515899658203
ell 298, elapsed: 0.0003581047058105469
ell 297, elapsed: 0.00037789344787597656
ell 296, elapsed: 0.0003581047058105469
ell 295, elapsed: 0.0003139972686767578
ell 294, elapsed: 0.0003681182861328125
ell 293, elapsed: 0.0003631114959716797
ell 292, elapsed: 0.0003330707550048828
ell 291, elapsed: 0.000370025634765625
ell 290, elapsed: 0.00036716461181640625
ell 289, elapsed: 0.0003609657287597656
ell 288, elapsed: 0.0003719329833984375
ell 287, elapsed: 0.00044083595275878906
ell 286, elapsed: 0.000476837158203125
ell 285, elapsed: 0.0004761219024658203
ell 284, elapsed: 0.0004780292510986328
ell 283, elapsed: 0.00047206878662109375
ell 282, elapsed: 0.0005347728729248047
ell 281, elapsed: 0.0005388259887695312
ell 280, elapsed: 0.0005421638488769531
ell 279, elapsed: 0.0005431175231933594
ell 278, elapsed: 0.0005319118499755859
ell 277, elapsed: 0.0005340576171875
ell 276, elapsed: 0.0005400180816650391
ell 275, elapsed: 0.0005328655242919922
ell 274, elapsed: 0.0005390644073486328
ell 273, elapsed: 0.0006539821624755859
ell 272, elapsed: 0.0006091594696044922
ell 271, elapsed: 0.0004820823669433594
ell 270, elapsed: 0.0004680156707763672
ell 269, elapsed: 0.0005440711975097656
ell 268, elapsed: 0.000492095947265625
ell 267, elapsed: 0.0004761219024658203
ell 266, elapsed: 0.0005240440368652344
ell 265, elapsed: 0.0003800392150878906
ell 264, elapsed: 0.0003600120544433594
ell 263, elapsed: 0.0003180503845214844
ell 262, elapsed: 0.00037407875061035156
ell 261, elapsed: 0.00036597251892089844
ell 260, elapsed: 0.0003590583801269531
ell 259, elapsed: 0.00037097930908203125
ell 258, elapsed: 0.00036406517028808594
ell 257, elapsed: 0.00038504600524902344
ell 256, elapsed: 0.00037217140197753906
ell 255, elapsed: 0.00036406517028808594
ell 254, elapsed: 0.0003590583801269531
ell 253, elapsed: 0.00032401084899902344
ell 252, elapsed: 0.000370025634765625
ell 251, elapsed: 0.0003638267517089844
ell 250, elapsed: 0.00035500526428222656
ell 249, elapsed: 0.00037097930908203125
ell 248, elapsed: 0.0003578662872314453
ell 247, elapsed: 0.0003712177276611328
ell 246, elapsed: 0.0003719329833984375
ell 245, elapsed: 0.0003619194030761719
ell 244, elapsed: 0.0003612041473388672
ell 243, elapsed: 0.00036597251892089844
ell 242, elapsed: 0.00036597251892089844
ell 241, elapsed: 0.00035500526428222656
ell 240, elapsed: 0.00037384033203125
ell 239, elapsed: 0.00036716461181640625
ell 238, elapsed: 0.00035500526428222656
ell 237, elapsed: 0.0003910064697265625
ell 236, elapsed: 0.0003669261932373047
ell 235, elapsed: 0.00035381317138671875
ell 234, elapsed: 0.00036978721618652344
ell 233, elapsed: 0.0003590583801269531
ell 232, elapsed: 0.00035881996154785156
ell 231, elapsed: 0.0003631114959716797
ell 230, elapsed: 0.0003631114959716797
ell 229, elapsed: 0.0003521442413330078
ell 228, elapsed: 0.0003612041473388672
ell 227, elapsed: 0.0003790855407714844
ell 226, elapsed: 0.0003650188446044922
ell 225, elapsed: 0.00036716461181640625
ell 224, elapsed: 0.00035881996154785156
ell 223, elapsed: 0.00035119056701660156
ell 222, elapsed: 0.0003581047058105469
ell 221, elapsed: 0.0003829002380371094
ell 220, elapsed: 0.0003559589385986328
ell 219, elapsed: 0.0003559589385986328
ell 218, elapsed: 0.0003647804260253906
ell 217, elapsed: 0.0003840923309326172
ell 216, elapsed: 0.0003590583801269531
ell 215, elapsed: 0.0003859996795654297
ell 214, elapsed: 0.00035691261291503906
ell 213, elapsed: 0.0003581047058105469
ell 212, elapsed: 0.0003619194030761719
ell 211, elapsed: 0.0003650188446044922
ell 210, elapsed: 0.0003609657287597656
ell 209, elapsed: 0.0003561973571777344
ell 208, elapsed: 0.0003559589385986328
ell 207, elapsed: 0.0003769397735595703
ell 206, elapsed: 0.0003590583801269531
ell 205, elapsed: 0.0003628730773925781
ell 204, elapsed: 0.0003559589385986328
ell 203, elapsed: 0.0003559589385986328
ell 202, elapsed: 0.00035881996154785156
ell 201, elapsed: 0.0003561973571777344
ell 200, elapsed: 0.0003590583801269531
ell 199, elapsed: 0.0003578662872314453
ell 198, elapsed: 0.00035500526428222656
ell 197, elapsed: 0.0003609657287597656
ell 196, elapsed: 0.0005400180816650391
ell 195, elapsed: 0.0005421638488769531
ell 194, elapsed: 0.0005011558532714844
ell 193, elapsed: 0.0005340576171875
ell 192, elapsed: 0.0005350112915039062
ell 191, elapsed: 0.0005009174346923828
ell 190, elapsed: 0.0004858970642089844
ell 189, elapsed: 0.00047516822814941406
ell 188, elapsed: 0.00048089027404785156
ell 187, elapsed: 0.00047397613525390625
ell 186, elapsed: 0.0005350112915039062
ell 185, elapsed: 0.0005068778991699219
ell 184, elapsed: 0.0004749298095703125
ell 183, elapsed: 0.00047898292541503906
ell 182, elapsed: 0.0005450248718261719
ell 181, elapsed: 0.0005009174346923828
ell 180, elapsed: 0.0004799365997314453
ell 179, elapsed: 0.0005309581756591797
ell 178, elapsed: 0.0005087852478027344
ell 177, elapsed: 0.0005338191986083984
ell 176, elapsed: 0.0004990100860595703
ell 175, elapsed: 0.0004839897155761719
ell 174, elapsed: 0.0004730224609375
ell 173, elapsed: 0.0005421638488769531
ell 172, elapsed: 0.0004999637603759766
ell 171, elapsed: 0.00047588348388671875
ell 170, elapsed: 0.0005350112915039062
ell 169, elapsed: 0.0005011558532714844
ell 168, elapsed: 0.0005459785461425781
ell 167, elapsed: 0.0005319118499755859
ell 166, elapsed: 0.0005140304565429688
ell 165, elapsed: 0.00047588348388671875
ell 164, elapsed: 0.0004761219024658203
ell 163, elapsed: 0.0004801750183105469
ell 162, elapsed: 0.0004711151123046875
ell 161, elapsed: 0.0004928112030029297
ell 160, elapsed: 0.00047707557678222656
ell 159, elapsed: 0.0004749298095703125
ell 158, elapsed: 0.00047898292541503906
ell 157, elapsed: 0.0004761219024658203
ell 156, elapsed: 0.0004780292510986328
ell 155, elapsed: 0.00047898292541503906
ell 154, elapsed: 0.0005300045013427734
ell 153, elapsed: 0.000518798828125
ell 152, elapsed: 0.0004699230194091797
ell 151, elapsed: 0.0004818439483642578
ell 150, elapsed: 0.0004761219024658203
ell 149, elapsed: 0.00047588348388671875
ell 148, elapsed: 0.0004780292510986328
ell 147, elapsed: 0.0004749298095703125
ell 146, elapsed: 0.0004889965057373047
ell 145, elapsed: 0.0005309581756591797
ell 144, elapsed: 0.0005080699920654297
ell 143, elapsed: 0.0005362033843994141
ell 142, elapsed: 0.0005021095275878906
ell 141, elapsed: 0.00047898292541503906
ell 140, elapsed: 0.0004730224609375
ell 139, elapsed: 0.0004820823669433594
ell 138, elapsed: 0.0004718303680419922
ell 137, elapsed: 0.00047206878662109375
ell 136, elapsed: 0.0004780292510986328
ell 135, elapsed: 0.00047397613525390625
ell 134, elapsed: 0.0004820823669433594
ell 133, elapsed: 0.00047516822814941406
ell 132, elapsed: 0.00047707557678222656
ell 131, elapsed: 0.0005478858947753906
ell 130, elapsed: 0.0005011558532714844
ell 129, elapsed: 0.0004799365997314453
ell 128, elapsed: 0.00047898292541503906
ell 127, elapsed: 0.0004730224609375
ell 126, elapsed: 0.00047898292541503906
ell 125, elapsed: 0.00047206878662109375
ell 124, elapsed: 0.00048804283142089844
ell 123, elapsed: 0.0005259513854980469
ell 122, elapsed: 0.0005071163177490234
ell 121, elapsed: 0.0005350112915039062
ell 120, elapsed: 0.0005080699920654297
ell 119, elapsed: 0.0004899501800537109
ell 118, elapsed: 0.00047397613525390625
ell 117, elapsed: 0.00047707557678222656
ell 116, elapsed: 0.0005049705505371094
ell 115, elapsed: 0.00047206878662109375
ell 114, elapsed: 0.0004811286926269531
ell 113, elapsed: 0.00046896934509277344
ell 112, elapsed: 0.00047397613525390625
ell 111, elapsed: 0.0004818439483642578
ell 110, elapsed: 0.00047898292541503906
ell 109, elapsed: 0.0004949569702148438
ell 108, elapsed: 0.00047588348388671875
ell 107, elapsed: 0.00047898292541503906
ell 106, elapsed: 0.00047397613525390625
ell 105, elapsed: 0.00047707557678222656
ell 104, elapsed: 0.0004830360412597656
ell 103, elapsed: 0.0004749298095703125
ell 102, elapsed: 0.0005440711975097656
ell 101, elapsed: 0.0005168914794921875
ell 100, elapsed: 0.0005300045013427734
ell 99, elapsed: 0.0005171298980712891
ell 98, elapsed: 0.0004780292510986328
ell 97, elapsed: 0.00048089027404785156
ell 96, elapsed: 0.00047206878662109375
ell 95, elapsed: 0.0004761219024658203
ell 94, elapsed: 0.0004878044128417969
ell 93, elapsed: 0.00047397613525390625
ell 92, elapsed: 0.00047707557678222656
ell 91, elapsed: 0.0005311965942382812
ell 90, elapsed: 0.0005040168762207031
ell 89, elapsed: 0.0004839897155761719
ell 88, elapsed: 0.0004780292510986328
ell 87, elapsed: 0.0004918575286865234
ell 86, elapsed: 0.0004749298095703125
ell 85, elapsed: 0.0004749298095703125
ell 84, elapsed: 0.0004799365997314453
ell 83, elapsed: 0.00047898292541503906
ell 82, elapsed: 0.00047898292541503906
ell 81, elapsed: 0.00047397613525390625
ell 80, elapsed: 0.0004749298095703125
ell 79, elapsed: 0.0005469322204589844
ell 78, elapsed: 0.0005030632019042969
ell 77, elapsed: 0.00047779083251953125
ell 76, elapsed: 0.0005300045013427734
ell 75, elapsed: 0.0005400180816650391
ell 74, elapsed: 0.0005040168762207031
ell 73, elapsed: 0.0004780292510986328
ell 72, elapsed: 0.0005002021789550781
ell 71, elapsed: 0.00047588348388671875
ell 70, elapsed: 0.0004830360412597656
ell 69, elapsed: 0.00047588348388671875
ell 68, elapsed: 0.0004761219024658203
ell 67, elapsed: 0.00037598609924316406
ell 66, elapsed: 0.00039196014404296875
ell 65, elapsed: 0.00037598609924316406
ell 64, elapsed: 0.0004000663757324219
ell 63, elapsed: 0.0003719329833984375
ell 62, elapsed: 0.00037288665771484375
ell 61, elapsed: 0.000370025634765625
ell 60, elapsed: 0.00037288665771484375
ell 59, elapsed: 0.00036597251892089844
ell 58, elapsed: 0.000370025634765625
ell 57, elapsed: 0.0003719329833984375
ell 56, elapsed: 0.00037097930908203125
ell 55, elapsed: 0.00037217140197753906
ell 54, elapsed: 0.0003859996795654297
ell 53, elapsed: 0.00036787986755371094
ell 52, elapsed: 0.0003719329833984375
ell 51, elapsed: 0.00036907196044921875
ell 50, elapsed: 0.00036787986755371094
ell 49, elapsed: 0.00036215782165527344
ell 48, elapsed: 0.0003771781921386719
ell 47, elapsed: 0.0003590583801269531
ell 46, elapsed: 0.0003609657287597656
ell 45, elapsed: 0.0003681182861328125
ell 44, elapsed: 0.0003981590270996094
ell 43, elapsed: 0.0003647804260253906
ell 42, elapsed: 0.000370025634765625
ell 41, elapsed: 0.0003638267517089844
ell 40, elapsed: 0.00032210350036621094
ell 39, elapsed: 0.00031685829162597656
ell 38, elapsed: 0.00032210350036621094
ell 37, elapsed: 0.0003159046173095703
ell 36, elapsed: 0.0003170967102050781
ell 35, elapsed: 0.0003199577331542969
ell 34, elapsed: 0.00031495094299316406
ell 33, elapsed: 0.00032401084899902344
ell 32, elapsed: 0.0003151893615722656
ell 31, elapsed: 0.0003161430358886719
ell 30, elapsed: 0.0003190040588378906
ell 29, elapsed: 0.0003159046173095703
ell 28, elapsed: 0.0003180503845214844
ell 27, elapsed: 0.0003190040588378906
ell 26, elapsed: 0.00031685829162597656
ell 25, elapsed: 0.0003211498260498047
ell 24, elapsed: 0.0003139972686767578
ell 23, elapsed: 0.0003218650817871094
ell 22, elapsed: 0.00032401084899902344
ell 21, elapsed: 0.00031685829162597656
ell 20, elapsed: 0.00031113624572753906
ell 19, elapsed: 0.000308990478515625
ell 18, elapsed: 0.00031495094299316406
ell 17, elapsed: 0.0003108978271484375
ell 16, elapsed: 0.00031280517578125
ell 15, elapsed: 0.00030303001403808594
ell 14, elapsed: 0.0003039836883544922
ell 13, elapsed: 0.00030994415283203125
ell 12, elapsed: 0.0003020763397216797
ell 11, elapsed: 0.0003268718719482422
ell 10, elapsed: 0.0003018379211425781
ell 9, elapsed: 0.00030612945556640625
ell 8, elapsed: 0.0003509521484375
ell 7, elapsed: 0.0003771781921386719
ell 6, elapsed: 0.00032401084899902344
ell 5, elapsed: 0.00030612945556640625
ell 4, elapsed: 0.0003120899200439453
ell 3, elapsed: 0.00031113624572753906
ell 2, elapsed: 0.00030612945556640625
ell 1, elapsed: 0.0003039836883544922
ell 0, elapsed: 0.0003199577331542969
  0.894531 seconds (103.17 k allocations: 3.963 MiB)
elapsed: 0.0003731250762939453
step:          0.073246 sec (0 allocations: 0 byte, 0.0% gc time)
swapping:      0.000784 sec (0 allocations: 0 byte, 0.0% gc time)
calc_Mellell!: 0.011761 sec (0 allocations: 0 byte, 0.0% gc time)
  t0 :  0.00244 sec (0 allocations: 0 byte, 0.0% gc time)
  tm2 : 0.105433 sec (0 allocations: 0 byte, 0.0% gc time)
  tm2s: 0.001599 sec (0 allocations: 0 byte, 0.0% gc time)
  tm4 : 0.276573 sec (0 allocations: 0 byte, 0.0% gc time)
  tp2 : 0.0 sec (0 allocations: 0 byte, 0.0% gc time)
  tp2s: 0.0 sec (0 allocations: 0 byte, 0.0% gc time)
  tp4 : 0.0 sec (0 allocations: 0 byte, 0.0% gc time)
calc_wtdll!:   0.421418 sec (9.9 k allocations: 1.047 MB, 0.0% gc time)
calc_wljj!:    0.040805 sec (689 allocations: 10.766 KB, 0.0% gc time)
mult_prefac!:  0.0 sec (0 allocations: 0 byte, 0.0% gc time)
convert:       0.0 sec (0 allocations: 0 byte, 0.0% gc time)
write:         0.049638 sec (0 allocations: 0 byte, 0.0% gc time)
test_rand_2f1: 0.0 sec (0 allocations: 0 byte, 0.0% gc time)
Closing outfile out/Ml21-cache.bin...   0.000006 seconds
  0.000779 seconds (36 allocations: 27.953 KiB)
make_phi():   0.005506 seconds (8.18 k allocations: 237.844 KiB)
  0.364995 seconds (141.90 k allocations: 3.483 MiB)
tskip:       0.001998 sec (0 allocations: 0 byte, 0.0% gc time)
tread:       0.051271 sec (17 allocations: 10.641 KB, 0.0% gc time)
tmultphi:    0.028372 sec (0 allocations: 0 byte, 0.0% gc time)
tbrfft:      0.090277 sec (0 allocations: 0 byte, 0.0% gc time)
tmultprefac: 0.056025 sec (0 allocations: 0 byte, 0.0% gc time)
toutfunc:    0.128049 sec (127.507 k allocations: 2.312 MB, 0.0% gc time)
Testing R=1.0 ... passed
Calculating fmax: 
  dlrec    = 4
  dlrecRg1 = -4
  q=1.1, R=0.9:	  0.612845 seconds (105.76 k allocations: 15.287 MiB)

  0.613540 seconds (105.99 k allocations: 15.324 MiB)
ℓ = 1202
Δℓ = 4
ΔℓRg1 = -4
N = 1600
q = 1.1
kmin = 1.0e-5
kmax = 100000.00000000004
χ0 = 0.023029999999999995
RR = RR.tsv
ℓmax = ℓmax.bin
f21 = f21.bin
kmin = 1.0e-5
kmax = 100000.0
dlrec    = 4
dlrecRg1 = -4
Output size: 5741568 bytes = 0.005347251892089844 GiB
Output size: 51264 bytes = 4.774332046508789e-5 GiB
Reading 'out/F21EllCache'...   0.001661 seconds (197 allocations: 84.203 KiB)
ellmax: 1202
lmaxcache: 1202
fell[:,1,1] = ComplexF64[1.3482014726274674e-57 - 3.302141236118086e-73im, 1.357860004724329e-57 - 3.3257978169518355e-73im]
ell 1202, elapsed: 0.000102996826171875
ell 1201, elapsed: 0.0005218982696533203
ell 1200, elapsed: 0.00043702125549316406
ell 1199, elapsed: 0.000469207763671875
ell 1198, elapsed: 0.0004949569702148438
ell 1002, elapsed: 0.010296821594238281
ell 1001, elapsed: 0.00043702125549316406
ell 1000, elapsed: 0.00043892860412597656
ell 999, elapsed: 0.0004379749298095703
ell 998, elapsed: 0.0004248619079589844
ell 902, elapsed: 0.005455970764160156
ell 901, elapsed: 0.0004379749298095703
ell 900, elapsed: 0.00046515464782714844
ell 899, elapsed: 0.00045990943908691406
ell 898, elapsed: 0.00045490264892578125
ell 802, elapsed: 0.005342960357666016
ell 801, elapsed: 0.00045800209045410156
ell 800, elapsed: 0.0004601478576660156
ell 799, elapsed: 0.0004470348358154297
ell 798, elapsed: 0.00044798851013183594
ell 702, elapsed: 0.005347013473510742
ell 701, elapsed: 0.00040602684020996094
ell 700, elapsed: 0.0003409385681152344
ell 699, elapsed: 0.0003199577331542969
ell 698, elapsed: 0.0003190040588378906
ell 602, elapsed: 0.00475001335144043
ell 601, elapsed: 0.00029015541076660156
ell 600, elapsed: 0.0003440380096435547
ell 599, elapsed: 0.00031304359436035156
ell 598, elapsed: 0.0003421306610107422
ell 502, elapsed: 0.0049169063568115234
ell 501, elapsed: 0.0005161762237548828
ell 500, elapsed: 0.0004589557647705078
ell 499, elapsed: 0.00044083595275878906
ell 498, elapsed: 0.0004410743713378906
ell 402, elapsed: 0.005384922027587891
ell 401, elapsed: 0.0004799365997314453
ell 400, elapsed: 0.00047898292541503906
ell 399, elapsed: 0.00043892860412597656
ell 398, elapsed: 0.00043582916259765625
ell 302, elapsed: 0.005364179611206055
ell 301, elapsed: 0.0005009174346923828
ell 300, elapsed: 0.0004260540008544922
ell 299, elapsed: 0.0004458427429199219
ell 298, elapsed: 0.0004439353942871094
ell 202, elapsed: 0.005379915237426758
ell 201, elapsed: 0.00045299530029296875
ell 200, elapsed: 0.00045490264892578125
ell 199, elapsed: 0.00045800209045410156
ell 198, elapsed: 0.0004520416259765625
ell 152, elapsed: 0.0028519630432128906
ell 151, elapsed: 0.0004410743713378906
ell 150, elapsed: 0.00044798851013183594
ell 149, elapsed: 0.00045299530029296875
ell 148, elapsed: 0.0004401206970214844
ell 127, elapsed: 0.0015769004821777344
ell 126, elapsed: 0.000453948974609375
ell 125, elapsed: 0.0004379749298095703
ell 124, elapsed: 0.0004031658172607422
ell 123, elapsed: 0.0004458427429199219
ell 114, elapsed: 0.0010199546813964844
ell 113, elapsed: 0.0004329681396484375
ell 112, elapsed: 0.00045299530029296875
ell 111, elapsed: 0.0004429817199707031
ell 110, elapsed: 0.0004601478576660156
ell 102, elapsed: 0.0009179115295410156
ell 101, elapsed: 0.0003840923309326172
ell 100, elapsed: 0.00045609474182128906
ell 99, elapsed: 0.00046515464782714844
ell 98, elapsed: 0.00047206878662109375
ell 97, elapsed: 0.0005309581756591797
ell 96, elapsed: 0.0005280971527099609
ell 95, elapsed: 0.0005211830139160156
ell 94, elapsed: 0.0005218982696533203
ell 93, elapsed: 0.000518798828125
ell 92, elapsed: 0.0005321502685546875
ell 91, elapsed: 0.0005280971527099609
ell 90, elapsed: 0.0005249977111816406
ell 89, elapsed: 0.0005249977111816406
ell 88, elapsed: 0.0005230903625488281
ell 87, elapsed: 0.0005478858947753906
ell 86, elapsed: 0.0005350112915039062
ell 85, elapsed: 0.0005230903625488281
ell 84, elapsed: 0.0005528926849365234
ell 83, elapsed: 0.0005497932434082031
ell 82, elapsed: 0.0004940032958984375
ell 81, elapsed: 0.0005009174346923828
ell 80, elapsed: 0.0005209445953369141
ell 79, elapsed: 0.0005190372467041016
ell 78, elapsed: 0.0005190372467041016
ell 77, elapsed: 0.0005230903625488281
ell 76, elapsed: 0.0005331039428710938
ell 75, elapsed: 0.0005240440368652344
ell 74, elapsed: 0.0005350112915039062
ell 73, elapsed: 0.0005300045013427734
ell 72, elapsed: 0.0005218982696533203
ell 71, elapsed: 0.0005350112915039062
ell 70, elapsed: 0.0005280971527099609
ell 69, elapsed: 0.0005450248718261719
ell 68, elapsed: 0.0005228519439697266
ell 67, elapsed: 0.0005130767822265625
ell 66, elapsed: 0.0004999637603759766
ell 65, elapsed: 0.0005230903625488281
ell 64, elapsed: 0.0005340576171875
ell 63, elapsed: 0.0005290508270263672
ell 62, elapsed: 0.0005321502685546875
ell 61, elapsed: 0.0005238056182861328
ell 60, elapsed: 0.0005400180816650391
ell 59, elapsed: 0.0005409717559814453
ell 58, elapsed: 0.000514984130859375
ell 57, elapsed: 0.0004889965057373047
ell 56, elapsed: 0.0004949569702148438
ell 55, elapsed: 0.0005309581756591797
ell 54, elapsed: 0.0005290508270263672
ell 53, elapsed: 0.0005168914794921875
ell 52, elapsed: 0.0005290508270263672
ell 51, elapsed: 0.0005171298980712891
ell 50, elapsed: 0.0005218982696533203
ell 49, elapsed: 0.0005400180816650391
ell 48, elapsed: 0.0005440711975097656
ell 47, elapsed: 0.0005259513854980469
ell 46, elapsed: 0.0005359649658203125
ell 45, elapsed: 0.0005140304565429688
ell 44, elapsed: 0.0005040168762207031
ell 43, elapsed: 0.0004999637603759766
ell 42, elapsed: 0.0005300045013427734
ell 41, elapsed: 0.0005309581756591797
ell 40, elapsed: 0.0005028247833251953
ell 39, elapsed: 0.0004839897155761719
ell 38, elapsed: 0.0005228519439697266
ell 37, elapsed: 0.0005018711090087891
ell 36, elapsed: 0.0004551410675048828
ell 35, elapsed: 0.0005009174346923828
ell 34, elapsed: 0.0005381107330322266
ell 33, elapsed: 0.0005190372467041016
ell 32, elapsed: 0.0005049705505371094
ell 31, elapsed: 0.0005021095275878906
ell 30, elapsed: 0.0004801750183105469
ell 29, elapsed: 0.0005180835723876953
ell 28, elapsed: 0.0005218982696533203
ell 27, elapsed: 0.0005221366882324219
ell 26, elapsed: 0.0005061626434326172
ell 25, elapsed: 0.0005190372467041016
ell 24, elapsed: 0.0004999637603759766
ell 23, elapsed: 0.0005052089691162109
ell 22, elapsed: 0.0005340576171875
ell 21, elapsed: 0.0004930496215820312
ell 20, elapsed: 0.0005018711090087891
ell 19, elapsed: 0.0005249977111816406
ell 18, elapsed: 0.0005199909210205078
ell 17, elapsed: 0.0005159378051757812
ell 16, elapsed: 0.0005319118499755859
ell 15, elapsed: 0.0005321502685546875
ell 14, elapsed: 0.0005159378051757812
ell 13, elapsed: 0.0005331039428710938
ell 12, elapsed: 0.0005278587341308594
ell 11, elapsed: 0.0005490779876708984
ell 10, elapsed: 0.0005300045013427734
ell 9, elapsed: 0.0005240440368652344
ell 8, elapsed: 0.0005159378051757812
ell 7, elapsed: 0.0005090236663818359
ell 6, elapsed: 0.0005240440368652344
ell 5, elapsed: 0.0005371570587158203
ell 4, elapsed: 0.0005309581756591797
ell 3, elapsed: 0.0005280971527099609
ell 2, elapsed: 0.0005340576171875
ell 1, elapsed: 0.0005450248718261719
ell 0, elapsed: 0.0005359649658203125
  0.169602 seconds (19.49 k allocations: 844.391 KiB)
elapsed: 0.0009710788726806641
step:          0.058554 sec (0 allocations: 0 byte, 0.0% gc time)
swapping:      0.000494 sec (0 allocations: 0 byte, 0.0% gc time)
calc_Mellell!: 0.001597 sec (0 allocations: 0 byte, 0.0% gc time)
  t0 :  0.000391 sec (0 allocations: 0 byte, 0.0% gc time)
  tm2 : 0.013353 sec (0 allocations: 0 byte, 0.0% gc time)
  tm2s: 0.000294 sec (0 allocations: 0 byte, 0.0% gc time)
  tm4 : 0.035438 sec (0 allocations: 0 byte, 0.0% gc time)
  tp2 : 0.0 sec (0 allocations: 0 byte, 0.0% gc time)
  tp2s: 0.0 sec (0 allocations: 0 byte, 0.0% gc time)
  tp4 : 0.0 sec (0 allocations: 0 byte, 0.0% gc time)
calc_wtdll!:   0.050426 sec (1.344 k allocations: 147.0 KB, 0.0% gc time)
calc_wljj!:    0.004005 sec (6 allocations: 96 byte, 0.0% gc time)
mult_prefac!:  0.0 sec (0 allocations: 0 byte, 0.0% gc time)
convert:       0.0 sec (0 allocations: 0 byte, 0.0% gc time)
write:         0.004182 sec (0 allocations: 0 byte, 0.0% gc time)
test_rand_2f1: 0.0 sec (0 allocations: 0 byte, 0.0% gc time)
Closing outfile out/Ml21-cache.bin...   0.000018 seconds
  0.000483 seconds (36 allocations: 27.953 KiB)
make_phi():   0.002766 seconds (8.18 k allocations: 237.844 KiB)
  0.016869 seconds (11.65 k allocations: 308.688 KiB)
tskip:       1.9e-5 sec (0 allocations: 0 byte, 0.0% gc time)
tread:       0.002593 sec (17 allocations: 2.125 KB, 0.0% gc time)
tmultphi:    0.001411 sec (0 allocations: 0 byte, 0.0% gc time)
tbrfft:      0.004052 sec (0 allocations: 0 byte, 0.0% gc time)
tmultprefac: 0.002957 sec (0 allocations: 0 byte, 0.0% gc time)
toutfunc:    0.005365 sec (10.304 k allocations: 196.0 KB, 0.0% gc time)
Testing R=0.9 ... passed
Calculating fmax: 
  dlrec    = 4
  dlrecRg1 = -4
  q=1.1, R=0.8:	  0.426163 seconds (103.25 k allocations: 14.856 MiB)

  0.427332 seconds (103.48 k allocations: 14.893 MiB)
ℓ = 1202
Δℓ = 4
ΔℓRg1 = -4
N = 1600
q = 1.1
kmin = 1.0e-5
kmax = 100000.00000000004
χ0 = 0.023029999999999995
RR = RR.tsv
ℓmax = ℓmax.bin
f21 = f21.bin
kmin = 1.0e-5
kmax = 100000.0
dlrec    = 4
dlrecRg1 = -4
Output size: 5741568 bytes = 0.005347251892089844 GiB
Output size: 51264 bytes = 4.774332046508789e-5 GiB
Reading 'out/F21EllCache'...   0.001018 seconds (197 allocations: 84.203 KiB)
ellmax: 1202
lmaxcache: 1202
fell[:,1,1] = ComplexF64[7.519068145690986e-120 - 1.8416405474382574e-135im, 7.541664537386155e-120 - 1.847175067190611e-135im]
ell 1202, elapsed: 0.00011801719665527344
ell 1201, elapsed: 0.0005621910095214844
ell 1200, elapsed: 0.0004742145538330078
ell 1199, elapsed: 0.0004570484161376953
ell 1198, elapsed: 0.0004918575286865234
ell 1002, elapsed: 0.010443925857543945
ell 1001, elapsed: 0.00048804283142089844
ell 1000, elapsed: 0.00049591064453125
ell 999, elapsed: 0.0004799365997314453
ell 998, elapsed: 0.0005209445953369141
ell 902, elapsed: 0.0052890777587890625
ell 901, elapsed: 0.0005769729614257812
ell 900, elapsed: 0.00045490264892578125
ell 899, elapsed: 0.0005280971527099609
ell 898, elapsed: 0.0004849433898925781
ell 802, elapsed: 0.005352973937988281
ell 801, elapsed: 0.0005099773406982422
ell 800, elapsed: 0.0004119873046875
ell 799, elapsed: 0.0004057884216308594
ell 798, elapsed: 0.000408172607421875
ell 702, elapsed: 0.005196809768676758
ell 701, elapsed: 0.0004420280456542969
ell 700, elapsed: 0.00041794776916503906
ell 699, elapsed: 0.000431060791015625
ell 698, elapsed: 0.0004849433898925781
ell 602, elapsed: 0.00533604621887207
ell 601, elapsed: 0.00046706199645996094
ell 600, elapsed: 0.00038313865661621094
ell 599, elapsed: 0.0004830360412597656
ell 598, elapsed: 0.0004780292510986328
ell 502, elapsed: 0.00531005859375
ell 501, elapsed: 0.0004010200500488281
ell 500, elapsed: 0.0005049705505371094
ell 499, elapsed: 0.00042700767517089844
ell 498, elapsed: 0.00049591064453125
ell 402, elapsed: 0.005258083343505859
ell 401, elapsed: 0.0004401206970214844
ell 400, elapsed: 0.0004279613494873047
ell 399, elapsed: 0.0004291534423828125
ell 398, elapsed: 0.00047087669372558594
ell 302, elapsed: 0.005316972732543945
ell 301, elapsed: 0.0004448890686035156
ell 300, elapsed: 0.0004379749298095703
ell 299, elapsed: 0.00040602684020996094
ell 298, elapsed: 0.00049591064453125
ell 202, elapsed: 0.0052759647369384766
ell 201, elapsed: 0.0004200935363769531
ell 200, elapsed: 0.00039505958557128906
ell 199, elapsed: 0.0004489421844482422
ell 198, elapsed: 0.00048089027404785156
ell 152, elapsed: 0.002830982208251953
ell 151, elapsed: 0.0003540515899658203
ell 150, elapsed: 0.0004730224609375
ell 149, elapsed: 0.0003528594970703125
ell 148, elapsed: 0.0005209445953369141
ell 127, elapsed: 0.0015320777893066406
ell 126, elapsed: 0.0005052089691162109
ell 125, elapsed: 0.0005049705505371094
ell 124, elapsed: 0.00038695335388183594
ell 123, elapsed: 0.0003809928894042969
ell 114, elapsed: 0.0009260177612304688
ell 113, elapsed: 0.0005180835723876953
ell 112, elapsed: 0.0004830360412597656
ell 111, elapsed: 0.0004870891571044922
ell 110, elapsed: 0.0004749298095703125
ell 102, elapsed: 0.0008749961853027344
ell 101, elapsed: 0.00035500526428222656
ell 100, elapsed: 0.000476837158203125
ell 99, elapsed: 0.0004780292510986328
ell 98, elapsed: 0.00049591064453125
ell 97, elapsed: 0.0006310939788818359
ell 96, elapsed: 0.0005819797515869141
ell 95, elapsed: 0.0005431175231933594
ell 94, elapsed: 0.0006010532379150391
ell 93, elapsed: 0.0005571842193603516
ell 92, elapsed: 0.0005660057067871094
ell 91, elapsed: 0.0006079673767089844
ell 90, elapsed: 0.0005979537963867188
ell 89, elapsed: 0.0006220340728759766
ell 88, elapsed: 0.0005939006805419922
ell 87, elapsed: 0.0005822181701660156
ell 86, elapsed: 0.0006430149078369141
ell 85, elapsed: 0.0006148815155029297
ell 84, elapsed: 0.0006341934204101562
ell 83, elapsed: 0.0006580352783203125
ell 82, elapsed: 0.0006709098815917969
ell 81, elapsed: 0.0005819797515869141
ell 80, elapsed: 0.0005550384521484375
ell 79, elapsed: 0.0005919933319091797
ell 78, elapsed: 0.0006158351898193359
ell 77, elapsed: 0.0005860328674316406
ell 76, elapsed: 0.0005929470062255859
ell 75, elapsed: 0.0005691051483154297
ell 74, elapsed: 0.0005400180816650391
ell 73, elapsed: 0.0005199909210205078
ell 72, elapsed: 0.0005550384521484375
ell 71, elapsed: 0.0005841255187988281
ell 70, elapsed: 0.0005450248718261719
ell 69, elapsed: 0.000598907470703125
ell 68, elapsed: 0.0006010532379150391
ell 67, elapsed: 0.0005841255187988281
ell 66, elapsed: 0.0005948543548583984
ell 65, elapsed: 0.0005860328674316406
ell 64, elapsed: 0.0005679130554199219
ell 63, elapsed: 0.0005438327789306641
ell 62, elapsed: 0.0005619525909423828
ell 61, elapsed: 0.0005888938903808594
ell 60, elapsed: 0.0005750656127929688
ell 59, elapsed: 0.0006160736083984375
ell 58, elapsed: 0.0006079673767089844
ell 57, elapsed: 0.0006191730499267578
ell 56, elapsed: 0.0006051063537597656
ell 55, elapsed: 0.0006120204925537109
ell 54, elapsed: 0.0006132125854492188
ell 53, elapsed: 0.0006170272827148438
ell 52, elapsed: 0.0006139278411865234
ell 51, elapsed: 0.0006110668182373047
ell 50, elapsed: 0.0005829334259033203
ell 49, elapsed: 0.0005941390991210938
ell 48, elapsed: 0.00061798095703125
ell 47, elapsed: 0.0005929470062255859
ell 46, elapsed: 0.0006129741668701172
ell 45, elapsed: 0.0005998611450195312
ell 44, elapsed: 0.0006499290466308594
ell 43, elapsed: 0.0005860328674316406
ell 42, elapsed: 0.0005691051483154297
ell 41, elapsed: 0.0005998611450195312
ell 40, elapsed: 0.0005440711975097656
ell 39, elapsed: 0.0005939006805419922
[...]
ell 789, elapsed: 0.0007309913635253906
ell 788, elapsed: 0.0007381439208984375
ell 782, elapsed: 0.0014109611511230469
ell 781, elapsed: 0.000720977783203125
ell 780, elapsed: 0.0007510185241699219
ell 779, elapsed: 0.0007178783416748047
ell 778, elapsed: 0.0008149147033691406
ell 772, elapsed: 0.0012998580932617188
ell 771, elapsed: 0.0007369518280029297
ell 770, elapsed: 0.0007560253143310547
ell 769, elapsed: 0.0007460117340087891
ell 768, elapsed: 0.0007128715515136719
ell 762, elapsed: 0.0014739036560058594
ell 761, elapsed: 0.0007441043853759766
ell 760, elapsed: 0.0007719993591308594
ell 759, elapsed: 0.0008349418640136719
ell 758, elapsed: 0.0007631778717041016
ell 752, elapsed: 0.0013861656188964844
ell 751, elapsed: 0.0007810592651367188
ell 750, elapsed: 0.0007410049438476562
ell 749, elapsed: 0.00074005126953125
ell 748, elapsed: 0.0007529258728027344
ell 742, elapsed: 0.0013718605041503906
ell 741, elapsed: 0.0007450580596923828
ell 740, elapsed: 0.0007581710815429688
ell 739, elapsed: 0.0007379055023193359
ell 738, elapsed: 0.0007641315460205078
ell 732, elapsed: 0.0014028549194335938
ell 731, elapsed: 0.0007429122924804688
ell 730, elapsed: 0.0007269382476806641
ell 729, elapsed: 0.0007250308990478516
ell 728, elapsed: 0.0007419586181640625
ell 722, elapsed: 0.0014069080352783203
ell 721, elapsed: 0.000843048095703125
ell 720, elapsed: 0.0008490085601806641
ell 719, elapsed: 0.000701904296875
ell 718, elapsed: 0.0007300376892089844
ell 712, elapsed: 0.0013310909271240234
ell 711, elapsed: 0.000720977783203125
ell 710, elapsed: 0.0007359981536865234
ell 709, elapsed: 0.0007309913635253906
ell 708, elapsed: 0.0007240772247314453
ell 702, elapsed: 0.0013511180877685547
ell 701, elapsed: 0.0007889270782470703
ell 700, elapsed: 0.0007579326629638672
ell 699, elapsed: 0.0007269382476806641
ell 698, elapsed: 0.0007219314575195312
ell 692, elapsed: 0.0013980865478515625
ell 691, elapsed: 0.0008139610290527344
ell 690, elapsed: 0.0007221698760986328
ell 689, elapsed: 0.0007240772247314453
ell 688, elapsed: 0.0007100105285644531
ell 682, elapsed: 0.0013730525970458984
ell 681, elapsed: 0.0007579326629638672
ell 680, elapsed: 0.0007190704345703125
ell 679, elapsed: 0.0007569789886474609
ell 678, elapsed: 0.0007681846618652344
ell 672, elapsed: 0.0014808177947998047
ell 671, elapsed: 0.0007119178771972656
ell 670, elapsed: 0.0007288455963134766
ell 669, elapsed: 0.000720977783203125
ell 668, elapsed: 0.00072479248046875
ell 662, elapsed: 0.0013551712036132812
ell 661, elapsed: 0.0006949901580810547
ell 660, elapsed: 0.0007271766662597656
ell 659, elapsed: 0.0007381439208984375
ell 658, elapsed: 0.0008158683776855469
ell 652, elapsed: 0.0013210773468017578
ell 651, elapsed: 0.0007309913635253906
ell 650, elapsed: 0.0007319450378417969
ell 649, elapsed: 0.0008080005645751953
ell 648, elapsed: 0.0007441043853759766
ell 642, elapsed: 0.0014128684997558594
ell 641, elapsed: 0.0007750988006591797
ell 640, elapsed: 0.000888824462890625
ell 639, elapsed: 0.0007390975952148438
ell 638, elapsed: 0.0007522106170654297
ell 632, elapsed: 0.0013959407806396484
ell 631, elapsed: 0.0008180141448974609
ell 630, elapsed: 0.0007388591766357422
ell 629, elapsed: 0.0007159709930419922
ell 628, elapsed: 0.0007379055023193359
ell 622, elapsed: 0.0014388561248779297
ell 621, elapsed: 0.0007259845733642578
ell 620, elapsed: 0.0007379055023193359
ell 619, elapsed: 0.0007140636444091797
ell 618, elapsed: 0.0007300376892089844
ell 612, elapsed: 0.0014190673828125
ell 611, elapsed: 0.0007350444793701172
ell 610, elapsed: 0.0007369518280029297
ell 609, elapsed: 0.000720977783203125
ell 608, elapsed: 0.0007450580596923828
ell 602, elapsed: 0.001444101333618164
ell 601, elapsed: 0.0007181167602539062
ell 600, elapsed: 0.00074005126953125
ell 599, elapsed: 0.0007250308990478516
ell 598, elapsed: 0.0008111000061035156
ell 592, elapsed: 0.0013561248779296875
ell 591, elapsed: 0.0007228851318359375
ell 590, elapsed: 0.0007269382476806641
ell 589, elapsed: 0.0008399486541748047
ell 588, elapsed: 0.000743865966796875
ell 582, elapsed: 0.0013670921325683594
ell 581, elapsed: 0.00074005126953125
ell 580, elapsed: 0.0008509159088134766
ell 579, elapsed: 0.0007510185241699219
ell 578, elapsed: 0.0007309913635253906
ell 572, elapsed: 0.0013790130615234375
ell 571, elapsed: 0.0009720325469970703
ell 570, elapsed: 0.0007059574127197266
ell 569, elapsed: 0.0007131099700927734
ell 568, elapsed: 0.0007331371307373047
ell 562, elapsed: 0.0016200542449951172
ell 561, elapsed: 0.00074005126953125
ell 560, elapsed: 0.0007271766662597656
ell 559, elapsed: 0.0007269382476806641
ell 558, elapsed: 0.0007240772247314453
ell 552, elapsed: 0.0014500617980957031
ell 551, elapsed: 0.0007419586181640625
ell 550, elapsed: 0.0007328987121582031
ell 549, elapsed: 0.0007169246673583984
ell 548, elapsed: 0.0008060932159423828
ell 542, elapsed: 0.0014309883117675781
ell 541, elapsed: 0.0007140636444091797
ell 540, elapsed: 0.0007090568542480469
ell 539, elapsed: 0.0008869171142578125
ell 538, elapsed: 0.0007688999176025391
ell 532, elapsed: 0.0014369487762451172
ell 531, elapsed: 0.0007839202880859375
ell 530, elapsed: 0.0007839202880859375
ell 529, elapsed: 0.0007588863372802734
ell 528, elapsed: 0.0007560253143310547
ell 522, elapsed: 0.0014560222625732422
ell 521, elapsed: 0.0008668899536132812
ell 520, elapsed: 0.0007760524749755859
ell 519, elapsed: 0.0007390975952148438
ell 518, elapsed: 0.0007679462432861328
ell 512, elapsed: 0.0014269351959228516
ell 511, elapsed: 0.0007190704345703125
ell 510, elapsed: 0.0007419586181640625
ell 509, elapsed: 0.00074005126953125
ell 508, elapsed: 0.0007328987121582031
ell 502, elapsed: 0.0014939308166503906
ell 501, elapsed: 0.0007741451263427734
ell 500, elapsed: 0.0007679462432861328
ell 499, elapsed: 0.0008370876312255859
ell 498, elapsed: 0.0007851123809814453
ell 492, elapsed: 0.0014269351959228516
ell 491, elapsed: 0.0007870197296142578
ell 490, elapsed: 0.0007901191711425781
ell 489, elapsed: 0.0008859634399414062
ell 488, elapsed: 0.0007829666137695312
ell 482, elapsed: 0.0014190673828125
ell 481, elapsed: 0.0007650852203369141
ell 480, elapsed: 0.0008680820465087891
ell 479, elapsed: 0.0007588863372802734
ell 478, elapsed: 0.0007648468017578125
ell 472, elapsed: 0.0014281272888183594
ell 471, elapsed: 0.0008490085601806641
ell 470, elapsed: 0.0007600784301757812
ell 469, elapsed: 0.0007450580596923828
ell 468, elapsed: 0.0008101463317871094
ell 462, elapsed: 0.0015079975128173828
ell 461, elapsed: 0.0007688999176025391
ell 460, elapsed: 0.0007679462432861328
ell 459, elapsed: 0.0007638931274414062
ell 458, elapsed: 0.0007791519165039062
ell 452, elapsed: 0.0013659000396728516
ell 451, elapsed: 0.0007610321044921875
ell 450, elapsed: 0.0007658004760742188
ell 449, elapsed: 0.0007491111755371094
ell 448, elapsed: 0.0008699893951416016
ell 442, elapsed: 0.001428842544555664
ell 441, elapsed: 0.0008301734924316406
ell 440, elapsed: 0.0009379386901855469
ell 439, elapsed: 0.0008568763732910156
ell 438, elapsed: 0.0008189678192138672
ell 432, elapsed: 0.0015139579772949219
ell 431, elapsed: 0.0009329319000244141
ell 430, elapsed: 0.0008108615875244141
ell 429, elapsed: 0.0008001327514648438
ell 428, elapsed: 0.0007979869842529297
ell 422, elapsed: 0.0013659000396728516
ell 421, elapsed: 0.0008029937744140625
ell 420, elapsed: 0.0007989406585693359
ell 419, elapsed: 0.0007979869842529297
ell 418, elapsed: 0.0008111000061035156
ell 412, elapsed: 0.0015001296997070312
ell 411, elapsed: 0.0008161067962646484
ell 410, elapsed: 0.0008029937744140625
ell 409, elapsed: 0.0008070468902587891
ell 408, elapsed: 0.0008020401000976562
ell 402, elapsed: 0.0014958381652832031
ell 401, elapsed: 0.0008170604705810547
ell 400, elapsed: 0.0008320808410644531
ell 399, elapsed: 0.0008080005645751953
ell 398, elapsed: 0.0008020401000976562
ell 392, elapsed: 0.0015058517456054688
ell 391, elapsed: 0.0008568763732910156
ell 390, elapsed: 0.0008189678192138672
ell 389, elapsed: 0.0008208751678466797
ell 388, elapsed: 0.0008020401000976562
ell 382, elapsed: 0.001438140869140625
ell 381, elapsed: 0.0007688999176025391
ell 380, elapsed: 0.0007619857788085938
ell 379, elapsed: 0.0007598400115966797
ell 378, elapsed: 0.0007641315460205078
ell 372, elapsed: 0.0014350414276123047
ell 371, elapsed: 0.0007729530334472656
ell 370, elapsed: 0.0007560253143310547
ell 369, elapsed: 0.0007791519165039062
ell 368, elapsed: 0.0007669925689697266
ell 362, elapsed: 0.0014801025390625
ell 361, elapsed: 0.0007829666137695312
ell 360, elapsed: 0.00074005126953125
ell 359, elapsed: 0.0007429122924804688
ell 358, elapsed: 0.0007448196411132812
ell 352, elapsed: 0.0014538764953613281
ell 351, elapsed: 0.0007779598236083984
ell 350, elapsed: 0.0007548332214355469
ell 349, elapsed: 0.0007481575012207031
ell 348, elapsed: 0.0007460117340087891
ell 342, elapsed: 0.0013861656188964844
ell 341, elapsed: 0.0007510185241699219
ell 340, elapsed: 0.0007481575012207031
ell 339, elapsed: 0.0007500648498535156
ell 338, elapsed: 0.0007460117340087891
ell 332, elapsed: 0.0014290809631347656
ell 331, elapsed: 0.00078582763671875
ell 330, elapsed: 0.0007441043853759766
ell 329, elapsed: 0.0007460117340087891
ell 328, elapsed: 0.0007398128509521484
ell 322, elapsed: 0.0014939308166503906
ell 321, elapsed: 0.0007610321044921875
ell 320, elapsed: 0.0007638931274414062
ell 319, elapsed: 0.0007669925689697266
ell 318, elapsed: 0.0007569789886474609
ell 312, elapsed: 0.0014910697937011719
ell 311, elapsed: 0.0007700920104980469
ell 310, elapsed: 0.0007650852203369141
ell 309, elapsed: 0.0007450580596923828
ell 308, elapsed: 0.0007610321044921875
ell 302, elapsed: 0.0014269351959228516
ell 301, elapsed: 0.0007829666137695312
ell 300, elapsed: 0.0007579326629638672
ell 299, elapsed: 0.0007390975952148438
ell 298, elapsed: 0.0007300376892089844
ell 292, elapsed: 0.0014700889587402344
ell 291, elapsed: 0.0007700920104980469
ell 290, elapsed: 0.0007660388946533203
ell 289, elapsed: 0.0007281303405761719
ell 288, elapsed: 0.0007100105285644531
ell 282, elapsed: 0.0014181137084960938
ell 281, elapsed: 0.0007610321044921875
ell 280, elapsed: 0.0007500648498535156
ell 279, elapsed: 0.0007221698760986328
ell 278, elapsed: 0.0007200241088867188
ell 272, elapsed: 0.001383066177368164
ell 271, elapsed: 0.000762939453125
ell 270, elapsed: 0.0007390975952148438
ell 269, elapsed: 0.0007410049438476562
ell 268, elapsed: 0.0007560253143310547
ell 262, elapsed: 0.0014140605926513672
ell 261, elapsed: 0.0007448196411132812
ell 260, elapsed: 0.0007529258728027344
ell 259, elapsed: 0.0007698535919189453
ell 258, elapsed: 0.0007481575012207031
ell 252, elapsed: 0.001455068588256836
ell 251, elapsed: 0.0007338523864746094
ell 250, elapsed: 0.0007259845733642578
ell 249, elapsed: 0.0007162094116210938
ell 248, elapsed: 0.0007300376892089844
ell 242, elapsed: 0.0014088153839111328
ell 241, elapsed: 0.0007679462432861328
ell 240, elapsed: 0.0007460117340087891
ell 239, elapsed: 0.0007319450378417969
ell 238, elapsed: 0.0007491111755371094
ell 232, elapsed: 0.0014219284057617188
ell 231, elapsed: 0.0007560253143310547
ell 230, elapsed: 0.0007579326629638672
ell 229, elapsed: 0.0007221698760986328
ell 228, elapsed: 0.00074005126953125
ell 222, elapsed: 0.0014069080352783203
ell 221, elapsed: 0.0007610321044921875
ell 220, elapsed: 0.0007369518280029297
ell 219, elapsed: 0.0007371902465820312
ell 218, elapsed: 0.0007441043853759766
ell 212, elapsed: 0.0013980865478515625
ell 211, elapsed: 0.0007457733154296875
ell 210, elapsed: 0.0007588863372802734
ell 209, elapsed: 0.0007300376892089844
ell 208, elapsed: 0.0007619857788085938
ell 202, elapsed: 0.0014200210571289062
ell 201, elapsed: 0.0008530616760253906
ell 200, elapsed: 0.0007419586181640625
ell 199, elapsed: 0.0007569789886474609
ell 198, elapsed: 0.0007300376892089844
ell 192, elapsed: 0.0013659000396728516
ell 191, elapsed: 0.0007541179656982422
ell 190, elapsed: 0.0007979869842529297
ell 189, elapsed: 0.0007889270782470703
ell 188, elapsed: 0.0008521080017089844
ell 182, elapsed: 0.0013630390167236328
ell 181, elapsed: 0.0007350444793701172
ell 180, elapsed: 0.0007429122924804688
ell 179, elapsed: 0.0007219314575195312
ell 178, elapsed: 0.0007460117340087891
ell 172, elapsed: 0.00138092041015625
ell 171, elapsed: 0.0007472038269042969
ell 170, elapsed: 0.0007379055023193359
ell 169, elapsed: 0.0007450580596923828
ell 168, elapsed: 0.0007379055023193359
ell 162, elapsed: 0.0014319419860839844
ell 161, elapsed: 0.0006990432739257812
ell 160, elapsed: 0.0007381439208984375
ell 159, elapsed: 0.0007140636444091797
ell 158, elapsed: 0.0007219314575195312
ell 152, elapsed: 0.001458883285522461
ell 151, elapsed: 0.0007658004760742188
ell 150, elapsed: 0.000762939453125
ell 149, elapsed: 0.0007731914520263672
ell 148, elapsed: 0.00074005126953125
ell 142, elapsed: 0.0013890266418457031
ell 141, elapsed: 0.0007758140563964844
ell 140, elapsed: 0.0007760524749755859
ell 139, elapsed: 0.0007448196411132812
ell 138, elapsed: 0.0007381439208984375
ell 132, elapsed: 0.0014150142669677734
ell 131, elapsed: 0.0007581710815429688
ell 130, elapsed: 0.000762939453125
ell 129, elapsed: 0.0007379055023193359
ell 128, elapsed: 0.0008270740509033203
ell 122, elapsed: 0.0014569759368896484
ell 121, elapsed: 0.0007669925689697266
ell 120, elapsed: 0.0007479190826416016
ell 119, elapsed: 0.0008339881896972656
ell 118, elapsed: 0.0007951259613037109
ell 112, elapsed: 0.0013501644134521484
ell 111, elapsed: 0.0007410049438476562
ell 110, elapsed: 0.0007569789886474609
ell 109, elapsed: 0.0007669925689697266
ell 108, elapsed: 0.0007719993591308594
ell 102, elapsed: 0.0014231204986572266
ell 101, elapsed: 0.0031900405883789062
ell 100, elapsed: 0.0032701492309570312
ell 99, elapsed: 0.0033309459686279297
ell 98, elapsed: 0.003181934356689453
ell 92, elapsed: 0.0060579776763916016
ell 91, elapsed: 0.0030510425567626953
ell 90, elapsed: 0.003200054168701172
ell 89, elapsed: 0.003323078155517578
ell 88, elapsed: 0.0032629966735839844
ell 82, elapsed: 0.0063359737396240234
ell 81, elapsed: 0.003386974334716797
ell 80, elapsed: 0.003704071044921875
ell 79, elapsed: 0.0032808780670166016
ell 78, elapsed: 0.003660917282104492
ell 72, elapsed: 0.006126880645751953
ell 71, elapsed: 0.0033500194549560547
ell 70, elapsed: 0.0033180713653564453
ell 69, elapsed: 0.003477811813354492
ell 68, elapsed: 0.003409147262573242
ell 62, elapsed: 0.006057024002075195
ell 61, elapsed: 0.0033440589904785156
ell 60, elapsed: 0.003316164016723633
ell 59, elapsed: 0.003298044204711914
ell 58, elapsed: 0.003331899642944336
ell 52, elapsed: 0.0058689117431640625
ell 51, elapsed: 0.0033211708068847656
ell 50, elapsed: 0.003348112106323242
ell 49, elapsed: 0.0033500194549560547
ell 48, elapsed: 0.003359079360961914
ell 42, elapsed: 0.006078958511352539
ell 41, elapsed: 0.0033309459686279297
ell 40, elapsed: 0.003155946731567383
ell 39, elapsed: 0.003267049789428711
ell 38, elapsed: 0.0034110546112060547
ell 32, elapsed: 0.0060389041900634766
ell 31, elapsed: 0.0029540061950683594
ell 30, elapsed: 0.0029349327087402344
ell 29, elapsed: 0.003119945526123047
ell 28, elapsed: 0.003242969512939453
ell 22, elapsed: 0.005856990814208984
ell 21, elapsed: 0.0032949447631835938
ell 20, elapsed: 0.00350189208984375
ell 19, elapsed: 0.003226041793823242
ell 18, elapsed: 0.003304004669189453
ell 12, elapsed: 0.0059931278228759766
ell 11, elapsed: 0.0032320022583007812
ell 10, elapsed: 0.0032761096954345703
ell 9, elapsed: 0.003345012664794922
ell 8, elapsed: 0.0032689571380615234
  0.730381 seconds (97.46 k allocations: 12.617 MiB)
elapsed: 0.003998994827270508
step:          0.061069 sec (0 allocations: 0 byte, 0.0% gc time)
swapping:      0.000628 sec (0 allocations: 0 byte, 0.0% gc time)
calc_Mellell!: 0.039823 sec (0 allocations: 0 byte, 0.0% gc time)
  t0 :  0.009423 sec (0 allocations: 0 byte, 0.0% gc time)
  tm2 : 0.070092 sec (0 allocations: 0 byte, 0.0% gc time)
  tm2s: 0.007444 sec (0 allocations: 0 byte, 0.0% gc time)
  tm4 : 0.164855 sec (0 allocations: 0 byte, 0.0% gc time)
  tp2 : 0.0 sec (0 allocations: 0 byte, 0.0% gc time)
  tp2s: 0.0 sec (0 allocations: 0 byte, 0.0% gc time)
  tp4 : 0.0 sec (0 allocations: 0 byte, 0.0% gc time)
calc_wtdll!:   0.498556 sec (48.6 k allocations: 11.096 MB, 0.0% gc time)
calc_wljj!:    0.033926 sec (69 allocations: 1.078 KB, 0.0% gc time)
mult_prefac!:  0.0 sec (0 allocations: 0 byte, 0.0% gc time)
convert:       0.0 sec (0 allocations: 0 byte, 0.0% gc time)
write:         0.034276 sec (0 allocations: 0 byte, 0.0% gc time)
test_rand_2f1: 0.0 sec (0 allocations: 0 byte, 0.0% gc time)
Closing outfile out/MlCache/MlCache.bin...   0.000007 seconds
xi, l=0, nu=0:   0.368726 seconds (603.16 k allocations: 32.987 MiB)
xi, l=0, nu=-2:  0.002482 seconds (114 allocations: 148.969 KiB)
Created 'out/xi.tsv'.
  q=1.1, R=0.6:	  0.831172 seconds (264.51 k allocations: 38.097 MiB)
  q=1.1, R=0.7:	  0.999052 seconds (276.48 k allocations: 40.118 MiB, 3.48% gc time)
  q=1.1, R=0.8:	  0.989724 seconds (271.73 k allocations: 39.310 MiB, 1.09% gc time)
  q=1.1, R=0.9:	  1.130906 seconds (266.62 k allocations: 38.459 MiB, 0.68% gc time)
  q=1.1, R=0.998:	 21.069290 seconds (114.96 k allocations: 7.588 MiB)
  q=1.1, R=1.0:	  0.004039 seconds (8.20 k allocations: 704.344 KiB)

ℓ = 1000
Δℓ = 4
ΔℓRg1 = -4
N = 4096
q = 1.1
kmin = 1.0e-5
kmax = 1000.0
χ0 = 0.001
RR = RR.tsv
ℓmax = ℓmax.bin
f21 = f21.bin
kmin = 1.0e-5
kmax = 1000.0
dlrec    = 4
dlrecRg1 = -4
Output size: 1573632 bytes = 0.0014655590057373047 GiB
Output size: 786816 bytes = 0.0007327795028686523 GiB
Reading 'out/F21EllCache'...   0.001398 seconds (198 allocations: 533.078 KiB)
ellmax: 1002
lmaxcache: 1000
fell[:,1,1] = ComplexF64[1.726292812820208e-224 - 4.2281979352226965e-240im, 1.7282693092099638e-224 - 4.233038955177178e-240im]
ell 1002, elapsed: 3.314018249511719e-5
ell 1001, elapsed: 0.0008528232574462891
ell 1000, elapsed: 0.001210927963256836
ell 999, elapsed: 0.006420135498046875
ell 998, elapsed: 0.005666017532348633
ell 44, elapsed: 0.7347309589385986
ell 43, elapsed: 0.006867885589599609
ell 42, elapsed: 0.005691051483154297
ell 41, elapsed: 0.005190849304199219
ell 40, elapsed: 0.0052089691162109375
  0.778872 seconds (5.05 k allocations: 329.344 KiB)
elapsed: 0.006289958953857422
step:          0.731039 sec (0 allocations: 0 byte, 0.0% gc time)
swapping:      0.000555 sec (0 allocations: 0 byte, 0.0% gc time)
calc_Mellell!: 0.001395 sec (0 allocations: 0 byte, 0.0% gc time)
  t0 :  0.000415 sec (0 allocations: 0 byte, 0.0% gc time)
  tm2 : 0.010339 sec (0 allocations: 0 byte, 0.0% gc time)
  tm2s: 0.00033 sec (0 allocations: 0 byte, 0.0% gc time)
  tm4 : 0.028225 sec (0 allocations: 0 byte, 0.0% gc time)
  tp2 : 0.0 sec (0 allocations: 0 byte, 0.0% gc time)
  tp2s: 0.0 sec (0 allocations: 0 byte, 0.0% gc time)
  tp4 : 0.0 sec (0 allocations: 0 byte, 0.0% gc time)
calc_wtdll!:   0.039522 sec (480 allocations: 52.5 KB, 0.0% gc time)
calc_wljj!:    0.001497 sec (1 allocations: 16 byte, 0.0% gc time)
mult_prefac!:  0.0 sec (0 allocations: 0 byte, 0.0% gc time)
convert:       0.0 sec (0 allocations: 0 byte, 0.0% gc time)
write:         0.000962 sec (0 allocations: 0 byte, 0.0% gc time)
test_rand_2f1: 0.0 sec (0 allocations: 0 byte, 0.0% gc time)
Closing outfile out/MlCache/MlCache.bin...   0.000006 seconds
  0.599395 seconds (38 allocations: 66.859 KiB)
make_phi():   0.029059 seconds (65 allocations: 275.984 KiB)
  0.064710 seconds (11.42 k allocations: 711.851 KiB)
tskip:       1.0e-6 sec (0 allocations: 0 byte, 0.0% gc time)
tread:       0.000758 sec (17 allocations: 1.266 KB, 0.0% gc time)
tmultphi:    0.000366 sec (0 allocations: 0 byte, 0.0% gc time)
tbrfft:      0.001278 sec (0 allocations: 0 byte, 0.0% gc time)
tmultprefac: 0.000802 sec (0 allocations: 0 byte, 0.0% gc time)
toutfunc:    0.000221 sec (0 allocations: 0 byte, 0.0% gc time)
Created 'out/wl42_jj00.tsv'.
Created 'out/wl42_jj02.tsv'.
    Testing TwoFAST tests passed 
