Julia Version 1.3.1-pre.19
Commit 602e3006ec (2019-12-17 12:50 UTC)
Platform Info:
  OS: Linux (x86_64-linux-gnu)
  CPU: Intel(R) Xeon(R) Silver 4114 CPU @ 2.20GHz
  WORD_SIZE: 64
  LIBM: libopenlibm
  LLVM: libLLVM-6.0.1 (ORCJIT, skylake)
Environment:
  JULIA_DEPOT_PATH = ::/usr/local/share/julia

 Resolving package versions...
 Installed Reexport ───────── v0.2.0
 Installed AbstractFFTs ───── v0.5.0
 Installed BinDeps ────────── v1.0.0
 Installed FFTW ───────────── v1.2.0
 Installed BinaryProvider ─── v0.5.8
 Installed AbstractAlgebra ── v0.7.1
 Installed Nemo ───────────── v0.15.1
 Installed TwoFAST ────────── v0.1.0
 Installed SpecialFunctions ─ v0.8.0
 Installed FFTW_jll ───────── v3.3.9+3
 Installed IntelOpenMP_jll ── v2018.0.3+0
 Installed IncGammaBeta ───── v0.1.0
 Installed MKL_jll ────────── v2019.0.117+0
 Installed URIParser ──────── v0.4.0
  Updating `~/.julia/environments/v1.3/Project.toml`
  [0dd23c3e] + TwoFAST v0.1.0
  Updating `~/.julia/environments/v1.3/Manifest.toml`
  [c3fe647b] + AbstractAlgebra v0.7.1
  [621f4979] + AbstractFFTs v0.5.0
  [9e28174c] + BinDeps v1.0.0
  [b99e7846] + BinaryProvider v0.5.8
  [7a1cc6ca] + FFTW v1.2.0
  [f5851436] + FFTW_jll v3.3.9+3
  [5087d2c0] + IncGammaBeta v0.1.0
  [1d5cc7b8] + IntelOpenMP_jll v2018.0.3+0
  [856f044c] + MKL_jll v2019.0.117+0
  [2edaba10] + Nemo v0.15.1
  [189a3867] + Reexport v0.2.0
  [276daf66] + SpecialFunctions v0.8.0
  [0dd23c3e] + TwoFAST v0.1.0
  [30578b45] + URIParser v0.4.0
  [2a0f44e3] + Base64 
  [ade2ca70] + Dates 
  [8bb1440f] + DelimitedFiles 
  [8ba89e20] + Distributed 
  [b77e0a4c] + InteractiveUtils 
  [76f85450] + LibGit2 
  [8f399da3] + Libdl 
  [37e2e46d] + LinearAlgebra 
  [56ddb016] + Logging 
  [d6f4376e] + Markdown 
  [a63ad114] + Mmap 
  [44cfe95a] + Pkg 
  [de0858da] + Printf 
  [3fa0cd96] + REPL 
  [9a3f8284] + Random 
  [ea8e919c] + SHA 
  [9e88b42a] + Serialization 
  [6462fe0b] + Sockets 
  [2f01184e] + SparseArrays 
  [8dfed614] + Test 
  [cf7118a7] + UUIDs 
  [4ec0a83e] + Unicode 
  Building Nemo ────────────→ `~/.julia/packages/Nemo/qzx0m/deps/build.log`
  Building FFTW ────────────→ `~/.julia/packages/FFTW/qqcBj/deps/build.log`
  Building SpecialFunctions → `~/.julia/packages/SpecialFunctions/ne2iw/deps/build.log`
   Testing TwoFAST
 Resolving package versions...
 Installed Dierckx ─ v0.4.1
  Building Dierckx → `~/.julia/packages/Dierckx/9SY4A/deps/build.log`
    Status `/tmp/jl_NCTwlc/Manifest.toml`
  [c3fe647b] AbstractAlgebra v0.7.1
  [621f4979] AbstractFFTs v0.5.0
  [9e28174c] BinDeps v1.0.0
  [b99e7846] BinaryProvider v0.5.8
  [39dd38d3] Dierckx v0.4.1
  [7a1cc6ca] FFTW v1.2.0
  [f5851436] FFTW_jll v3.3.9+3
  [5087d2c0] IncGammaBeta v0.1.0
  [1d5cc7b8] IntelOpenMP_jll v2018.0.3+0
  [856f044c] MKL_jll v2019.0.117+0
  [2edaba10] Nemo v0.15.1
  [189a3867] Reexport v0.2.0
  [276daf66] SpecialFunctions v0.8.0
  [0dd23c3e] TwoFAST v0.1.0
  [30578b45] URIParser v0.4.0
  [2a0f44e3] Base64  [`@stdlib/Base64`]
  [ade2ca70] Dates  [`@stdlib/Dates`]
  [8bb1440f] DelimitedFiles  [`@stdlib/DelimitedFiles`]
  [8ba89e20] Distributed  [`@stdlib/Distributed`]
  [b77e0a4c] InteractiveUtils  [`@stdlib/InteractiveUtils`]
  [76f85450] LibGit2  [`@stdlib/LibGit2`]
  [8f399da3] Libdl  [`@stdlib/Libdl`]
  [37e2e46d] LinearAlgebra  [`@stdlib/LinearAlgebra`]
  [56ddb016] Logging  [`@stdlib/Logging`]
  [d6f4376e] Markdown  [`@stdlib/Markdown`]
  [a63ad114] Mmap  [`@stdlib/Mmap`]
  [44cfe95a] Pkg  [`@stdlib/Pkg`]
  [de0858da] Printf  [`@stdlib/Printf`]
  [3fa0cd96] REPL  [`@stdlib/REPL`]
  [9a3f8284] Random  [`@stdlib/Random`]
  [ea8e919c] SHA  [`@stdlib/SHA`]
  [9e88b42a] Serialization  [`@stdlib/Serialization`]
  [6462fe0b] Sockets  [`@stdlib/Sockets`]
  [2f01184e] SparseArrays  [`@stdlib/SparseArrays`]
  [8dfed614] Test  [`@stdlib/Test`]
  [cf7118a7] UUIDs  [`@stdlib/UUIDs`]
  [4ec0a83e] Unicode  [`@stdlib/Unicode`]

Welcome to Nemo version 0.15.1

Nemo comes with absolutely no warranty whatsoever


Welcome to Nemo version 0.15.1

Nemo comes with absolutely no warranty whatsoever

Testing ξ(r), ℓ=0, ν=-1 ... passed
Testing ξ(r), ℓ=0, ν=0 ... passed
Testing ξ(r), ℓ=0, ν=1 ... passed
Testing ξ(r), ℓ=0, ν=2 ... passed
Testing ξ(r), ℓ=0, ν=3 ... passed
Testing ξ(r), ℓ=1, ν=0 ... passed
Testing ξ(r), ℓ=1, ν=1 ... passed
Testing ξ(r), ℓ=1, ν=2 ... passed
Testing ξ(r), ℓ=1, ν=3 ... passed
Testing ξ(r), ℓ=2, ν=-1 ... passed
Testing ξ(r), ℓ=2, ν=0 ... passed
Testing ξ(r), ℓ=2, ν=1 ... passed
Testing ξ(r), ℓ=2, ν=2 ... passed
Testing ξ(r), ℓ=2, ν=3 ... passed
Testing ξ(r), ℓ=3, ν=-1 ... passed
Testing ξ(r), ℓ=3, ν=0 ... passed
Testing ξ(r), ℓ=3, ν=1 ... passed
Testing ξ(r), ℓ=3, ν=2 ... passed
Testing ξ(r), ℓ=3, ν=3 ... passed
Testing ξ(r), ℓ=4, ν=-1 ... passed
Testing ξ(r), ℓ=4, ν=0 ... passed
Testing ξ(r), ℓ=4, ν=1 ... passed
Testing ξ(r), ℓ=4, ν=2 ... passed
Testing ξ(r), ℓ=4, ν=3 ... passed
Testing ξ(r) ... passed
Testing ξ′(r) ... passed
Testing ξ″(r) ... passed
Calculating fmax: 
  dlrec    = 4
  dlrecRg1 = -4
  q=1.1, R=1.1:	  3.855109 seconds (1.11 M allocations: 119.127 MiB, 3.90% gc time)

  3.877487 seconds (1.11 M allocations: 119.485 MiB, 3.88% gc time)
ℓ = 1202
Δℓ = 4
ΔℓRg1 = -4
N = 1600
q = 1.1
kmin = 1.0e-5
kmax = 100000.00000000004
χ0 = 0.023029999999999995
RR = RR.tsv
ℓmax = ℓmax.bin
f21 = f21.bin
kmin = 1.0e-5
kmax = 100000.0
dlrec    = 4
dlrecRg1 = -4
Output size: 5741568 bytes = 0.005347251892089844 GiB
Output size: 51264 bytes = 4.774332046508789e-5 GiB
Reading 'out/F21EllCache'...   0.694183 seconds (348.10 k allocations: 17.863 MiB)
ellmax: 1202
lmaxcache: 1202
fell[:,1,1] = Complex{Float64}[3.9583795592771634e-52 - 9.695233714158177e-68im, 3.990121772925759e-52 - 9.772979714843386e-68im]
ell 1202, elapsed: 0.0032949447631835938
ell 1201, elapsed: 2.1132280826568604
ell 1200, elapsed: 0.0011038780212402344
ell 1199, elapsed: 0.0006489753723144531
ell 1198, elapsed: 0.0004999637603759766
ell 1002, elapsed: 0.010132074356079102
ell 1001, elapsed: 0.0005128383636474609
ell 1000, elapsed: 0.0004830360412597656
ell 999, elapsed: 0.0005729198455810547
ell 998, elapsed: 0.00047707557678222656
ell 902, elapsed: 0.0053250789642333984
ell 901, elapsed: 0.0005121231079101562
ell 900, elapsed: 0.0004899501800537109
ell 899, elapsed: 0.0004940032958984375
ell 898, elapsed: 0.0005550384521484375
ell 802, elapsed: 0.005195140838623047
ell 801, elapsed: 0.0005648136138916016
ell 800, elapsed: 0.0005118846893310547
ell 799, elapsed: 0.0006048679351806641
ell 798, elapsed: 0.00049591064453125
ell 702, elapsed: 0.005223989486694336
ell 701, elapsed: 0.0005340576171875
ell 700, elapsed: 0.0005490779876708984
ell 699, elapsed: 0.0005140304565429688
ell 698, elapsed: 0.0004968643188476562
ell 602, elapsed: 0.005270957946777344
ell 601, elapsed: 0.0004878044128417969
ell 600, elapsed: 0.0004851818084716797
ell 599, elapsed: 0.0005500316619873047
ell 598, elapsed: 0.0005140304565429688
ell 502, elapsed: 0.00518798828125
ell 501, elapsed: 0.0005040168762207031
ell 500, elapsed: 0.0006010532379150391
ell 499, elapsed: 0.0005238056182861328
ell 498, elapsed: 0.00048804283142089844
ell 402, elapsed: 0.005385875701904297
ell 401, elapsed: 0.0005109310150146484
ell 400, elapsed: 0.0004930496215820312
ell 399, elapsed: 0.0004878044128417969
ell 398, elapsed: 0.000514984130859375
ell 302, elapsed: 0.005102872848510742
ell 301, elapsed: 0.00045990943908691406
ell 300, elapsed: 0.00045299530029296875
ell 299, elapsed: 0.000453948974609375
ell 298, elapsed: 0.0004520416259765625
ell 202, elapsed: 0.0050008296966552734
ell 201, elapsed: 0.0004608631134033203
ell 200, elapsed: 0.00046515464782714844
ell 199, elapsed: 0.0005040168762207031
ell 198, elapsed: 0.0004889965057373047
ell 152, elapsed: 0.0026650428771972656
ell 151, elapsed: 0.0004899501800537109
ell 150, elapsed: 0.0005168914794921875
ell 149, elapsed: 0.0005099773406982422
ell 148, elapsed: 0.0004839897155761719
ell 127, elapsed: 0.0015680789947509766
ell 126, elapsed: 0.0004849433898925781
ell 125, elapsed: 0.0004839897155761719
ell 124, elapsed: 0.00043582916259765625
ell 123, elapsed: 0.00045609474182128906
ell 114, elapsed: 0.000885009765625
ell 113, elapsed: 0.0004558563232421875
ell 112, elapsed: 0.0004482269287109375
ell 111, elapsed: 0.0004520416259765625
ell 110, elapsed: 0.000453948974609375
ell 102, elapsed: 0.0009090900421142578
ell 101, elapsed: 0.0004520416259765625
ell 100, elapsed: 0.00047397613525390625
ell 99, elapsed: 0.0004570484161376953
ell 98, elapsed: 0.00045299530029296875
ell 97, elapsed: 0.0004949569702148438
ell 96, elapsed: 0.0005748271942138672
ell 95, elapsed: 0.0004899501800537109
ell 94, elapsed: 0.000576019287109375
ell 93, elapsed: 0.0005009174346923828
ell 92, elapsed: 0.0005681514739990234
ell 91, elapsed: 0.0004971027374267578
ell 90, elapsed: 0.0005638599395751953
ell 89, elapsed: 0.00048804283142089844
ell 88, elapsed: 0.0005669593811035156
ell 87, elapsed: 0.0005011558532714844
ell 86, elapsed: 0.0005710124969482422
ell 85, elapsed: 0.000492095947265625
ell 84, elapsed: 0.00055694580078125
ell 83, elapsed: 0.0004889965057373047
ell 82, elapsed: 0.0005700588226318359
ell 81, elapsed: 0.0004949569702148438
ell 80, elapsed: 0.0005719661712646484
ell 79, elapsed: 0.0004940032958984375
ell 78, elapsed: 0.0005719661712646484
ell 77, elapsed: 0.0004930496215820312
ell 76, elapsed: 0.0005650520324707031
ell 75, elapsed: 0.00049591064453125
ell 74, elapsed: 0.0006310939788818359
ell 73, elapsed: 0.0004839897155761719
ell 72, elapsed: 0.0005669593811035156
ell 71, elapsed: 0.0004940032958984375
ell 70, elapsed: 0.0005729198455810547
ell 69, elapsed: 0.0004990100860595703
ell 68, elapsed: 0.0005669593811035156
ell 67, elapsed: 0.0005087852478027344
ell 66, elapsed: 0.0005691051483154297
ell 65, elapsed: 0.0005118846893310547
ell 64, elapsed: 0.0006291866302490234
ell 63, elapsed: 0.0005450248718261719
ell 62, elapsed: 0.0006201267242431641
ell 61, elapsed: 0.0005581378936767578
ell 60, elapsed: 0.0006539821624755859
ell 59, elapsed: 0.0005550384521484375
ell 58, elapsed: 0.0006389617919921875
ell 57, elapsed: 0.0005700588226318359
ell 56, elapsed: 0.0006542205810546875
ell 55, elapsed: 0.0005519390106201172
ell 54, elapsed: 0.0006041526794433594
ell 53, elapsed: 0.0005359649658203125
ell 52, elapsed: 0.0005979537963867188
ell 51, elapsed: 0.0005209445953369141
ell 50, elapsed: 0.0005748271942138672
ell 49, elapsed: 0.0004999637603759766
ell 48, elapsed: 0.0005679130554199219
ell 47, elapsed: 0.0004951953887939453
ell 46, elapsed: 0.0005750656127929688
ell 45, elapsed: 0.0004961490631103516
ell 44, elapsed: 0.0005710124969482422
ell 43, elapsed: 0.0004990100860595703
ell 42, elapsed: 0.0005671977996826172
ell 41, elapsed: 0.0004949569702148438
ell 40, elapsed: 0.0005638599395751953
ell 39, elapsed: 0.0005009174346923828
ell 38, elapsed: 0.0005681514739990234
ell 37, elapsed: 0.0004961490631103516
ell 36, elapsed: 0.0005650520324707031
ell 35, elapsed: 0.0004990100860595703
ell 34, elapsed: 0.0005769729614257812
ell 33, elapsed: 0.0004961490631103516
ell 32, elapsed: 0.0005788803100585938
ell 31, elapsed: 0.0004971027374267578
ell 30, elapsed: 0.0005629062652587891
ell 29, elapsed: 0.0004990100860595703
ell 28, elapsed: 0.0005660057067871094
ell 27, elapsed: 0.0004978179931640625
ell 26, elapsed: 0.0006070137023925781
ell 25, elapsed: 0.0006608963012695312
ell 24, elapsed: 0.00096893310546875
ell 23, elapsed: 0.0008749961853027344
ell 22, elapsed: 0.0006508827209472656
ell 21, elapsed: 0.0005600452423095703
ell 20, elapsed: 0.0006351470947265625
ell 19, elapsed: 0.0005588531494140625
ell 18, elapsed: 0.0006291866302490234
ell 17, elapsed: 0.0005660057067871094
ell 16, elapsed: 0.0006518363952636719
ell 15, elapsed: 0.0005471706390380859
ell 14, elapsed: 0.0006430149078369141
ell 13, elapsed: 0.0005629062652587891
ell 12, elapsed: 0.0006480216979980469
ell 11, elapsed: 0.0005609989166259766
ell 10, elapsed: 0.0006470680236816406
ell 9, elapsed: 0.0004961490631103516
ell 8, elapsed: 0.0005669593811035156
ell 7, elapsed: 0.0005159378051757812
ell 6, elapsed: 0.0006549358367919922
ell 5, elapsed: 0.0005619525909423828
ell 4, elapsed: 0.0006129741668701172
ell 3, elapsed: 0.0005381107330322266
ell 2, elapsed: 0.0006101131439208984
ell 1, elapsed: 0.0005578994750976562
ell 0, elapsed: 0.0006270408630371094
  2.409371 seconds (1.51 M allocations: 74.530 MiB, 3.60% gc time)
elapsed: 0.0018019676208496094
step:          0.725249 sec (478.14 k allocations: 23.742 MB, 7.49% gc time)
swapping:      0.000545 sec (0 allocations: 0 byte, 0.0% gc time)
calc_Mellell!: 0.479916 sec (371.703 k allocations: 18.424 MB, 0.0% gc time)
  t0 :  0.0 sec (0 allocations: 0 byte, 0.0% gc time)
  tm2 : 0.0 sec (0 allocations: 0 byte, 0.0% gc time)
  tm2s: 0.0 sec (0 allocations: 0 byte, 0.0% gc time)
  tm4 : 0.0 sec (0 allocations: 0 byte, 0.0% gc time)
  tp2 : 0.0 sec (0 allocations: 0 byte, 0.0% gc time)
  tp2s: 0.0 sec (0 allocations: 0 byte, 0.0% gc time)
  tp4 : 0.0 sec (0 allocations: 0 byte, 0.0% gc time)
calc_wtdll!:   1.03085 sec (571.762 k allocations: 28.059 MB, 3.15% gc time)
calc_wljj!:    0.004255 sec (6 allocations: 96 byte, 0.0% gc time)
mult_prefac!:  0.0 sec (0 allocations: 0 byte, 0.0% gc time)
convert:       0.0 sec (0 allocations: 0 byte, 0.0% gc time)
write:         0.004637 sec (0 allocations: 0 byte, 0.0% gc time)
test_rand_2f1: 0.0 sec (0 allocations: 0 byte, 0.0% gc time)
Closing outfile out/Ml21-cache.bin...   0.000124 seconds
  0.997610 seconds (8.63 k allocations: 420.063 KiB)
make_phi():   0.013204 seconds (8.20 k allocations: 238.016 KiB)
  0.219340 seconds (121.94 k allocations: 5.914 MiB)
tskip:       2.2e-5 sec (0 allocations: 0 byte, 0.0% gc time)
tread:       0.002491 sec (20 allocations: 2.188 KB, 0.0% gc time)
tmultphi:    0.041028 sec (26.146 k allocations: 1.344 MB, 0.0% gc time)
tbrfft:      0.004449 sec (896 allocations: 42.0 KB, 0.0% gc time)
tmultprefac: 0.002846 sec (0 allocations: 0 byte, 0.0% gc time)
toutfunc:    0.168427 sec (94.222 k allocations: 4.457 MB, 0.0% gc time)
Testing R=1.1 ... passed
Calculating fmax: 
  dlrec    = 4
  dlrecRg1 = -4
  q=1.1, R=1.0:	  0.015765 seconds (4.81 k allocations: 3.569 MiB)

  0.015997 seconds (4.87 k allocations: 3.601 MiB)
ℓ = 1202
Δℓ = 4
ΔℓRg1 = -4
N = 1600
q = 1.1
kmin = 1.0e-5
kmax = 100000.00000000004
χ0 = 0.023029999999999995
RR = RR.tsv
ℓmax = ℓmax.bin
f21 = f21.bin
kmin = 1.0e-5
kmax = 100000.0
dlrec    = 4
dlrecRg1 = -4
Output size: 61465536 bytes = 0.05724424123764038 GiB
Output size: 51264 bytes = 4.774332046508789e-5 GiB
Reading 'out/F21EllCache'...   0.001261 seconds (271 allocations: 84.719 KiB)
ellmax: 1202
lmaxcache: 1202
fell[:,1,1] = Complex{Float64}[809.6031528389767 - 1.9829558194077161e-13im, 0.0 + 0.0im]
ell 1202, elapsed: 0.00010418891906738281
ell 1201, elapsed: 0.015039920806884766
ell 1200, elapsed: 0.0005888938903808594
ell 1199, elapsed: 0.00061798095703125
ell 1198, elapsed: 0.0007960796356201172
ell 1197, elapsed: 0.0006988048553466797
ell 1196, elapsed: 0.0008139610290527344
ell 1195, elapsed: 0.0006029605865478516
ell 1194, elapsed: 0.0005631446838378906
ell 1193, elapsed: 0.0006630420684814453
ell 1192, elapsed: 0.0007472038269042969
ell 1191, elapsed: 0.0006661415100097656
ell 1190, elapsed: 0.0005519390106201172
ell 1189, elapsed: 0.0006339550018310547
ell 1188, elapsed: 0.0006840229034423828
ell 1187, elapsed: 0.0008537769317626953
ell 1186, elapsed: 0.0005168914794921875
ell 1185, elapsed: 0.0009829998016357422
ell 1184, elapsed: 0.0006899833679199219
ell 1183, elapsed: 0.0009288787841796875
ell 1182, elapsed: 0.0007190704345703125
ell 1181, elapsed: 0.0006470680236816406
ell 1180, elapsed: 0.0005230903625488281
ell 1179, elapsed: 0.0005838871002197266
ell 1178, elapsed: 0.00045490264892578125
ell 1177, elapsed: 0.000576019287109375
ell 1176, elapsed: 0.0007109642028808594
ell 1175, elapsed: 0.0006108283996582031
ell 1174, elapsed: 0.0005340576171875
ell 1173, elapsed: 0.00061798095703125
ell 1172, elapsed: 0.0003731250762939453
ell 1171, elapsed: 0.0005290508270263672
ell 1170, elapsed: 0.00039386749267578125
ell 1169, elapsed: 0.0003669261932373047
ell 1168, elapsed: 0.00028586387634277344
ell 1167, elapsed: 0.0003581047058105469
ell 1166, elapsed: 0.00028204917907714844
ell 1165, elapsed: 0.0003731250762939453
ell 1164, elapsed: 0.00034499168395996094
ell 1163, elapsed: 0.0004029273986816406
ell 1162, elapsed: 0.0002949237823486328
ell 1161, elapsed: 0.00034809112548828125
ell 1160, elapsed: 0.00028395652770996094
ell 1159, elapsed: 0.00032901763916015625
ell 1158, elapsed: 0.0002739429473876953
ell 1157, elapsed: 0.00032711029052734375
ell 1156, elapsed: 0.0002961158752441406
ell 1155, elapsed: 0.00034999847412109375
ell 1154, elapsed: 0.00027489662170410156
ell 1153, elapsed: 0.0004169940948486328
ell 1152, elapsed: 0.0005688667297363281
ell 1151, elapsed: 0.0005290508270263672
ell 1150, elapsed: 0.0003948211669921875
ell 1149, elapsed: 0.0004620552062988281
ell 1148, elapsed: 0.00038695335388183594
ell 1147, elapsed: 0.0006449222564697266
ell 1146, elapsed: 0.00046706199645996094
ell 1145, elapsed: 0.0004699230194091797
ell 1144, elapsed: 0.0005290508270263672
ell 1143, elapsed: 0.0005738735198974609
ell 1142, elapsed: 0.00039505958557128906
ell 1141, elapsed: 0.0004839897155761719
ell 1140, elapsed: 0.0004980564117431641
ell 1139, elapsed: 0.00061798095703125
ell 1138, elapsed: 0.0004048347473144531
ell 1137, elapsed: 0.0004849433898925781
ell 1136, elapsed: 0.0004050731658935547
ell 1135, elapsed: 0.000598907470703125
ell 1134, elapsed: 0.00046515464782714844
ell 1133, elapsed: 0.00047707557678222656
ell 1132, elapsed: 0.0005469322204589844
ell 1131, elapsed: 0.0005540847778320312
ell 1130, elapsed: 0.00039005279541015625
ell 1129, elapsed: 0.00046706199645996094
ell 1128, elapsed: 0.00039005279541015625
ell 1127, elapsed: 0.0004858970642089844
ell 1126, elapsed: 0.0003960132598876953
ell 1125, elapsed: 0.0004799365997314453
ell 1124, elapsed: 0.0004229545593261719
ell 1123, elapsed: 0.0004830360412597656
ell 1122, elapsed: 0.0003960132598876953
ell 1121, elapsed: 0.0004849433898925781
ell 1120, elapsed: 0.00047206878662109375
ell 1119, elapsed: 0.0006289482116699219
ell 1118, elapsed: 0.0005669593811035156
ell 1117, elapsed: 0.0006330013275146484
ell 1116, elapsed: 0.0003979206085205078
ell 1115, elapsed: 0.0006561279296875
ell 1114, elapsed: 0.00044798851013183594
ell 1113, elapsed: 0.00046896934509277344
ell 1112, elapsed: 0.0005609989166259766
ell 1111, elapsed: 0.0005609989166259766
ell 1110, elapsed: 0.000392913818359375
ell 1109, elapsed: 0.0004730224609375
ell 1108, elapsed: 0.00038313865661621094
ell 1107, elapsed: 0.000598907470703125
ell 1106, elapsed: 0.0004649162292480469
ell 1105, elapsed: 0.0005950927734375
ell 1104, elapsed: 0.0004940032958984375
ell 1103, elapsed: 0.0004799365997314453
ell 1102, elapsed: 0.0003948211669921875
ell 1101, elapsed: 0.00047516822814941406
ell 1100, elapsed: 0.0005421638488769531
ell 1099, elapsed: 0.0005390644073486328
ell 1098, elapsed: 0.00038695335388183594
ell 1097, elapsed: 0.00047898292541503906
ell 1096, elapsed: 0.0004088878631591797
ell 1095, elapsed: 0.0008020401000976562
ell 1094, elapsed: 0.0006539821624755859
ell 1093, elapsed: 0.0009121894836425781
ell 1092, elapsed: 0.0005099773406982422
ell 1091, elapsed: 0.0005609989166259766
ell 1090, elapsed: 0.0005559921264648438
ell 1089, elapsed: 0.0005469322204589844
ell 1088, elapsed: 0.00044417381286621094
ell 1087, elapsed: 0.0005588531494140625
ell 1086, elapsed: 0.0004849433898925781
ell 1085, elapsed: 0.0005800724029541016
ell 1084, elapsed: 0.00048613548278808594
ell 1083, elapsed: 0.0005640983581542969
ell 1082, elapsed: 0.00041794776916503906
ell 1081, elapsed: 0.0004980564117431641
ell 1080, elapsed: 0.0003800392150878906
ell 1079, elapsed: 0.0004680156707763672
ell 1078, elapsed: 0.0003781318664550781
ell 1077, elapsed: 0.0004718303680419922
ell 1076, elapsed: 0.0003790855407714844
ell 1075, elapsed: 0.0004649162292480469
ell 1074, elapsed: 0.0003879070281982422
ell 1073, elapsed: 0.00045299530029296875
ell 1072, elapsed: 0.00037598609924316406
ell 1071, elapsed: 0.0006558895111083984
ell 1070, elapsed: 0.00040411949157714844
ell 1069, elapsed: 0.0006229877471923828
ell 1068, elapsed: 0.0004279613494873047
ell 1067, elapsed: 0.0006749629974365234
ell 1066, elapsed: 0.0004069805145263672
ell 1065, elapsed: 0.0004639625549316406
ell 1064, elapsed: 0.00036787986755371094
ell 1063, elapsed: 0.00045800209045410156
ell 1062, elapsed: 0.0005490779876708984
ell 1061, elapsed: 0.0005180835723876953
ell 1060, elapsed: 0.0005011558532714844
ell 1059, elapsed: 0.0005071163177490234
ell 1058, elapsed: 0.0004799365997314453
ell 1057, elapsed: 0.0007121562957763672
ell 1056, elapsed: 0.000415802001953125
ell 1055, elapsed: 0.0004680156707763672
ell 1054, elapsed: 0.0006229877471923828
ell 1053, elapsed: 0.0004868507385253906
ell 1052, elapsed: 0.00041103363037109375
ell 1051, elapsed: 0.0004649162292480469
ell 1050, elapsed: 0.00037789344787597656
ell 1049, elapsed: 0.000492095947265625
ell 1048, elapsed: 0.0004210472106933594
ell 1047, elapsed: 0.0004799365997314453
ell 1046, elapsed: 0.0003821849822998047
ell 1045, elapsed: 0.0006330013275146484
ell 1044, elapsed: 0.0006010532379150391
ell 1043, elapsed: 0.0005109310150146484
ell 1042, elapsed: 0.000537872314453125
ell 1041, elapsed: 0.0007200241088867188
ell 1040, elapsed: 0.0006041526794433594
ell 1039, elapsed: 0.0007271766662597656
ell 1038, elapsed: 0.00061798095703125
ell 1037, elapsed: 0.0006668567657470703
ell 1036, elapsed: 0.0007691383361816406
ell 1035, elapsed: 0.0006358623504638672
ell 1034, elapsed: 0.0007128715515136719
ell 1033, elapsed: 0.0008261203765869141
ell 1032, elapsed: 0.0006389617919921875
ell 1031, elapsed: 0.0005710124969482422
ell 1030, elapsed: 0.0004639625549316406
ell 1029, elapsed: 0.0007750988006591797
ell 1028, elapsed: 0.00047397613525390625
ell 1027, elapsed: 0.0005829334259033203
ell 1026, elapsed: 0.0004520416259765625
ell 1025, elapsed: 0.0005791187286376953
ell 1024, elapsed: 0.00046706199645996094
ell 1023, elapsed: 0.0005810260772705078
ell 1022, elapsed: 0.0004558563232421875
ell 1021, elapsed: 0.0005559921264648438
ell 1020, elapsed: 0.0005691051483154297
ell 1019, elapsed: 0.0005102157592773438
ell 1018, elapsed: 0.0005731582641601562
ell 1017, elapsed: 0.0008139610290527344
ell 1016, elapsed: 0.0006649494171142578
ell 1015, elapsed: 0.0008611679077148438
ell 1014, elapsed: 0.0006890296936035156
ell 1013, elapsed: 0.0007810592651367188
ell 1012, elapsed: 0.0007290840148925781
ell 1011, elapsed: 0.0008749961853027344
ell 1010, elapsed: 0.0006690025329589844
ell 1009, elapsed: 0.0008330345153808594
ell 1008, elapsed: 0.0006639957427978516
ell 1007, elapsed: 0.0005478858947753906
ell 1006, elapsed: 0.00067901611328125
ell 1005, elapsed: 0.0008449554443359375
ell 1004, elapsed: 0.0004811286926269531
ell 1003, elapsed: 0.000759124755859375
ell 1002, elapsed: 0.0006570816040039062
ell 1001, elapsed: 0.0008440017700195312
ell 1000, elapsed: 0.0006549358367919922
ell 999, elapsed: 0.0008502006530761719
ell 998, elapsed: 0.00047898292541503906
ell 997, elapsed: 0.0005598068237304688
ell 996, elapsed: 0.00046896934509277344
ell 995, elapsed: 0.0005619525909423828
ell 994, elapsed: 0.0006210803985595703
ell 993, elapsed: 0.0007970333099365234
ell 992, elapsed: 0.0006530284881591797
ell 991, elapsed: 0.0008399486541748047
ell 990, elapsed: 0.0004761219024658203
ell 989, elapsed: 0.0005860328674316406
ell 988, elapsed: 0.00046896934509277344
ell 987, elapsed: 0.0008058547973632812
ell 986, elapsed: 0.0007100105285644531
ell 985, elapsed: 0.0008549690246582031
ell 984, elapsed: 0.0007519721984863281
ell 983, elapsed: 0.0006949901580810547
ell 982, elapsed: 0.0005228519439697266
ell 981, elapsed: 0.0005891323089599609
ell 980, elapsed: 0.00048804283142089844
ell 979, elapsed: 0.0005590915679931641
ell 978, elapsed: 0.00046896934509277344
ell 977, elapsed: 0.0004999637603759766
ell 976, elapsed: 0.0004220008850097656
ell 975, elapsed: 0.0005018711090087891
ell 974, elapsed: 0.0004069805145263672
ell 973, elapsed: 0.0004999637603759766
ell 972, elapsed: 0.0004229545593261719
ell 971, elapsed: 0.0005321502685546875
ell 970, elapsed: 0.00040602684020996094
ell 969, elapsed: 0.0005769729614257812
ell 968, elapsed: 0.0004661083221435547
ell 967, elapsed: 0.0006048679351806641
ell 966, elapsed: 0.0004780292510986328
ell 965, elapsed: 0.0005598068237304688
ell 964, elapsed: 0.0004642009735107422
ell 963, elapsed: 0.0005891323089599609
ell 962, elapsed: 0.00047206878662109375
ell 961, elapsed: 0.0005562305450439453
ell 960, elapsed: 0.0004680156707763672
ell 959, elapsed: 0.0005550384521484375
ell 958, elapsed: 0.0004570484161376953
ell 957, elapsed: 0.0007910728454589844
ell 956, elapsed: 0.0004210472106933594
ell 955, elapsed: 0.0004990100860595703
ell 954, elapsed: 0.0003998279571533203
ell 953, elapsed: 0.0005140304565429688
ell 952, elapsed: 0.0003809928894042969
ell 951, elapsed: 0.00047707557678222656
ell 950, elapsed: 0.00037598609924316406
ell 949, elapsed: 0.000598907470703125
ell 948, elapsed: 0.0004570484161376953
ell 947, elapsed: 0.00046896934509277344
ell 946, elapsed: 0.0003809928894042969
ell 945, elapsed: 0.000476837158203125
ell 944, elapsed: 0.0005559921264648438
ell 943, elapsed: 0.0005259513854980469
ell 942, elapsed: 0.0003879070281982422
ell 941, elapsed: 0.0006268024444580078
ell 940, elapsed: 0.0004467964172363281
ell 939, elapsed: 0.0004649162292480469
ell 938, elapsed: 0.0003819465637207031
ell 937, elapsed: 0.0004611015319824219
ell 936, elapsed: 0.0003790855407714844
ell 935, elapsed: 0.0004608631134033203
ell 934, elapsed: 0.0003829002380371094
ell 933, elapsed: 0.00046515464782714844
ell 932, elapsed: 0.00037789344787597656
ell 931, elapsed: 0.00048804283142089844
ell 930, elapsed: 0.0003800392150878906
ell 929, elapsed: 0.00046515464782714844
ell 928, elapsed: 0.0003829002380371094
ell 927, elapsed: 0.0004639625549316406
ell 926, elapsed: 0.0005431175231933594
ell 925, elapsed: 0.000701904296875
ell 924, elapsed: 0.00043702125549316406
ell 923, elapsed: 0.0006089210510253906
ell 922, elapsed: 0.0006318092346191406
ell 921, elapsed: 0.0007090568542480469
ell 920, elapsed: 0.0004100799560546875
ell 919, elapsed: 0.0006430149078369141
ell 918, elapsed: 0.0004448890686035156
ell 917, elapsed: 0.0004630088806152344
ell 916, elapsed: 0.00037407875061035156
ell 915, elapsed: 0.00045800209045410156
ell 914, elapsed: 0.0003800392150878906
ell 913, elapsed: 0.00045990943908691406
ell 912, elapsed: 0.0003788471221923828
ell 911, elapsed: 0.0004711151123046875
ell 910, elapsed: 0.0006110668182373047
ell 909, elapsed: 0.0005180835723876953
ell 908, elapsed: 0.0005300045013427734
ell 907, elapsed: 0.0005218982696533203
ell 906, elapsed: 0.0003819465637207031
ell 905, elapsed: 0.0004680156707763672
ell 904, elapsed: 0.0003750324249267578
ell 903, elapsed: 0.0005681514739990234
ell 902, elapsed: 0.0005021095275878906
ell 901, elapsed: 0.0004649162292480469
ell 900, elapsed: 0.0003750324249267578
ell 899, elapsed: 0.00046706199645996094
ell 898, elapsed: 0.0003750324249267578
ell 897, elapsed: 0.00045990943908691406
ell 896, elapsed: 0.0003750324249267578
ell 895, elapsed: 0.000476837158203125
ell 894, elapsed: 0.0003871917724609375
ell 893, elapsed: 0.0004611015319824219
ell 892, elapsed: 0.0003809928894042969
ell 891, elapsed: 0.00047206878662109375
ell 890, elapsed: 0.0003769397735595703
ell 889, elapsed: 0.0004680156707763672
ell 888, elapsed: 0.00037789344787597656
ell 887, elapsed: 0.00046896934509277344
ell 886, elapsed: 0.00038313865661621094
ell 885, elapsed: 0.0004620552062988281
ell 884, elapsed: 0.0003809928894042969
ell 883, elapsed: 0.0004649162292480469
ell 882, elapsed: 0.0004711151123046875
ell 881, elapsed: 0.000614166259765625
ell 880, elapsed: 0.00037789344787597656
ell 879, elapsed: 0.0005049705505371094
ell 878, elapsed: 0.0003809928894042969
ell 877, elapsed: 0.00046706199645996094
ell 876, elapsed: 0.0003769397735595703
ell 875, elapsed: 0.0004620552062988281
ell 874, elapsed: 0.00037789344787597656
ell 873, elapsed: 0.0004639625549316406
ell 872, elapsed: 0.00037789344787597656
ell 871, elapsed: 0.00047779083251953125
ell 870, elapsed: 0.0005209445953369141
ell 869, elapsed: 0.0005438327789306641
ell 868, elapsed: 0.0004551410675048828
ell 867, elapsed: 0.0006229877471923828
ell 866, elapsed: 0.0003800392150878906
ell 865, elapsed: 0.0004570484161376953
ell 864, elapsed: 0.000476837158203125
ell 863, elapsed: 0.0004661083221435547
ell 862, elapsed: 0.0003809928894042969
ell 861, elapsed: 0.0004630088806152344
ell 860, elapsed: 0.0003819465637207031
ell 859, elapsed: 0.0006079673767089844
ell 858, elapsed: 0.00044083595275878906
ell 857, elapsed: 0.00046706199645996094
ell 856, elapsed: 0.0005960464477539062
ell 855, elapsed: 0.0005810260772705078
ell 854, elapsed: 0.0003809928894042969
ell 853, elapsed: 0.0005528926849365234
ell 852, elapsed: 0.0005109310150146484
ell 851, elapsed: 0.0004699230194091797
ell 850, elapsed: 0.0003790855407714844
ell 849, elapsed: 0.0005748271942138672
ell 848, elapsed: 0.0004680156707763672
ell 847, elapsed: 0.0006129741668701172
ell 846, elapsed: 0.0003819465637207031
ell 845, elapsed: 0.0004661083221435547
ell 844, elapsed: 0.0003809928894042969
ell 843, elapsed: 0.0006239414215087891
ell 842, elapsed: 0.0005090236663818359
ell 841, elapsed: 0.00046896934509277344
ell 840, elapsed: 0.0003769397735595703
ell 839, elapsed: 0.00046706199645996094
ell 838, elapsed: 0.0003838539123535156
ell 837, elapsed: 0.0004630088806152344
ell 836, elapsed: 0.0004620552062988281
ell 835, elapsed: 0.0007359981536865234
ell 834, elapsed: 0.0003750324249267578
ell 833, elapsed: 0.0004718303680419922
ell 832, elapsed: 0.0003769397735595703
ell 831, elapsed: 0.0004649162292480469
ell 830, elapsed: 0.0003809928894042969
ell 829, elapsed: 0.0004680156707763672
ell 828, elapsed: 0.0003800392150878906
ell 827, elapsed: 0.0005419254302978516
ell 826, elapsed: 0.0003800392150878906
ell 825, elapsed: 0.00047087669372558594
ell 824, elapsed: 0.00037097930908203125
ell 823, elapsed: 0.0004680156707763672
ell 822, elapsed: 0.0003809928894042969
ell 821, elapsed: 0.0004649162292480469
ell 820, elapsed: 0.00037789344787597656
ell 819, elapsed: 0.0004639625549316406
ell 818, elapsed: 0.0003819465637207031
ell 817, elapsed: 0.0006411075592041016
ell 816, elapsed: 0.0004291534423828125
ell 815, elapsed: 0.0006020069122314453
ell 814, elapsed: 0.0004630088806152344
ell 813, elapsed: 0.0004620552062988281
ell 812, elapsed: 0.0003800392150878906
ell 811, elapsed: 0.0005519390106201172
ell 810, elapsed: 0.00037789344787597656
ell 809, elapsed: 0.0004589557647705078
ell 808, elapsed: 0.0003800392150878906
ell 807, elapsed: 0.00046515464782714844
ell 806, elapsed: 0.0003781318664550781
ell 805, elapsed: 0.00045800209045410156
ell 804, elapsed: 0.0003821849822998047
ell 803, elapsed: 0.0005640983581542969
ell 802, elapsed: 0.0003819465637207031
ell 801, elapsed: 0.0004611015319824219
ell 800, elapsed: 0.0003769397735595703
ell 799, elapsed: 0.0006239414215087891
ell 798, elapsed: 0.0004420280456542969
ell 797, elapsed: 0.00047016143798828125
ell 796, elapsed: 0.0004589557647705078
ell 795, elapsed: 0.0004608631134033203
ell 794, elapsed: 0.0003819465637207031
ell 793, elapsed: 0.0004630088806152344
ell 792, elapsed: 0.00037789344787597656
ell 791, elapsed: 0.00045800209045410156
ell 790, elapsed: 0.0003819465637207031
ell 789, elapsed: 0.0004630088806152344
ell 788, elapsed: 0.0003788471221923828
ell 787, elapsed: 0.0004711151123046875
ell 786, elapsed: 0.0005369186401367188
ell 785, elapsed: 0.0004661083221435547
ell 784, elapsed: 0.00037598609924316406
ell 783, elapsed: 0.00045800209045410156
ell 782, elapsed: 0.0003819465637207031
ell 781, elapsed: 0.00046896934509277344
ell 780, elapsed: 0.00045299530029296875
ell 779, elapsed: 0.0004608631134033203
ell 778, elapsed: 0.00037217140197753906
ell 777, elapsed: 0.00045609474182128906
ell 776, elapsed: 0.000370025634765625
ell 775, elapsed: 0.000453948974609375
ell 774, elapsed: 0.0003731250762939453
ell 773, elapsed: 0.0005359649658203125
ell 772, elapsed: 0.0005960464477539062
ell 771, elapsed: 0.000453948974609375
ell 770, elapsed: 0.0003647804260253906
ell 769, elapsed: 0.0004429817199707031
ell 768, elapsed: 0.00043702125549316406
ell 767, elapsed: 0.0006120204925537109
ell 766, elapsed: 0.0004699230194091797
ell 765, elapsed: 0.0005781650543212891
ell 764, elapsed: 0.00038814544677734375
ell 763, elapsed: 0.0004601478576660156
ell 762, elapsed: 0.00037407875061035156
ell 761, elapsed: 0.0004439353942871094
ell 760, elapsed: 0.0004401206970214844
ell 759, elapsed: 0.0006229877471923828
ell 758, elapsed: 0.0003762245178222656
ell 757, elapsed: 0.0007710456848144531
ell 756, elapsed: 0.00038886070251464844
ell 755, elapsed: 0.0005550384521484375
ell 754, elapsed: 0.0006060600280761719
ell 753, elapsed: 0.0005397796630859375
ell 752, elapsed: 0.00045490264892578125
ell 751, elapsed: 0.0007200241088867188
ell 750, elapsed: 0.0003829002380371094
ell 749, elapsed: 0.0005681514739990234
ell 748, elapsed: 0.0004909038543701172
ell 747, elapsed: 0.0004658699035644531
ell 746, elapsed: 0.00038695335388183594
ell 745, elapsed: 0.0004658699035644531
ell 744, elapsed: 0.00037288665771484375
ell 743, elapsed: 0.0005700588226318359
ell 742, elapsed: 0.00037980079650878906
ell 741, elapsed: 0.00045800209045410156
ell 740, elapsed: 0.0003769397735595703
ell 739, elapsed: 0.00045013427734375
ell 738, elapsed: 0.0004029273986816406
ell 737, elapsed: 0.0004467964172363281
ell 736, elapsed: 0.0003731250762939453
ell 735, elapsed: 0.0007998943328857422
ell 734, elapsed: 0.0005068778991699219
ell 733, elapsed: 0.0005881786346435547
ell 732, elapsed: 0.0003769397735595703
ell 731, elapsed: 0.0004520416259765625
ell 730, elapsed: 0.0004601478576660156
ell 729, elapsed: 0.0007109642028808594
ell 728, elapsed: 0.0003859996795654297
ell 727, elapsed: 0.0004658699035644531
ell 726, elapsed: 0.0003731250762939453
ell 725, elapsed: 0.0005719661712646484
ell 724, elapsed: 0.0004780292510986328
ell 723, elapsed: 0.0006380081176757812
ell 722, elapsed: 0.0004210472106933594
ell 721, elapsed: 0.0005059242248535156
ell 720, elapsed: 0.00042891502380371094
ell 719, elapsed: 0.0004620552062988281
ell 718, elapsed: 0.0003809928894042969
ell 717, elapsed: 0.00045418739318847656
ell 716, elapsed: 0.00037598609924316406
ell 715, elapsed: 0.00045013427734375
ell 714, elapsed: 0.00036716461181640625
ell 713, elapsed: 0.0004611015319824219
ell 712, elapsed: 0.00036907196044921875
ell 711, elapsed: 0.00044989585876464844
ell 710, elapsed: 0.0005118846893310547
ell 709, elapsed: 0.0005261898040771484
ell 708, elapsed: 0.0005309581756591797
ell 707, elapsed: 0.0005669593811035156
ell 706, elapsed: 0.00037288665771484375
ell 705, elapsed: 0.00044798851013183594
ell 704, elapsed: 0.0003669261932373047
ell 703, elapsed: 0.0004508495330810547
ell 702, elapsed: 0.0003681182861328125
ell 701, elapsed: 0.0004439353942871094
ell 700, elapsed: 0.000370025634765625
ell 699, elapsed: 0.0004420280456542969
ell 698, elapsed: 0.0006468296051025391
ell 697, elapsed: 0.0004901885986328125
ell 696, elapsed: 0.000370025634765625
ell 695, elapsed: 0.0004470348358154297
ell 694, elapsed: 0.000453948974609375
ell 693, elapsed: 0.0006020069122314453
ell 692, elapsed: 0.00036787986755371094
ell 691, elapsed: 0.0005300045013427734
ell 690, elapsed: 0.0003669261932373047
ell 689, elapsed: 0.0004420280456542969
ell 688, elapsed: 0.000370025634765625
ell 687, elapsed: 0.0005910396575927734
ell 686, elapsed: 0.00043511390686035156
ell 685, elapsed: 0.0004429817199707031
ell 684, elapsed: 0.000370025634765625
ell 683, elapsed: 0.00055694580078125
ell 682, elapsed: 0.00037097930908203125
ell 681, elapsed: 0.0005838871002197266
ell 680, elapsed: 0.0004398822784423828
ell 679, elapsed: 0.0004429817199707031
ell 678, elapsed: 0.0004868507385253906
ell 677, elapsed: 0.0005650520324707031
ell 676, elapsed: 0.0004799365997314453
ell 675, elapsed: 0.00045108795166015625
ell 674, elapsed: 0.0005218982696533203
ell 673, elapsed: 0.0005800724029541016
ell 672, elapsed: 0.0003790855407714844
ell 671, elapsed: 0.0005729198455810547
ell 670, elapsed: 0.0005040168762207031
ell 669, elapsed: 0.000982046127319336
ell 668, elapsed: 0.0003829002380371094
ell 667, elapsed: 0.0004699230194091797
ell 666, elapsed: 0.0004010200500488281
ell 665, elapsed: 0.00045180320739746094
ell 664, elapsed: 0.0003809928894042969
ell 663, elapsed: 0.0004611015319824219
ell 662, elapsed: 0.00037288665771484375
ell 661, elapsed: 0.0007660388946533203
ell 660, elapsed: 0.0003819465637207031
ell 659, elapsed: 0.0004630088806152344
ell 658, elapsed: 0.0003750324249267578
ell 657, elapsed: 0.0004608631134033203
ell 656, elapsed: 0.0003809928894042969
ell 655, elapsed: 0.0004639625549316406
ell 654, elapsed: 0.0006570816040039062
ell 653, elapsed: 0.00047206878662109375
ell 652, elapsed: 0.00036597251892089844
ell 651, elapsed: 0.0004649162292480469
ell 650, elapsed: 0.00037479400634765625
ell 649, elapsed: 0.00045800209045410156
ell 648, elapsed: 0.000537872314453125
ell 647, elapsed: 0.0004980564117431641
ell 646, elapsed: 0.0003769397735595703
ell 645, elapsed: 0.0004620552062988281
ell 644, elapsed: 0.00037097930908203125
ell 643, elapsed: 0.00045180320739746094
ell 642, elapsed: 0.0004761219024658203
ell 641, elapsed: 0.0006949901580810547
ell 640, elapsed: 0.0004379749298095703
ell 639, elapsed: 0.00045990943908691406
ell 638, elapsed: 0.00036406517028808594
ell 637, elapsed: 0.0004429817199707031
ell 636, elapsed: 0.00036978721618652344
ell 635, elapsed: 0.0004448890686035156
ell 634, elapsed: 0.0003769397735595703
ell 633, elapsed: 0.000453948974609375
ell 632, elapsed: 0.00037407875061035156
ell 631, elapsed: 0.0006890296936035156
ell 630, elapsed: 0.00049591064453125
ell 629, elapsed: 0.0005199909210205078
ell 628, elapsed: 0.00036907196044921875
ell 627, elapsed: 0.0004448890686035156
ell 626, elapsed: 0.00037097930908203125
ell 625, elapsed: 0.0007810592651367188
ell 624, elapsed: 0.0005381107330322266
ell 623, elapsed: 0.0005850791931152344
ell 622, elapsed: 0.000514984130859375
ell 621, elapsed: 0.0007040500640869141
ell 620, elapsed: 0.0004200935363769531
ell 619, elapsed: 0.0007507801055908203
ell 618, elapsed: 0.0004589557647705078
ell 617, elapsed: 0.0006208419799804688
ell 616, elapsed: 0.00048089027404785156
ell 615, elapsed: 0.0007159709930419922
ell 614, elapsed: 0.0005419254302978516
ell 613, elapsed: 0.0008809566497802734
ell 612, elapsed: 0.0003771781921386719
ell 611, elapsed: 0.0004570484161376953
ell 610, elapsed: 0.0003769397735595703
ell 609, elapsed: 0.0004589557647705078
ell 608, elapsed: 0.0003809928894042969
ell 607, elapsed: 0.0004589557647705078
ell 606, elapsed: 0.0003731250762939453
ell 605, elapsed: 0.0007491111755371094
ell 604, elapsed: 0.00037479400634765625
ell 603, elapsed: 0.00046896934509277344
ell 602, elapsed: 0.00037097930908203125
ell 601, elapsed: 0.0004601478576660156
ell 600, elapsed: 0.00037598609924316406
ell 599, elapsed: 0.0004620552062988281
ell 598, elapsed: 0.00037789344787597656
ell 597, elapsed: 0.0004792213439941406
ell 596, elapsed: 0.0003821849822998047
ell 595, elapsed: 0.00044798851013183594
ell 594, elapsed: 0.00037288665771484375
ell 593, elapsed: 0.0004508495330810547
ell 592, elapsed: 0.0005428791046142578
ell 591, elapsed: 0.0005190372467041016
ell 590, elapsed: 0.0005841255187988281
ell 589, elapsed: 0.00036597251892089844
ell 588, elapsed: 0.00028896331787109375
ell 587, elapsed: 0.0003390312194824219
ell 586, elapsed: 0.00027108192443847656
ell 585, elapsed: 0.0003540515899658203
ell 584, elapsed: 0.00027298927307128906
ell 583, elapsed: 0.0003440380096435547
ell 582, elapsed: 0.0002918243408203125
ell 581, elapsed: 0.0003581047058105469
ell 580, elapsed: 0.0003008842468261719
ell 579, elapsed: 0.0003368854522705078
ell 578, elapsed: 0.0002620220184326172
ell 577, elapsed: 0.00032401084899902344
ell 576, elapsed: 0.0002770423889160156
ell 575, elapsed: 0.0003161430358886719
ell 574, elapsed: 0.00025582313537597656
ell 573, elapsed: 0.000308990478515625
ell 572, elapsed: 0.0002560615539550781
ell 571, elapsed: 0.0003249645233154297
ell 570, elapsed: 0.00042510032653808594
ell 569, elapsed: 0.0003190040588378906
ell 568, elapsed: 0.0002560615539550781
ell 567, elapsed: 0.0003139972686767578
ell 566, elapsed: 0.00025582313537597656
ell 565, elapsed: 0.00031495094299316406
ell 564, elapsed: 0.00025582313537597656
ell 563, elapsed: 0.00031280517578125
ell 562, elapsed: 0.0002560615539550781
ell 561, elapsed: 0.0003120899200439453
ell 560, elapsed: 0.0002548694610595703
ell 559, elapsed: 0.0004940032958984375
ell 558, elapsed: 0.0002880096435546875
ell 557, elapsed: 0.0003459453582763672
ell 556, elapsed: 0.0002758502960205078
ell 555, elapsed: 0.00034117698669433594
ell 554, elapsed: 0.00026488304138183594
ell 553, elapsed: 0.0003199577331542969
ell 552, elapsed: 0.0002751350402832031
ell 551, elapsed: 0.00032901763916015625
ell 550, elapsed: 0.00026607513427734375
ell 549, elapsed: 0.0003361701965332031
ell 548, elapsed: 0.00044989585876464844
ell 547, elapsed: 0.0003368854522705078
ell 546, elapsed: 0.0002770423889160156
ell 545, elapsed: 0.0003230571746826172
ell 544, elapsed: 0.0002548694610595703
ell 543, elapsed: 0.0003139972686767578
ell 542, elapsed: 0.0002789497375488281
ell 541, elapsed: 0.0003249645233154297
ell 540, elapsed: 0.0002551078796386719
ell 539, elapsed: 0.00031113624572753906
ell 538, elapsed: 0.00026607513427734375
ell 537, elapsed: 0.0003521442413330078
ell 536, elapsed: 0.0002560615539550781
ell 535, elapsed: 0.00031304359436035156
ell 534, elapsed: 0.0002551078796386719
ell 533, elapsed: 0.00030994415283203125
ell 532, elapsed: 0.0002548694610595703
ell 531, elapsed: 0.0003120899200439453
ell 530, elapsed: 0.0002560615539550781
ell 529, elapsed: 0.00031304359436035156
ell 528, elapsed: 0.0002560615539550781
ell 527, elapsed: 0.0003170967102050781
ell 526, elapsed: 0.0003459453582763672
ell 525, elapsed: 0.0003180503845214844
ell 524, elapsed: 0.0002808570861816406
ell 523, elapsed: 0.0003440380096435547
ell 522, elapsed: 0.0002810955047607422
ell 521, elapsed: 0.0003399848937988281
ell 520, elapsed: 0.0002770423889160156
ell 519, elapsed: 0.0003268718719482422
ell 518, elapsed: 0.0002579689025878906
ell 517, elapsed: 0.0003440380096435547
ell 516, elapsed: 0.0002589225769042969
ell 515, elapsed: 0.0004239082336425781
ell 514, elapsed: 0.0002739429473876953
ell 513, elapsed: 0.00032711029052734375
ell 512, elapsed: 0.0002639293670654297
ell 511, elapsed: 0.0003418922424316406
ell 510, elapsed: 0.00026297569274902344
ell 509, elapsed: 0.0003108978271484375
ell 508, elapsed: 0.0002560615539550781
ell 507, elapsed: 0.0003299713134765625
ell 506, elapsed: 0.00026917457580566406
ell 505, elapsed: 0.0003139972686767578
ell 504, elapsed: 0.00043511390686035156
ell 503, elapsed: 0.0004658699035644531
ell 502, elapsed: 0.00026488304138183594
ell 501, elapsed: 0.00030994415283203125
ell 500, elapsed: 0.0002551078796386719
ell 499, elapsed: 0.00031185150146484375
ell 498, elapsed: 0.0002548694610595703
ell 497, elapsed: 0.0003108978271484375
ell 496, elapsed: 0.0002589225769042969
ell 495, elapsed: 0.00031495094299316406
ell 494, elapsed: 0.0002548694610595703
ell 493, elapsed: 0.00034308433532714844
ell 492, elapsed: 0.0002529621124267578
ell 491, elapsed: 0.0003108978271484375
ell 490, elapsed: 0.0002639293670654297
ell 489, elapsed: 0.0003371238708496094
ell 488, elapsed: 0.00027298927307128906
ell 487, elapsed: 0.00033593177795410156
ell 486, elapsed: 0.00027298927307128906
ell 485, elapsed: 0.00032782554626464844
ell 484, elapsed: 0.0002598762512207031
ell 483, elapsed: 0.0003380775451660156
ell 482, elapsed: 0.0003058910369873047
ell 481, elapsed: 0.00032591819763183594
ell 480, elapsed: 0.00027298927307128906
ell 479, elapsed: 0.0003349781036376953
ell 478, elapsed: 0.00027108192443847656
ell 477, elapsed: 0.0003230571746826172
ell 476, elapsed: 0.0002791881561279297
ell 475, elapsed: 0.0003209114074707031
ell 474, elapsed: 0.0002551078796386719
ell 473, elapsed: 0.00033092498779296875
ell 472, elapsed: 0.0002770423889160156
ell 471, elapsed: 0.00037097930908203125
ell 470, elapsed: 0.0002560615539550781
ell 469, elapsed: 0.00030994415283203125
ell 468, elapsed: 0.00027108192443847656
ell 467, elapsed: 0.0003139972686767578
ell 466, elapsed: 0.0002560615539550781
ell 465, elapsed: 0.00031185150146484375
ell 464, elapsed: 0.00025582313537597656
ell 463, elapsed: 0.0003120899200439453
ell 462, elapsed: 0.0002551078796386719
ell 461, elapsed: 0.0003120899200439453
ell 460, elapsed: 0.0002770423889160156
ell 459, elapsed: 0.0003421306610107422
ell 458, elapsed: 0.0003018379211425781
ell 457, elapsed: 0.000347137451171875
ell 456, elapsed: 0.0002789497375488281
ell 455, elapsed: 0.0003218650817871094
ell 454, elapsed: 0.0002779960632324219
ell 453, elapsed: 0.00033402442932128906
ell 452, elapsed: 0.0002830028533935547
ell 451, elapsed: 0.0003421306610107422
ell 450, elapsed: 0.0002779960632324219
ell 449, elapsed: 0.00044989585876464844
ell 448, elapsed: 0.0002949237823486328
ell 447, elapsed: 0.0003199577331542969
ell 446, elapsed: 0.0002560615539550781
ell 445, elapsed: 0.00032711029052734375
ell 444, elapsed: 0.00026106834411621094
ell 443, elapsed: 0.00032210350036621094
ell 442, elapsed: 0.00024390220642089844
ell 441, elapsed: 0.0003211498260498047
ell 440, elapsed: 0.0002601146697998047
ell 439, elapsed: 0.00030803680419921875
ell 438, elapsed: 0.00024509429931640625
ell 437, elapsed: 0.0004940032958984375
ell 436, elapsed: 0.0002510547637939453
ell 435, elapsed: 0.0003018379211425781
ell 434, elapsed: 0.00024199485778808594
ell 433, elapsed: 0.00029206275939941406
ell 432, elapsed: 0.00025582313537597656
ell 431, elapsed: 0.00031185150146484375
ell 430, elapsed: 0.00024199485778808594
ell 429, elapsed: 0.00029397010803222656
ell 428, elapsed: 0.0002429485321044922
ell 427, elapsed: 0.00029397010803222656
ell 426, elapsed: 0.000244140625
ell 425, elapsed: 0.0004210472106933594
ell 424, elapsed: 0.00025200843811035156
ell 423, elapsed: 0.00030684471130371094
ell 422, elapsed: 0.00024890899658203125
ell 421, elapsed: 0.000308990478515625
ell 420, elapsed: 0.00025010108947753906
ell 419, elapsed: 0.0003077983856201172
ell 418, elapsed: 0.00029397010803222656
ell 417, elapsed: 0.0003368854522705078
ell 416, elapsed: 0.000453948974609375
ell 415, elapsed: 0.0004711151123046875
ell 414, elapsed: 0.00030493736267089844
ell 413, elapsed: 0.0003619194030761719
ell 412, elapsed: 0.0002620220184326172
ell 411, elapsed: 0.0003490447998046875
ell 410, elapsed: 0.00030112266540527344
ell 409, elapsed: 0.00034499168395996094
ell 408, elapsed: 0.0002620220184326172
ell 407, elapsed: 0.0003650188446044922
ell 406, elapsed: 0.00026988983154296875
ell 405, elapsed: 0.00043582916259765625
ell 404, elapsed: 0.0003070831298828125
ell 403, elapsed: 0.00034999847412109375
ell 402, elapsed: 0.00027298927307128906
ell 401, elapsed: 0.0003349781036376953
ell 400, elapsed: 0.00030303001403808594
ell 399, elapsed: 0.00033783912658691406
ell 398, elapsed: 0.00027108192443847656
ell 397, elapsed: 0.0003299713134765625
ell 396, elapsed: 0.0002689361572265625
ell 395, elapsed: 0.0004119873046875
ell 394, elapsed: 0.0002541542053222656
ell 393, elapsed: 0.00030684471130371094
ell 392, elapsed: 0.000244140625
ell 391, elapsed: 0.00029778480529785156
ell 390, elapsed: 0.0002429485321044922
ell 389, elapsed: 0.0002961158752441406
ell 388, elapsed: 0.0002429485321044922
ell 387, elapsed: 0.0003018379211425781
ell 386, elapsed: 0.000244140625
ell 385, elapsed: 0.00035190582275390625
ell 384, elapsed: 0.0002791881561279297
ell 383, elapsed: 0.0005080699920654297
ell 382, elapsed: 0.0002961158752441406
ell 381, elapsed: 0.0003459453582763672
ell 380, elapsed: 0.0002751350402832031
ell 379, elapsed: 0.00031685829162597656
ell 378, elapsed: 0.0002570152282714844
ell 377, elapsed: 0.00033092498779296875
ell 376, elapsed: 0.0002689361572265625
ell 375, elapsed: 0.00031685829162597656
ell 374, elapsed: 0.00026488304138183594
ell 373, elapsed: 0.00045299530029296875
ell 372, elapsed: 0.0002720355987548828
ell 371, elapsed: 0.00034809112548828125
ell 370, elapsed: 0.0002899169921875
ell 369, elapsed: 0.00038886070251464844
ell 368, elapsed: 0.0002639293670654297
ell 367, elapsed: 0.0003199577331542969
ell 366, elapsed: 0.0002739429473876953
ell 365, elapsed: 0.0003190040588378906
ell 364, elapsed: 0.0002570152282714844
ell 363, elapsed: 0.0003299713134765625
ell 362, elapsed: 0.0003540515899658203
ell 361, elapsed: 0.0003790855407714844
ell 360, elapsed: 0.00031280517578125
ell 359, elapsed: 0.0003628730773925781
ell 358, elapsed: 0.0003190040588378906
ell 357, elapsed: 0.00033402442932128906
ell 356, elapsed: 0.00024390220642089844
ell 355, elapsed: 0.0002961158752441406
ell 354, elapsed: 0.000244140625
ell 353, elapsed: 0.00030803680419921875
ell 352, elapsed: 0.00024390220642089844
ell 351, elapsed: 0.0003581047058105469
ell 350, elapsed: 0.00027108192443847656
ell 349, elapsed: 0.0003299713134765625
ell 348, elapsed: 0.00027298927307128906
ell 347, elapsed: 0.00032901763916015625
ell 346, elapsed: 0.0002617835998535156
ell 345, elapsed: 0.00030994415283203125
ell 344, elapsed: 0.00024700164794921875
ell 343, elapsed: 0.0003299713134765625
ell 342, elapsed: 0.0002639293670654297
ell 341, elapsed: 0.0005168914794921875
ell 340, elapsed: 0.0003979206085205078
ell 339, elapsed: 0.0004749298095703125
ell 338, elapsed: 0.0003161430358886719
ell 337, elapsed: 0.00034499168395996094
ell 336, elapsed: 0.0002579689025878906
ell 335, elapsed: 0.0003190040588378906
ell 334, elapsed: 0.00028204917907714844
ell 333, elapsed: 0.0003211498260498047
ell 332, elapsed: 0.00037407875061035156
ell 331, elapsed: 0.0003299713134765625
ell 330, elapsed: 0.0002560615539550781
ell 329, elapsed: 0.00031685829162597656
ell 328, elapsed: 0.00025582313537597656
ell 327, elapsed: 0.00031495094299316406
ell 326, elapsed: 0.0002560615539550781
ell 325, elapsed: 0.0003159046173095703
ell 324, elapsed: 0.0002551078796386719
ell 323, elapsed: 0.0003190040588378906
ell 322, elapsed: 0.0002560615539550781
ell 321, elapsed: 0.0005650520324707031
ell 320, elapsed: 0.0003190040588378906
ell 319, elapsed: 0.00038695335388183594
ell 318, elapsed: 0.00030684471130371094
ell 317, elapsed: 0.0003681182861328125
ell 316, elapsed: 0.0003020763397216797
ell 315, elapsed: 0.0003859996795654297
ell 314, elapsed: 0.0002741813659667969
ell 313, elapsed: 0.00033593177795410156
ell 312, elapsed: 0.0006868839263916016
ell 311, elapsed: 0.0005550384521484375
ell 310, elapsed: 0.0004620552062988281
ell 309, elapsed: 0.0005509853363037109
ell 308, elapsed: 0.0004630088806152344
ell 307, elapsed: 0.0006229877471923828
ell 306, elapsed: 0.0004649162292480469
ell 305, elapsed: 0.0005431175231933594
ell 304, elapsed: 0.00046896934509277344
ell 303, elapsed: 0.0006449222564697266
ell 302, elapsed: 0.0004620552062988281
ell 301, elapsed: 0.0005550384521484375
ell 300, elapsed: 0.0004730224609375
ell 299, elapsed: 0.0005519390106201172
ell 298, elapsed: 0.0005211830139160156
ell 297, elapsed: 0.0006029605865478516
ell 296, elapsed: 0.0005068778991699219
ell 295, elapsed: 0.0005879402160644531
ell 294, elapsed: 0.000637054443359375
ell 293, elapsed: 0.0006310939788818359
ell 292, elapsed: 0.0004630088806152344
ell 291, elapsed: 0.0005450248718261719
ell 290, elapsed: 0.0004601478576660156
ell 289, elapsed: 0.0006971359252929688
ell 288, elapsed: 0.0005340576171875
ell 287, elapsed: 0.0005469322204589844
ell 286, elapsed: 0.0004661083221435547
ell 285, elapsed: 0.0005490779876708984
ell 284, elapsed: 0.0005180835723876953
ell 283, elapsed: 0.0005810260772705078
ell 282, elapsed: 0.0005090236663818359
ell 281, elapsed: 0.0005838871002197266
ell 280, elapsed: 0.0005030632019042969
ell 279, elapsed: 0.0005919933319091797
ell 278, elapsed: 0.0005860328674316406
ell 277, elapsed: 0.0005500316619873047
ell 276, elapsed: 0.0004899501800537109
ell 275, elapsed: 0.00046706199645996094
ell 274, elapsed: 0.0003879070281982422
ell 273, elapsed: 0.00045108795166015625
ell 272, elapsed: 0.0003418922424316406
ell 271, elapsed: 0.0003688335418701172
ell 270, elapsed: 0.0003058910369873047
ell 269, elapsed: 0.0003609657287597656
ell 268, elapsed: 0.00030612945556640625
ell 267, elapsed: 0.0003619194030761719
ell 266, elapsed: 0.00033593177795410156
ell 265, elapsed: 0.0004038810729980469
ell 264, elapsed: 0.0003421306610107422
ell 263, elapsed: 0.00042891502380371094
ell 262, elapsed: 0.0003540515899658203
ell 261, elapsed: 0.0004169940948486328
ell 260, elapsed: 0.0003428459167480469
ell 259, elapsed: 0.0004520416259765625
ell 258, elapsed: 0.0003490447998046875
ell 257, elapsed: 0.0003941059112548828
ell 256, elapsed: 0.0003719329833984375
ell 255, elapsed: 0.00039887428283691406
ell 254, elapsed: 0.00038504600524902344
ell 253, elapsed: 0.00038695335388183594
ell 252, elapsed: 0.00027489662170410156
ell 251, elapsed: 0.0003840923309326172
ell 250, elapsed: 0.0003459453582763672
ell 249, elapsed: 0.0003647804260253906
ell 248, elapsed: 0.0002999305725097656
ell 247, elapsed: 0.0003638267517089844
ell 246, elapsed: 0.0003268718719482422
ell 245, elapsed: 0.00038313865661621094
ell 244, elapsed: 0.00033092498779296875
ell 243, elapsed: 0.00033092498779296875
ell 242, elapsed: 0.00026798248291015625
ell 241, elapsed: 0.0003311634063720703
ell 240, elapsed: 0.0002720355987548828
ell 239, elapsed: 0.00032711029052734375
ell 238, elapsed: 0.00026702880859375
ell 237, elapsed: 0.0003299713134765625
ell 236, elapsed: 0.00026798248291015625
ell 235, elapsed: 0.0003631114959716797
ell 234, elapsed: 0.00029397010803222656
ell 233, elapsed: 0.00045800209045410156
ell 232, elapsed: 0.0002751350402832031
ell 231, elapsed: 0.0003459453582763672
ell 230, elapsed: 0.0002720355987548828
ell 229, elapsed: 0.0003437995910644531
ell 228, elapsed: 0.0002720355987548828
ell 227, elapsed: 0.0003361701965332031
ell 226, elapsed: 0.00028014183044433594
ell 225, elapsed: 0.0003170967102050781
ell 224, elapsed: 0.00025582313537597656
ell 223, elapsed: 0.00032210350036621094
ell 222, elapsed: 0.00037407875061035156
ell 221, elapsed: 0.0003540515899658203
ell 220, elapsed: 0.00029397010803222656
ell 219, elapsed: 0.00035500526428222656
ell 218, elapsed: 0.00027680397033691406
ell 217, elapsed: 0.0003380775451660156
ell 216, elapsed: 0.0002741813659667969
ell 215, elapsed: 0.00037789344787597656
ell 214, elapsed: 0.0003058910369873047
ell 213, elapsed: 0.0003352165222167969
ell 212, elapsed: 0.0004210472106933594
ell 211, elapsed: 0.0003180503845214844
ell 210, elapsed: 0.0002560615539550781
ell 209, elapsed: 0.00031495094299316406
ell 208, elapsed: 0.0002548694610595703
ell 207, elapsed: 0.00030803680419921875
ell 206, elapsed: 0.00025391578674316406
ell 205, elapsed: 0.0003139972686767578
ell 204, elapsed: 0.0002529621124267578
ell 203, elapsed: 0.00031304359436035156
ell 202, elapsed: 0.00026488304138183594
ell 201, elapsed: 0.0005671977996826172
ell 200, elapsed: 0.00027298927307128906
ell 199, elapsed: 0.0003459453582763672
ell 198, elapsed: 0.000270843505859375
ell 197, elapsed: 0.00034499168395996094
ell 196, elapsed: 0.0002760887145996094
ell 195, elapsed: 0.0003418922424316406
ell 194, elapsed: 0.00028395652770996094
ell 193, elapsed: 0.00033092498779296875
ell 192, elapsed: 0.00027298927307128906
ell 191, elapsed: 0.00039315223693847656
ell 190, elapsed: 0.000308990478515625
ell 189, elapsed: 0.0003600120544433594
ell 188, elapsed: 0.00027489662170410156
ell 187, elapsed: 0.00032591819763183594
ell 186, elapsed: 0.00026917457580566406
ell 185, elapsed: 0.0003230571746826172
ell 184, elapsed: 0.00027298927307128906
ell 183, elapsed: 0.0003180503845214844
ell 182, elapsed: 0.0002548694610595703
ell 181, elapsed: 0.0003139972686767578
ell 180, elapsed: 0.0003590583801269531
ell 179, elapsed: 0.00032901763916015625
ell 178, elapsed: 0.0002570152282714844
ell 177, elapsed: 0.0003139972686767578
ell 176, elapsed: 0.0002570152282714844
ell 175, elapsed: 0.0003139972686767578
ell 174, elapsed: 0.0002560615539550781
ell 173, elapsed: 0.00031280517578125
ell 172, elapsed: 0.0002570152282714844
ell 171, elapsed: 0.0003120899200439453
ell 170, elapsed: 0.0002579689025878906
ell 169, elapsed: 0.0003139972686767578
ell 168, elapsed: 0.00026702880859375
ell 167, elapsed: 0.0003120899200439453
ell 166, elapsed: 0.0002830028533935547
ell 165, elapsed: 0.00033402442932128906
ell 164, elapsed: 0.0002720355987548828
ell 163, elapsed: 0.0003211498260498047
ell 162, elapsed: 0.00027298927307128906
ell 161, elapsed: 0.00032901763916015625
ell 160, elapsed: 0.0002651214599609375
ell 159, elapsed: 0.0003311634063720703
ell 158, elapsed: 0.0002529621124267578
ell 157, elapsed: 0.00041985511779785156
ell 156, elapsed: 0.0002491474151611328
ell 155, elapsed: 0.0003540515899658203
ell 154, elapsed: 0.00028514862060546875
ell 153, elapsed: 0.0003230571746826172
ell 152, elapsed: 0.00028014183044433594
ell 151, elapsed: 0.00032401084899902344
ell 150, elapsed: 0.00024700164794921875
ell 149, elapsed: 0.0003371238708496094
ell 148, elapsed: 0.00024580955505371094
ell 147, elapsed: 0.000492095947265625
ell 146, elapsed: 0.0003669261932373047
ell 145, elapsed: 0.00045609474182128906
ell 144, elapsed: 0.0003299713134765625
ell 143, elapsed: 0.0004279613494873047
ell 142, elapsed: 0.00038504600524902344
ell 141, elapsed: 0.0003368854522705078
ell 140, elapsed: 0.0003490447998046875
ell 139, elapsed: 0.0003941059112548828
ell 138, elapsed: 0.0003528594970703125
ell 137, elapsed: 0.0003230571746826172
ell 136, elapsed: 0.0003027915954589844
ell 135, elapsed: 0.00034880638122558594
ell 134, elapsed: 0.000331878662109375
ell 133, elapsed: 0.00038695335388183594
ell 132, elapsed: 0.0003077983856201172
ell 131, elapsed: 0.00038504600524902344
ell 130, elapsed: 0.0002930164337158203
ell 129, elapsed: 0.000415802001953125
ell 128, elapsed: 0.0003459453582763672
ell 127, elapsed: 0.0003819465637207031
ell 126, elapsed: 0.0002598762512207031
ell 125, elapsed: 0.000370025634765625
ell 124, elapsed: 0.00030493736267089844
ell 123, elapsed: 0.00032782554626464844
ell 122, elapsed: 0.00030994415283203125
ell 121, elapsed: 0.0003199577331542969
ell 120, elapsed: 0.0002868175506591797
ell 119, elapsed: 0.0003848075866699219
ell 118, elapsed: 0.0002579689025878906
ell 117, elapsed: 0.00031304359436035156
ell 116, elapsed: 0.0002548694610595703
ell 115, elapsed: 0.00031304359436035156
ell 114, elapsed: 0.00025391578674316406
ell 113, elapsed: 0.0003139972686767578
ell 112, elapsed: 0.00025582313537597656
ell 111, elapsed: 0.00031495094299316406
ell 110, elapsed: 0.0002551078796386719
ell 109, elapsed: 0.0003161430358886719
ell 108, elapsed: 0.00028204917907714844
ell 107, elapsed: 0.00037789344787597656
ell 106, elapsed: 0.0002579689025878906
ell 105, elapsed: 0.00031495094299316406
ell 104, elapsed: 0.0002548694610595703
ell 103, elapsed: 0.0003581047058105469
ell 102, elapsed: 0.0003178119659423828
ell 101, elapsed: 0.0003809928894042969
ell 100, elapsed: 0.00031304359436035156
ell 99, elapsed: 0.0003688335418701172
ell 98, elapsed: 0.00030994415283203125
ell 97, elapsed: 0.0006191730499267578
ell 96, elapsed: 0.0003809928894042969
ell 95, elapsed: 0.0003731250762939453
ell 94, elapsed: 0.0002810955047607422
ell 93, elapsed: 0.0003600120544433594
ell 92, elapsed: 0.0003001689910888672
ell 91, elapsed: 0.0003490447998046875
ell 90, elapsed: 0.000308990478515625
ell 89, elapsed: 0.0003199577331542969
ell 88, elapsed: 0.00035309791564941406
ell 87, elapsed: 0.000331878662109375
ell 86, elapsed: 0.0002548694610595703
ell 85, elapsed: 0.00031304359436035156
ell 84, elapsed: 0.00025391578674316406
ell 83, elapsed: 0.00031304359436035156
ell 82, elapsed: 0.0002551078796386719
ell 81, elapsed: 0.0003161430358886719
ell 80, elapsed: 0.0002560615539550781
ell 79, elapsed: 0.00031304359436035156
ell 78, elapsed: 0.0002551078796386719
ell 77, elapsed: 0.0004038810729980469
ell 76, elapsed: 0.0002579689025878906
ell 75, elapsed: 0.0003180503845214844
ell 74, elapsed: 0.0002548694610595703
ell 73, elapsed: 0.0003178119659423828
ell 72, elapsed: 0.0002567768096923828
ell 71, elapsed: 0.0003600120544433594
ell 70, elapsed: 0.0003139972686767578
ell 69, elapsed: 0.00037288665771484375
ell 68, elapsed: 0.00030994415283203125
ell 67, elapsed: 0.0004229545593261719
ell 66, elapsed: 0.0003409385681152344
ell 65, elapsed: 0.0003781318664550781
ell 64, elapsed: 0.00031495094299316406
ell 63, elapsed: 0.0003750324249267578
ell 62, elapsed: 0.00030612945556640625
ell 61, elapsed: 0.0003349781036376953
ell 60, elapsed: 0.0003001689910888672
ell 59, elapsed: 0.0003771781921386719
ell 58, elapsed: 0.0002770423889160156
ell 57, elapsed: 0.0004661083221435547
ell 56, elapsed: 0.00026106834411621094
ell 55, elapsed: 0.0003440380096435547
ell 54, elapsed: 0.0002589225769042969
ell 53, elapsed: 0.0003139972686767578
ell 52, elapsed: 0.0002570152282714844
ell 51, elapsed: 0.0003161430358886719
ell 50, elapsed: 0.0002570152282714844
ell 49, elapsed: 0.0003190040588378906
ell 48, elapsed: 0.0002560615539550781
ell 47, elapsed: 0.0003159046173095703
ell 46, elapsed: 0.00041413307189941406
ell 45, elapsed: 0.0004742145538330078
ell 44, elapsed: 0.00026416778564453125
ell 43, elapsed: 0.0003120899200439453
ell 42, elapsed: 0.00025582313537597656
ell 41, elapsed: 0.0003108978271484375
ell 40, elapsed: 0.0002560615539550781
ell 39, elapsed: 0.0003609657287597656
ell 38, elapsed: 0.0002799034118652344
ell 37, elapsed: 0.00036215782165527344
ell 36, elapsed: 0.00037384033203125
ell 35, elapsed: 0.00041103363037109375
ell 34, elapsed: 0.00025916099548339844
ell 33, elapsed: 0.0003600120544433594
ell 32, elapsed: 0.00029015541076660156
ell 31, elapsed: 0.0003581047058105469
ell 30, elapsed: 0.00029277801513671875
ell 29, elapsed: 0.0003509521484375
ell 28, elapsed: 0.00026297569274902344
ell 27, elapsed: 0.0003440380096435547
ell 26, elapsed: 0.0005409717559814453
ell 25, elapsed: 0.0005409717559814453
ell 24, elapsed: 0.00030803680419921875
ell 23, elapsed: 0.0003719329833984375
ell 22, elapsed: 0.0002808570861816406
ell 21, elapsed: 0.0003001689910888672
ell 20, elapsed: 0.00023984909057617188
ell 19, elapsed: 0.00029397010803222656
ell 18, elapsed: 0.00023984909057617188
ell 17, elapsed: 0.00029397010803222656
ell 16, elapsed: 0.0002391338348388672
ell 15, elapsed: 0.00044918060302734375
ell 14, elapsed: 0.00024700164794921875
ell 13, elapsed: 0.0003058910369873047
ell 12, elapsed: 0.00024509429931640625
ell 11, elapsed: 0.0002970695495605469
ell 10, elapsed: 0.0002429485321044922
ell 9, elapsed: 0.0002989768981933594
ell 8, elapsed: 0.00024199485778808594
ell 7, elapsed: 0.0002980232238769531
ell 6, elapsed: 0.0002429485321044922
ell 5, elapsed: 0.000308990478515625
ell 4, elapsed: 0.0002930164337158203
ell 3, elapsed: 0.0005869865417480469
ell 2, elapsed: 0.0005950927734375
ell 1, elapsed: 0.0005440711975097656
ell 0, elapsed: 0.00039005279541015625
  0.659757 seconds (57.03 k allocations: 2.784 MiB)
elapsed: 0.0005841255187988281
step:          0.064093 sec (0 allocations: 0 byte, 0.0% gc time)
swapping:      0.000871 sec (0 allocations: 0 byte, 0.0% gc time)
calc_Mellell!: 0.010294 sec (0 allocations: 0 byte, 0.0% gc time)
  t0 :  0.002444 sec (0 allocations: 0 byte, 0.0% gc time)
  tm2 : 0.084071 sec (0 allocations: 0 byte, 0.0% gc time)
  tm2s: 0.0017 sec (0 allocations: 0 byte, 0.0% gc time)
  tm4 : 0.201442 sec (0 allocations: 0 byte, 0.0% gc time)
  tp2 : 0.0 sec (0 allocations: 0 byte, 0.0% gc time)
  tp2s: 0.0 sec (0 allocations: 0 byte, 0.0% gc time)
  tp4 : 0.0 sec (0 allocations: 0 byte, 0.0% gc time)
calc_wtdll!:   0.308112 sec (9.879 k allocations: 1.044 MB, 0.0% gc time)
calc_wljj!:    0.038272 sec (689 allocations: 10.766 KB, 0.0% gc time)
mult_prefac!:  0.0 sec (0 allocations: 0 byte, 0.0% gc time)
convert:       0.0 sec (0 allocations: 0 byte, 0.0% gc time)
write:         0.051638 sec (0 allocations: 0 byte, 0.0% gc time)
test_rand_2f1: 0.0 sec (0 allocations: 0 byte, 0.0% gc time)
Closing outfile out/Ml21-cache.bin...   0.037336 seconds
  0.000395 seconds (52 allocations: 28.297 KiB)
make_phi():   0.002628 seconds (8.20 k allocations: 238.016 KiB)
  0.195103 seconds (146.69 k allocations: 3.629 MiB)
tskip:       0.000929 sec (0 allocations: 0 byte, 0.0% gc time)
tread:       0.022961 sec (20 allocations: 10.703 KB, 0.0% gc time)
tmultphi:    0.012978 sec (0 allocations: 0 byte, 0.0% gc time)
tbrfft:      0.043738 sec (9.592 k allocations: 449.625 KB, 0.0% gc time)
tmultprefac: 0.042851 sec (0 allocations: 0 byte, 0.0% gc time)
toutfunc:    0.069905 sec (129.905 k allocations: 2.421 MB, 0.0% gc time)
Testing R=1.0 ... passed
Calculating fmax: 
  dlrec    = 4
  dlrecRg1 = -4
  q=1.1, R=0.9:	  0.626501 seconds (149.41 k allocations: 69.863 MiB, 3.72% gc time)

  0.627176 seconds (149.47 k allocations: 69.895 MiB, 3.71% gc time)
ℓ = 1202
Δℓ = 4
ΔℓRg1 = -4
N = 1600
q = 1.1
kmin = 1.0e-5
kmax = 100000.00000000004
χ0 = 0.023029999999999995
RR = RR.tsv
ℓmax = ℓmax.bin
f21 = f21.bin
kmin = 1.0e-5
kmax = 100000.0
dlrec    = 4
dlrecRg1 = -4
Output size: 5741568 bytes = 0.005347251892089844 GiB
Output size: 51264 bytes = 4.774332046508789e-5 GiB
Reading 'out/F21EllCache'...   0.001100 seconds (271 allocations: 84.719 KiB)
ellmax: 1202
lmaxcache: 1202
fell[:,1,1] = Complex{Float64}[1.3482014726274674e-57 - 3.302141236118086e-73im, 1.357860004724329e-57 - 3.3257978169518355e-73im]
ell 1202, elapsed: 2.193450927734375e-5
ell 1201, elapsed: 0.0003650188446044922
ell 1200, elapsed: 0.00032591819763183594
ell 1199, elapsed: 0.0003380775451660156
ell 1198, elapsed: 0.0003368854522705078
ell 1002, elapsed: 0.01063394546508789
ell 1001, elapsed: 0.0003731250762939453
ell 1000, elapsed: 0.00039196014404296875
ell 999, elapsed: 0.0005619525909423828
ell 998, elapsed: 0.0004940032958984375
ell 902, elapsed: 0.005548000335693359
ell 901, elapsed: 0.00036907196044921875
ell 900, elapsed: 0.0005049705505371094
ell 899, elapsed: 0.00045299530029296875
ell 898, elapsed: 0.0004229545593261719
ell 802, elapsed: 0.005776882171630859
ell 801, elapsed: 0.0004889965057373047
ell 800, elapsed: 0.00047397613525390625
ell 799, elapsed: 0.0004730224609375
ell 798, elapsed: 0.000453948974609375
ell 702, elapsed: 0.005611896514892578
ell 701, elapsed: 0.0005719661712646484
ell 700, elapsed: 0.0004680156707763672
ell 699, elapsed: 0.0004069805145263672
ell 698, elapsed: 0.0003991127014160156
ell 602, elapsed: 0.005592823028564453
ell 601, elapsed: 0.0004210472106933594
ell 600, elapsed: 0.0003440380096435547
ell 599, elapsed: 0.0003418922424316406
ell 598, elapsed: 0.00035190582275390625
ell 502, elapsed: 0.005112886428833008
ell 501, elapsed: 0.00035691261291503906
ell 500, elapsed: 0.0003390312194824219
ell 499, elapsed: 0.00034809112548828125
ell 498, elapsed: 0.0003590583801269531
ell 402, elapsed: 0.0055370330810546875
ell 401, elapsed: 0.0003559589385986328
ell 400, elapsed: 0.0003380775451660156
ell 399, elapsed: 0.0003399848937988281
ell 398, elapsed: 0.0003380775451660156
ell 302, elapsed: 0.004937887191772461
ell 301, elapsed: 0.0003559589385986328
ell 300, elapsed: 0.00035691261291503906
ell 299, elapsed: 0.0003368854522705078
ell 298, elapsed: 0.0003371238708496094
ell 202, elapsed: 0.005557060241699219
ell 201, elapsed: 0.0004818439483642578
ell 200, elapsed: 0.0004558563232421875
ell 199, elapsed: 0.0004551410675048828
ell 198, elapsed: 0.0009019374847412109
ell 152, elapsed: 0.0028209686279296875
ell 151, elapsed: 0.00039196014404296875
ell 150, elapsed: 0.0003790855407714844
ell 149, elapsed: 0.00039386749267578125
ell 148, elapsed: 0.0005180835723876953
ell 127, elapsed: 0.0016169548034667969
ell 126, elapsed: 0.00034809112548828125
ell 125, elapsed: 0.0004210472106933594
ell 124, elapsed: 0.0004329681396484375
ell 123, elapsed: 0.0004069805145263672
ell 114, elapsed: 0.0009069442749023438
ell 113, elapsed: 0.00041294097900390625
ell 112, elapsed: 0.0004000663757324219
ell 111, elapsed: 0.00040221214294433594
ell 110, elapsed: 0.00040793418884277344
ell 102, elapsed: 0.0009260177612304688
ell 101, elapsed: 0.00041413307189941406
ell 100, elapsed: 0.0004239082336425781
ell 99, elapsed: 0.00040411949157714844
ell 98, elapsed: 0.0003998279571533203
ell 97, elapsed: 0.0005891323089599609
ell 96, elapsed: 0.0006470680236816406
ell 95, elapsed: 0.0004620552062988281
ell 94, elapsed: 0.0005409717559814453
ell 93, elapsed: 0.0004918575286865234
ell 92, elapsed: 0.0005571842193603516
ell 91, elapsed: 0.00039005279541015625
ell 90, elapsed: 0.0005528926849365234
ell 89, elapsed: 0.0005350112915039062
ell 88, elapsed: 0.0004711151123046875
ell 87, elapsed: 0.0003879070281982422
ell 86, elapsed: 0.00046706199645996094
ell 85, elapsed: 0.0007951259613037109
ell 84, elapsed: 0.0004930496215820312
ell 83, elapsed: 0.0005028247833251953
ell 82, elapsed: 0.0004811286926269531
ell 81, elapsed: 0.0004379749298095703
ell 80, elapsed: 0.0005121231079101562
ell 79, elapsed: 0.0004329681396484375
ell 78, elapsed: 0.0005109310150146484
ell 77, elapsed: 0.00043702125549316406
ell 76, elapsed: 0.0004971027374267578
ell 75, elapsed: 0.0004458427429199219
ell 74, elapsed: 0.0005099773406982422
ell 73, elapsed: 0.0004258155822753906
ell 72, elapsed: 0.0005052089691162109
ell 71, elapsed: 0.00043201446533203125
ell 70, elapsed: 0.0005629062652587891
ell 69, elapsed: 0.0004150867462158203
ell 68, elapsed: 0.0005619525909423828
ell 67, elapsed: 0.0004019737243652344
ell 66, elapsed: 0.0004990100860595703
ell 65, elapsed: 0.0004711151123046875
ell 64, elapsed: 0.00055694580078125
ell 63, elapsed: 0.00048613548278808594
ell 62, elapsed: 0.0004868507385253906
ell 61, elapsed: 0.0004711151123046875
ell 60, elapsed: 0.00048804283142089844
ell 59, elapsed: 0.00039005279541015625
ell 58, elapsed: 0.0006041526794433594
ell 57, elapsed: 0.0003991127014160156
ell 56, elapsed: 0.0005660057067871094
ell 55, elapsed: 0.0004990100860595703
ell 54, elapsed: 0.0005731582641601562
ell 53, elapsed: 0.0004069805145263672
ell 52, elapsed: 0.0007808208465576172
ell 51, elapsed: 0.0005099773406982422
ell 50, elapsed: 0.0005598068237304688
ell 49, elapsed: 0.0004470348358154297
ell 48, elapsed: 0.0005619525909423828
ell 47, elapsed: 0.00045800209045410156
ell 46, elapsed: 0.0005359649658203125
ell 45, elapsed: 0.00044798851013183594
ell 44, elapsed: 0.00055694580078125
ell 43, elapsed: 0.00044989585876464844
ell 42, elapsed: 0.0005400180816650391
ell 41, elapsed: 0.0004558563232421875
ell 40, elapsed: 0.0005280971527099609
ell 39, elapsed: 0.00044417381286621094
ell 38, elapsed: 0.0005180835723876953
ell 37, elapsed: 0.0004291534423828125
ell 36, elapsed: 0.0005159378051757812
ell 35, elapsed: 0.00043010711669921875
ell 34, elapsed: 0.0005481243133544922
ell 33, elapsed: 0.0005741119384765625
ell 32, elapsed: 0.0005428791046142578
ell 31, elapsed: 0.0006201267242431641
ell 30, elapsed: 0.0007269382476806641
ell 29, elapsed: 0.0004589557647705078
ell 28, elapsed: 0.0005369186401367188
ell 27, elapsed: 0.00044989585876464844
ell 26, elapsed: 0.0007510185241699219
ell 25, elapsed: 0.0004630088806152344
ell 24, elapsed: 0.0005321502685546875
ell 23, elapsed: 0.0004508495330810547
ell 22, elapsed: 0.0005497932434082031
ell 21, elapsed: 0.0004401206970214844
ell 20, elapsed: 0.0005328655242919922
ell 19, elapsed: 0.00045299530029296875
ell 18, elapsed: 0.0005309581756591797
ell 17, elapsed: 0.0004470348358154297
ell 16, elapsed: 0.0005230903625488281
ell 15, elapsed: 0.00045418739318847656
ell 14, elapsed: 0.0005419254302978516
ell 13, elapsed: 0.00041103363037109375
ell 12, elapsed: 0.00046896934509277344
ell 11, elapsed: 0.0003898143768310547
ell 10, elapsed: 0.0004658699035644531
ell 9, elapsed: 0.0003859996795654297
ell 8, elapsed: 0.0004630088806152344
ell 7, elapsed: 0.0003819465637207031
ell 6, elapsed: 0.0006299018859863281
ell 5, elapsed: 0.00045490264892578125
ell 4, elapsed: 0.0004680156707763672
ell 3, elapsed: 0.000370025634765625
ell 2, elapsed: 0.0004451274871826172
ell 1, elapsed: 0.00036787986755371094
ell 0, elapsed: 0.00045108795166015625
  0.175076 seconds (13.00 k allocations: 674.813 KiB)
elapsed: 0.0005071163177490234
step:          0.060951 sec (0 allocations: 0 byte, 0.0% gc time)
swapping:      0.00056 sec (0 allocations: 0 byte, 0.0% gc time)
calc_Mellell!: 0.002558 sec (0 allocations: 0 byte, 0.0% gc time)
  t0 :  0.000384 sec (0 allocations: 0 byte, 0.0% gc time)
  tm2 : 0.014043 sec (0 allocations: 0 byte, 0.0% gc time)
  tm2s: 0.000384 sec (0 allocations: 0 byte, 0.0% gc time)
  tm4 : 0.032215 sec (0 allocations: 0 byte, 0.0% gc time)
  tp2 : 0.0 sec (0 allocations: 0 byte, 0.0% gc time)
  tp2s: 0.0 sec (0 allocations: 0 byte, 0.0% gc time)
  tp4 : 0.0 sec (0 allocations: 0 byte, 0.0% gc time)
calc_wtdll!:   0.047905 sec (1.344 k allocations: 147.0 KB, 0.0% gc time)
calc_wljj!:    0.004199 sec (6 allocations: 96 byte, 0.0% gc time)
mult_prefac!:  0.0 sec (0 allocations: 0 byte, 0.0% gc time)
convert:       0.0 sec (0 allocations: 0 byte, 0.0% gc time)
write:         0.005397 sec (0 allocations: 0 byte, 0.0% gc time)
test_rand_2f1: 0.0 sec (0 allocations: 0 byte, 0.0% gc time)
Closing outfile out/Ml21-cache.bin...   0.003277 seconds
  0.000384 seconds (52 allocations: 28.297 KiB)
make_phi():   0.002885 seconds (8.20 k allocations: 238.016 KiB)
  0.015728 seconds (12.10 k allocations: 322.000 KiB)
tskip:       1.9e-5 sec (0 allocations: 0 byte, 0.0% gc time)
tread:       0.002285 sec (20 allocations: 2.188 KB, 0.0% gc time)
tmultphi:    0.001161 sec (0 allocations: 0 byte, 0.0% gc time)
tbrfft:      0.004166 sec (896 allocations: 42.0 KB, 0.0% gc time)
tmultprefac: 0.002716 sec (0 allocations: 0 byte, 0.0% gc time)
toutfunc:    0.005404 sec (10.528 k allocations: 206.5 KB, 0.0% gc time)
Testing R=0.9 ... passed
Calculating fmax: 
  dlrec    = 4
  dlrecRg1 = -4
  q=1.1, R=0.8:	  0.577392 seconds (145.59 k allocations: 68.095 MiB, 1.90% gc time)

  0.578877 seconds (145.66 k allocations: 68.128 MiB, 1.89% gc time)
ℓ = 1202
Δℓ = 4
ΔℓRg1 = -4
N = 1600
q = 1.1
kmin = 1.0e-5
kmax = 100000.00000000004
χ0 = 0.023029999999999995
RR = RR.tsv
ℓmax = ℓmax.bin
f21 = f21.bin
kmin = 1.0e-5
kmax = 100000.0
dlrec    = 4
dlrecRg1 = -4
Output size: 5741568 bytes = 0.005347251892089844 GiB
Output size: 51264 bytes = 4.774332046508789e-5 GiB
Reading 'out/F21EllCache'...   0.001267 seconds (271 allocations: 84.719 KiB)
ellmax: 1202
lmaxcache: 1202
fell[:,1,1] = Complex{Float64}[7.519068145690986e-120 - 1.8416405474382574e-135im, 7.541664537386155e-120 - 1.847175067190611e-135im]
ell 1202, elapsed: 0.00010609626770019531
ell 1201, elapsed: 0.0007588863372802734
ell 1200, elapsed: 0.0007979869842529297
ell 1199, elapsed: 0.0005159378051757812
ell 1198, elapsed: 0.0005488395690917969
ell 1002, elapsed: 0.012115955352783203
ell 1001, elapsed: 0.00044608116149902344
ell 1000, elapsed: 0.0005879402160644531
ell 999, elapsed: 0.0005598068237304688
ell 998, elapsed: 0.0005059242248535156
ell 902, elapsed: 0.005997180938720703
ell 901, elapsed: 0.0005619525909423828
ell 900, elapsed: 0.0005278587341308594
ell 899, elapsed: 0.0004341602325439453
ell 898, elapsed: 0.000492095947265625
ell 802, elapsed: 0.006014108657836914
ell 801, elapsed: 0.0003509521484375
ell 800, elapsed: 0.00042700767517089844
ell 799, elapsed: 0.0004839897155761719
ell 798, elapsed: 0.0004360675811767578
ell 702, elapsed: 0.00561213493347168
ell 701, elapsed: 0.0005588531494140625
ell 700, elapsed: 0.0004329681396484375
ell 699, elapsed: 0.0004150867462158203
ell 698, elapsed: 0.00042891502380371094
ell 602, elapsed: 0.005919933319091797
ell 601, elapsed: 0.0004267692565917969
ell 600, elapsed: 0.0003979206085205078
ell 599, elapsed: 0.0004279613494873047
ell 598, elapsed: 0.00047206878662109375
ell 502, elapsed: 0.006426811218261719
ell 501, elapsed: 0.000659942626953125
ell 500, elapsed: 0.00038886070251464844
ell 499, elapsed: 0.0003979206085205078
ell 498, elapsed: 0.0005099773406982422
ell 402, elapsed: 0.005977153778076172
ell 401, elapsed: 0.0005271434783935547
ell 400, elapsed: 0.00048804283142089844
ell 399, elapsed: 0.00045609474182128906
ell 398, elapsed: 0.000453948974609375
ell 302, elapsed: 0.005485057830810547
ell 301, elapsed: 0.00040602684020996094
ell 300, elapsed: 0.00047707557678222656
ell 299, elapsed: 0.0004417896270751953
ell 298, elapsed: 0.00047087669372558594
ell 202, elapsed: 0.006865978240966797
ell 201, elapsed: 0.0005800724029541016
ell 200, elapsed: 0.0006079673767089844
ell 199, elapsed: 0.0004990100860595703
ell 198, elapsed: 0.0004971027374267578
ell 152, elapsed: 0.0033769607543945312
ell 151, elapsed: 0.0005180835723876953
ell 150, elapsed: 0.0004379749298095703
ell 149, elapsed: 0.0004220008850097656
ell 148, elapsed: 0.000431060791015625
ell 127, elapsed: 0.0017008781433105469
ell 126, elapsed: 0.00046706199645996094
ell 125, elapsed: 0.00043582916259765625
ell 124, elapsed: 0.0004978179931640625
ell 123, elapsed: 0.0005009174346923828
ell 114, elapsed: 0.0010418891906738281
ell 113, elapsed: 0.0005309581756591797
ell 112, elapsed: 0.00046706199645996094
ell 111, elapsed: 0.0006470680236816406
ell 110, elapsed: 0.00043511390686035156
ell 102, elapsed: 0.0009489059448242188
ell 101, elapsed: 0.00043511390686035156
ell 100, elapsed: 0.0003910064697265625
ell 99, elapsed: 0.0004088878631591797
ell 98, elapsed: 0.00044798851013183594
ell 97, elapsed: 0.00047397613525390625
ell 96, elapsed: 0.0006079673767089844
ell 95, elapsed: 0.0004630088806152344
ell 94, elapsed: 0.0006248950958251953
ell 93, elapsed: 0.0005609989166259766
ell 92, elapsed: 0.0006921291351318359
ell 91, elapsed: 0.0005440711975097656
ell 90, elapsed: 0.0005729198455810547
ell 89, elapsed: 0.00045108795166015625
ell 88, elapsed: 0.0006051063537597656
ell 87, elapsed: 0.00044798851013183594
ell 86, elapsed: 0.0005438327789306641
ell 85, elapsed: 0.00048804283142089844
ell 84, elapsed: 0.0006048679351806641
ell 83, elapsed: 0.0004940032958984375
ell 82, elapsed: 0.0005521774291992188
ell 81, elapsed: 0.0005528926849365234
ell 80, elapsed: 0.0006878376007080078
ell 79, elapsed: 0.0006048679351806641
ell 78, elapsed: 0.0007069110870361328
ell 77, elapsed: 0.0004680156707763672
ell 76, elapsed: 0.0004909038543701172
ell 75, elapsed: 0.0003688335418701172
ell 74, elapsed: 0.0004951953887939453
ell 73, elapsed: 0.0003650188446044922
ell 72, elapsed: 0.00043582916259765625
ell 71, elapsed: 0.0004429817199707031
ell 70, elapsed: 0.000537872314453125
ell 69, elapsed: 0.00043892860412597656
ell 68, elapsed: 0.0005738735198974609
ell 67, elapsed: 0.00045299530029296875
ell 66, elapsed: 0.0005810260772705078
ell 65, elapsed: 0.0005311965942382812
ell 64, elapsed: 0.0006630420684814453
ell 63, elapsed: 0.0005509853363037109
ell 62, elapsed: 0.0006129741668701172
ell 61, elapsed: 0.00044798851013183594
ell 60, elapsed: 0.0005390644073486328
ell 59, elapsed: 0.0004417896270751953
ell 58, elapsed: 0.0005340576171875
ell 57, elapsed: 0.00045299530029296875
ell 56, elapsed: 0.0004980564117431641
ell 55, elapsed: 0.0004889965057373047
ell 54, elapsed: 0.0006821155548095703
ell 53, elapsed: 0.0004899501800537109
ell 52, elapsed: 0.0005519390106201172
ell 51, elapsed: 0.0004839897155761719
ell 50, elapsed: 0.0005748271942138672
ell 49, elapsed: 0.00048613548278808594
ell 48, elapsed: 0.0005908012390136719
ell 47, elapsed: 0.0004820823669433594
ell 46, elapsed: 0.0007860660552978516
ell 45, elapsed: 0.0005719661712646484
ell 44, elapsed: 0.0005669593811035156
ell 43, elapsed: 0.00042700767517089844
ell 42, elapsed: 0.0004851818084716797
ell 41, elapsed: 0.0004210472106933594
ell 40, elapsed: 0.0004930496215820312
ell 39, elapsed: 0.00041604042053222656
ell 38, elapsed: 0.0005049705505371094
ell 37, elapsed: 0.0005018711090087891
ell 36, elapsed: 0.0005588531494140625
ell 35, elapsed: 0.0005919933319091797
[...]
ell 782, elapsed: 0.0015590190887451172
ell 781, elapsed: 0.0007929801940917969
ell 780, elapsed: 0.0007998943328857422
ell 779, elapsed: 0.0008101463317871094
ell 778, elapsed: 0.0008060932159423828
ell 772, elapsed: 0.001558065414428711
ell 771, elapsed: 0.0008151531219482422
ell 770, elapsed: 0.0008118152618408203
ell 769, elapsed: 0.0008180141448974609
ell 768, elapsed: 0.0008120536804199219
ell 762, elapsed: 0.0015559196472167969
ell 761, elapsed: 0.0008108615875244141
ell 760, elapsed: 0.0008170604705810547
ell 759, elapsed: 0.0008070468902587891
ell 758, elapsed: 0.0008101463317871094
ell 752, elapsed: 0.0017731189727783203
ell 751, elapsed: 0.0007979869842529297
ell 750, elapsed: 0.0008108615875244141
ell 749, elapsed: 0.0007958412170410156
ell 748, elapsed: 0.0007970333099365234
ell 742, elapsed: 0.00173187255859375
ell 741, elapsed: 0.0007679462432861328
ell 740, elapsed: 0.0008020401000976562
ell 739, elapsed: 0.0007910728454589844
ell 738, elapsed: 0.0008311271667480469
ell 732, elapsed: 0.0015478134155273438
ell 731, elapsed: 0.0008029937744140625
ell 730, elapsed: 0.0008189678192138672
ell 729, elapsed: 0.0008149147033691406
ell 728, elapsed: 0.0008139610290527344
ell 722, elapsed: 0.001558065414428711
ell 721, elapsed: 0.0008192062377929688
ell 720, elapsed: 0.0008108615875244141
ell 719, elapsed: 0.0008177757263183594
ell 718, elapsed: 0.0008251667022705078
ell 712, elapsed: 0.0015728473663330078
ell 711, elapsed: 0.0008018016815185547
ell 710, elapsed: 0.0008101463317871094
ell 709, elapsed: 0.0008070468902587891
ell 708, elapsed: 0.0008301734924316406
ell 702, elapsed: 0.0017418861389160156
ell 701, elapsed: 0.0007519721984863281
ell 700, elapsed: 0.0008170604705810547
ell 699, elapsed: 0.0008139610290527344
ell 698, elapsed: 0.0007901191711425781
ell 692, elapsed: 0.0015370845794677734
ell 691, elapsed: 0.0008070468902587891
ell 690, elapsed: 0.0008060932159423828
ell 689, elapsed: 0.0008130073547363281
ell 688, elapsed: 0.0007939338684082031
ell 682, elapsed: 0.0015408992767333984
ell 681, elapsed: 0.0008118152618408203
ell 680, elapsed: 0.0008041858673095703
ell 679, elapsed: 0.0008020401000976562
ell 678, elapsed: 0.0008649826049804688
ell 672, elapsed: 0.0015380382537841797
ell 671, elapsed: 0.0007951259613037109
ell 670, elapsed: 0.0008029937744140625
ell 669, elapsed: 0.0008161067962646484
ell 668, elapsed: 0.0007998943328857422
ell 662, elapsed: 0.0015227794647216797
ell 661, elapsed: 0.0008039474487304688
ell 660, elapsed: 0.0008199214935302734
ell 659, elapsed: 0.0007960796356201172
ell 658, elapsed: 0.0007967948913574219
ell 652, elapsed: 0.0015430450439453125
ell 651, elapsed: 0.0008199214935302734
ell 650, elapsed: 0.0007979869842529297
ell 649, elapsed: 0.0007917881011962891
ell 648, elapsed: 0.0007998943328857422
ell 642, elapsed: 0.0015718936920166016
ell 641, elapsed: 0.0008111000061035156
ell 640, elapsed: 0.0007939338684082031
ell 639, elapsed: 0.0008060932159423828
ell 638, elapsed: 0.0008161067962646484
ell 632, elapsed: 0.0017387866973876953
ell 631, elapsed: 0.0007519721984863281
ell 630, elapsed: 0.0007979869842529297
ell 629, elapsed: 0.0007350444793701172
ell 628, elapsed: 0.0007488727569580078
ell 622, elapsed: 0.0014231204986572266
ell 621, elapsed: 0.0007581710815429688
ell 620, elapsed: 0.0007641315460205078
ell 619, elapsed: 0.0007560253143310547
ell 618, elapsed: 0.0007429122924804688
ell 612, elapsed: 0.0014269351959228516
ell 611, elapsed: 0.0007698535919189453
ell 610, elapsed: 0.0007538795471191406
ell 609, elapsed: 0.0007519721984863281
ell 608, elapsed: 0.0007469654083251953
ell 602, elapsed: 0.0013828277587890625
ell 601, elapsed: 0.0007410049438476562
ell 600, elapsed: 0.0007610321044921875
ell 599, elapsed: 0.0007550716400146484
ell 598, elapsed: 0.0007519721984863281
ell 592, elapsed: 0.0015079975128173828
ell 591, elapsed: 0.0007488727569580078
ell 590, elapsed: 0.0007529258728027344
ell 589, elapsed: 0.0007290840148925781
ell 588, elapsed: 0.0007758140563964844
ell 582, elapsed: 0.0014519691467285156
ell 581, elapsed: 0.0007228851318359375
ell 580, elapsed: 0.0007350444793701172
ell 579, elapsed: 0.00074005126953125
ell 578, elapsed: 0.0007660388946533203
ell 572, elapsed: 0.0014569759368896484
ell 571, elapsed: 0.0007479190826416016
ell 570, elapsed: 0.0007841587066650391
ell 569, elapsed: 0.0007648468017578125
ell 568, elapsed: 0.0007669925689697266
ell 562, elapsed: 0.0014719963073730469
ell 561, elapsed: 0.0008120536804199219
ell 560, elapsed: 0.0007491111755371094
ell 559, elapsed: 0.0007610321044921875
ell 558, elapsed: 0.000782012939453125
ell 552, elapsed: 0.001522064208984375
ell 551, elapsed: 0.0007588863372802734
ell 550, elapsed: 0.0007600784301757812
ell 549, elapsed: 0.0007441043853759766
ell 548, elapsed: 0.0007488727569580078
ell 542, elapsed: 0.0014848709106445312
ell 541, elapsed: 0.0007607936859130859
ell 540, elapsed: 0.0007328987121582031
ell 539, elapsed: 0.0007529258728027344
ell 538, elapsed: 0.0007622241973876953
ell 532, elapsed: 0.0014750957489013672
ell 531, elapsed: 0.0007719993591308594
ell 530, elapsed: 0.0008060932159423828
ell 529, elapsed: 0.0007581710815429688
ell 528, elapsed: 0.0007610321044921875
ell 522, elapsed: 0.0014591217041015625
ell 521, elapsed: 0.0007669925689697266
ell 520, elapsed: 0.0007619857788085938
ell 519, elapsed: 0.000720977783203125
ell 518, elapsed: 0.0007410049438476562
ell 512, elapsed: 0.0014820098876953125
ell 511, elapsed: 0.0007669925689697266
ell 510, elapsed: 0.0007340908050537109
ell 509, elapsed: 0.0007500648498535156
ell 508, elapsed: 0.0007410049438476562
ell 502, elapsed: 0.0015289783477783203
ell 501, elapsed: 0.0007750988006591797
ell 500, elapsed: 0.0007448196411132812
ell 499, elapsed: 0.0007939338684082031
ell 498, elapsed: 0.0007550716400146484
ell 492, elapsed: 0.0014739036560058594
ell 491, elapsed: 0.0007519721984863281
ell 490, elapsed: 0.0008459091186523438
ell 489, elapsed: 0.0008039474487304688
ell 488, elapsed: 0.000759124755859375
ell 482, elapsed: 0.0014688968658447266
ell 481, elapsed: 0.0008161067962646484
ell 480, elapsed: 0.0007750988006591797
ell 479, elapsed: 0.0007579326629638672
ell 478, elapsed: 0.0007431507110595703
ell 472, elapsed: 0.0014829635620117188
ell 471, elapsed: 0.0007691383361816406
ell 470, elapsed: 0.0007650852203369141
ell 469, elapsed: 0.0007572174072265625
ell 468, elapsed: 0.0007619857788085938
ell 462, elapsed: 0.0014789104461669922
ell 461, elapsed: 0.0007388591766357422
ell 460, elapsed: 0.000762939453125
ell 459, elapsed: 0.0007460117340087891
ell 458, elapsed: 0.0007829666137695312
ell 452, elapsed: 0.0014150142669677734
ell 451, elapsed: 0.0007371902465820312
ell 450, elapsed: 0.0007281303405761719
ell 449, elapsed: 0.0007650852203369141
ell 448, elapsed: 0.0007610321044921875
ell 442, elapsed: 0.0014491081237792969
ell 441, elapsed: 0.0007560253143310547
ell 440, elapsed: 0.0007700920104980469
ell 439, elapsed: 0.0007569789886474609
ell 438, elapsed: 0.0007331371307373047
ell 432, elapsed: 0.0014579296112060547
ell 431, elapsed: 0.0007729530334472656
ell 430, elapsed: 0.0007529258728027344
ell 429, elapsed: 0.0007529258728027344
ell 428, elapsed: 0.0007529258728027344
ell 422, elapsed: 0.0014681816101074219
ell 421, elapsed: 0.0007610321044921875
ell 420, elapsed: 0.0007600784301757812
ell 419, elapsed: 0.0007450580596923828
ell 418, elapsed: 0.0007579326629638672
ell 412, elapsed: 0.0014331340789794922
ell 411, elapsed: 0.0007660388946533203
ell 410, elapsed: 0.0007619857788085938
ell 409, elapsed: 0.0007660388946533203
ell 408, elapsed: 0.0007731914520263672
ell 402, elapsed: 0.0014889240264892578
ell 401, elapsed: 0.0007588863372802734
ell 400, elapsed: 0.0007739067077636719
ell 399, elapsed: 0.0007688999176025391
ell 398, elapsed: 0.0007529258728027344
ell 392, elapsed: 0.0014560222625732422
ell 391, elapsed: 0.0007481575012207031
ell 390, elapsed: 0.0007641315460205078
ell 389, elapsed: 0.0007588863372802734
ell 388, elapsed: 0.0007739067077636719
ell 382, elapsed: 0.0014920234680175781
ell 381, elapsed: 0.0007700920104980469
ell 380, elapsed: 0.0007550716400146484
ell 379, elapsed: 0.0007698535919189453
ell 378, elapsed: 0.0007500648498535156
ell 372, elapsed: 0.001413106918334961
ell 371, elapsed: 0.0007541179656982422
ell 370, elapsed: 0.0007598400115966797
ell 369, elapsed: 0.0007450580596923828
ell 368, elapsed: 0.0007679462432861328
ell 362, elapsed: 0.0017178058624267578
ell 361, elapsed: 0.0006899833679199219
ell 360, elapsed: 0.0007250308990478516
ell 359, elapsed: 0.0007388591766357422
ell 358, elapsed: 0.0007669925689697266
ell 352, elapsed: 0.0016710758209228516
ell 351, elapsed: 0.0007219314575195312
ell 350, elapsed: 0.0007908344268798828
ell 349, elapsed: 0.0007338523864746094
ell 348, elapsed: 0.0007188320159912109
ell 342, elapsed: 0.0014560222625732422
ell 341, elapsed: 0.0007600784301757812
ell 340, elapsed: 0.0007259845733642578
ell 339, elapsed: 0.000720977783203125
ell 338, elapsed: 0.0007781982421875
ell 332, elapsed: 0.00145721435546875
ell 331, elapsed: 0.00074005126953125
ell 330, elapsed: 0.0007390975952148438
ell 329, elapsed: 0.0007381439208984375
ell 328, elapsed: 0.0007359981536865234
ell 322, elapsed: 0.001486063003540039
ell 321, elapsed: 0.0007607936859130859
ell 320, elapsed: 0.0007750988006591797
ell 319, elapsed: 0.0007448196411132812
ell 318, elapsed: 0.0007739067077636719
ell 312, elapsed: 0.0014300346374511719
ell 311, elapsed: 0.0007588863372802734
ell 310, elapsed: 0.0007588863372802734
ell 309, elapsed: 0.0008058547973632812
ell 308, elapsed: 0.0007691383361816406
ell 302, elapsed: 0.0014851093292236328
ell 301, elapsed: 0.0007460117340087891
ell 300, elapsed: 0.0008211135864257812
ell 299, elapsed: 0.0007560253143310547
ell 298, elapsed: 0.0007638931274414062
ell 292, elapsed: 0.0014760494232177734
ell 291, elapsed: 0.0007870197296142578
ell 290, elapsed: 0.0007700920104980469
ell 289, elapsed: 0.0007650852203369141
ell 288, elapsed: 0.0007688999176025391
ell 282, elapsed: 0.0014832019805908203
ell 281, elapsed: 0.0007529258728027344
ell 280, elapsed: 0.0007638931274414062
ell 279, elapsed: 0.0007610321044921875
ell 278, elapsed: 0.000762939453125
ell 272, elapsed: 0.0014889240264892578
ell 271, elapsed: 0.0007350444793701172
ell 270, elapsed: 0.0007531642913818359
ell 269, elapsed: 0.0007641315460205078
ell 268, elapsed: 0.0007469654083251953
ell 262, elapsed: 0.0014009475708007812
ell 261, elapsed: 0.0007381439208984375
ell 260, elapsed: 0.0007240772247314453
ell 259, elapsed: 0.0007269382476806641
ell 258, elapsed: 0.0007138252258300781
ell 252, elapsed: 0.0014710426330566406
ell 251, elapsed: 0.0007519721984863281
ell 250, elapsed: 0.0007860660552978516
ell 249, elapsed: 0.0007781982421875
ell 248, elapsed: 0.0007431507110595703
ell 242, elapsed: 0.0014541149139404297
ell 241, elapsed: 0.0007531642913818359
ell 240, elapsed: 0.0007460117340087891
ell 239, elapsed: 0.0007531642913818359
ell 238, elapsed: 0.0007369518280029297
ell 232, elapsed: 0.0014200210571289062
ell 231, elapsed: 0.0007359981536865234
ell 230, elapsed: 0.0007309913635253906
ell 229, elapsed: 0.0007300376892089844
ell 228, elapsed: 0.0007178783416748047
ell 222, elapsed: 0.001458883285522461
ell 221, elapsed: 0.00074005126953125
ell 220, elapsed: 0.0007121562957763672
ell 219, elapsed: 0.0007450580596923828
ell 218, elapsed: 0.0007750988006591797
ell 212, elapsed: 0.0014820098876953125
ell 211, elapsed: 0.0007419586181640625
ell 210, elapsed: 0.0007529258728027344
ell 209, elapsed: 0.000759124755859375
ell 208, elapsed: 0.0007491111755371094
ell 202, elapsed: 0.0014259815216064453
ell 201, elapsed: 0.0007371902465820312
ell 200, elapsed: 0.0007598400115966797
ell 199, elapsed: 0.0007159709930419922
ell 198, elapsed: 0.0007631778717041016
ell 192, elapsed: 0.0014979839324951172
ell 191, elapsed: 0.0007531642913818359
ell 190, elapsed: 0.0007498264312744141
ell 189, elapsed: 0.0007238388061523438
ell 188, elapsed: 0.0007600784301757812
ell 182, elapsed: 0.001461029052734375
ell 181, elapsed: 0.0007331371307373047
ell 180, elapsed: 0.0007259845733642578
ell 179, elapsed: 0.0007278919219970703
ell 178, elapsed: 0.0007388591766357422
ell 172, elapsed: 0.0015478134155273438
ell 171, elapsed: 0.0007939338684082031
ell 170, elapsed: 0.0007479190826416016
ell 169, elapsed: 0.0007500648498535156
ell 168, elapsed: 0.0007739067077636719
ell 162, elapsed: 0.0014438629150390625
ell 161, elapsed: 0.0007431507110595703
ell 160, elapsed: 0.0007338523864746094
ell 159, elapsed: 0.0007510185241699219
ell 158, elapsed: 0.0007219314575195312
ell 152, elapsed: 0.0014989376068115234
ell 151, elapsed: 0.0007479190826416016
ell 150, elapsed: 0.0007460117340087891
ell 149, elapsed: 0.0007319450378417969
ell 148, elapsed: 0.0007381439208984375
ell 142, elapsed: 0.0014309883117675781
ell 141, elapsed: 0.0007710456848144531
ell 140, elapsed: 0.0007719993591308594
ell 139, elapsed: 0.0007319450378417969
ell 138, elapsed: 0.0007619857788085938
ell 132, elapsed: 0.001461029052734375
ell 131, elapsed: 0.0007548332214355469
ell 130, elapsed: 0.0007390975952148438
ell 129, elapsed: 0.0007481575012207031
ell 128, elapsed: 0.0007297992706298828
ell 122, elapsed: 0.0016779899597167969
ell 121, elapsed: 0.0007538795471191406
ell 120, elapsed: 0.0007550716400146484
ell 119, elapsed: 0.0007719993591308594
ell 118, elapsed: 0.0007710456848144531
ell 112, elapsed: 0.0014188289642333984
ell 111, elapsed: 0.0007479190826416016
ell 110, elapsed: 0.0007381439208984375
ell 109, elapsed: 0.0007371902465820312
ell 108, elapsed: 0.0007419586181640625
ell 102, elapsed: 0.001397848129272461
ell 101, elapsed: 0.0029039382934570312
ell 100, elapsed: 0.0031690597534179688
ell 99, elapsed: 0.0029129981994628906
ell 98, elapsed: 0.003186941146850586
ell 92, elapsed: 0.005764961242675781
ell 91, elapsed: 0.0029060840606689453
ell 90, elapsed: 0.003214120864868164
ell 89, elapsed: 0.0029578208923339844
ell 88, elapsed: 0.002972126007080078
ell 82, elapsed: 0.006453990936279297
ell 81, elapsed: 0.003114938735961914
ell 80, elapsed: 0.0032629966735839844
ell 79, elapsed: 0.0032880306243896484
ell 78, elapsed: 0.003415822982788086
ell 72, elapsed: 0.006081104278564453
ell 71, elapsed: 0.0035140514373779297
ell 70, elapsed: 0.0029900074005126953
ell 69, elapsed: 0.003013134002685547
ell 68, elapsed: 0.0029230117797851562
ell 62, elapsed: 0.006049156188964844
ell 61, elapsed: 0.002927064895629883
ell 60, elapsed: 0.0029439926147460938
ell 59, elapsed: 0.0029718875885009766
ell 58, elapsed: 0.0029571056365966797
ell 52, elapsed: 0.00607609748840332
ell 51, elapsed: 0.0029990673065185547
ell 50, elapsed: 0.0029408931732177734
ell 49, elapsed: 0.00296783447265625
ell 48, elapsed: 0.0032160282135009766
ell 42, elapsed: 0.0056269168853759766
ell 41, elapsed: 0.0031499862670898438
ell 40, elapsed: 0.0028798580169677734
ell 39, elapsed: 0.0032279491424560547
ell 38, elapsed: 0.003200054168701172
ell 32, elapsed: 0.005682945251464844
ell 31, elapsed: 0.0029649734497070312
ell 30, elapsed: 0.0029408931732177734
ell 29, elapsed: 0.003267049789428711
ell 28, elapsed: 0.002897024154663086
ell 22, elapsed: 0.005724906921386719
ell 21, elapsed: 0.0032148361206054688
ell 20, elapsed: 0.002949953079223633
ell 19, elapsed: 0.003303050994873047
ell 18, elapsed: 0.0031070709228515625
ell 12, elapsed: 0.0058519840240478516
ell 11, elapsed: 0.003040790557861328
ell 10, elapsed: 0.0030438899993896484
ell 9, elapsed: 0.002998828887939453
ell 8, elapsed: 0.00339508056640625
  0.765985 seconds (74.17 k allocations: 12.052 MiB)
elapsed: 0.0045168399810791016
step:          0.064549 sec (0 allocations: 0 byte, 0.0% gc time)
swapping:      0.000793 sec (0 allocations: 0 byte, 0.0% gc time)
calc_Mellell!: 0.034748 sec (0 allocations: 0 byte, 0.0% gc time)
  t0 :  0.010433 sec (0 allocations: 0 byte, 0.0% gc time)
  tm2 : 0.066918 sec (0 allocations: 0 byte, 0.0% gc time)
  tm2s: 0.008926 sec (0 allocations: 0 byte, 0.0% gc time)
  tm4 : 0.168927 sec (0 allocations: 0 byte, 0.0% gc time)
  tp2 : 0.0 sec (0 allocations: 0 byte, 0.0% gc time)
  tp2s: 0.0 sec (0 allocations: 0 byte, 0.0% gc time)
  tp4 : 0.0 sec (0 allocations: 0 byte, 0.0% gc time)
calc_wtdll!:   0.494151 sec (49.2 k allocations: 11.133 MB, 0.0% gc time)
calc_wljj!:    0.042173 sec (69 allocations: 1.078 KB, 0.0% gc time)
mult_prefac!:  0.0 sec (0 allocations: 0 byte, 0.0% gc time)
convert:       0.0 sec (0 allocations: 0 byte, 0.0% gc time)
write:         0.036025 sec (0 allocations: 0 byte, 0.0% gc time)
test_rand_2f1: 0.0 sec (0 allocations: 0 byte, 0.0% gc time)
Closing outfile out/MlCache/MlCache.bin...   0.000014 seconds
xi, l=0, nu=0:   0.411929 seconds (555.93 k allocations: 27.065 MiB)
xi, l=0, nu=-2:  0.002420 seconds (144 allocations: 149.563 KiB)
Created 'out/xi.tsv'.
  q=1.1, R=0.6:	  1.220963 seconds (373.06 k allocations: 174.511 MiB, 2.21% gc time)
  q=1.1, R=0.7:	  1.205826 seconds (391.29 k allocations: 182.916 MiB, 1.56% gc time)
  q=1.1, R=0.8:	  1.178824 seconds (383.81 k allocations: 179.466 MiB, 1.57% gc time)
  q=1.1, R=0.9:	  1.332258 seconds (376.40 k allocations: 176.056 MiB, 1.41% gc time)
  q=1.1, R=0.998:	 21.393927 seconds (10.67 M allocations: 831.832 MiB, 0.55% gc time)
  q=1.1, R=1.0:	  0.044576 seconds (12.29 k allocations: 9.129 MiB, 5.04% gc time)

ℓ = 1000
Δℓ = 4
ΔℓRg1 = -4
N = 4096
q = 1.1
kmin = 1.0e-5
kmax = 1000.0
χ0 = 0.001
RR = RR.tsv
ℓmax = ℓmax.bin
f21 = f21.bin
kmin = 1.0e-5
kmax = 1000.0
dlrec    = 4
dlrecRg1 = -4
Output size: 1573632 bytes = 0.0014655590057373047 GiB
Output size: 786816 bytes = 0.0007327795028686523 GiB
Reading 'out/F21EllCache'...   0.001580 seconds (272 allocations: 533.594 KiB)
ellmax: 1002
lmaxcache: 1000
fell[:,1,1] = Complex{Float64}[1.7262928128202118e-224 - 4.2281979352226944e-240im, 1.7282693092099662e-224 - 4.233038955177176e-240im]
ell 1002, elapsed: 8.487701416015625e-5
ell 1001, elapsed: 0.0013718605041503906
ell 1000, elapsed: 0.001068115234375
ell 999, elapsed: 0.006927967071533203
ell 998, elapsed: 0.0065610408782958984
ell 44, elapsed: 0.6978580951690674
ell 43, elapsed: 0.006231069564819336
ell 42, elapsed: 0.00522303581237793
ell 41, elapsed: 0.005762815475463867
ell 40, elapsed: 0.005581855773925781
  0.745404 seconds (4.65 k allocations: 318.375 KiB)
elapsed: 0.006696939468383789
step:          0.691577 sec (0 allocations: 0 byte, 0.0% gc time)
swapping:      0.000557 sec (0 allocations: 0 byte, 0.0% gc time)
calc_Mellell!: 0.001209 sec (0 allocations: 0 byte, 0.0% gc time)
  t0 :  0.000935 sec (0 allocations: 0 byte, 0.0% gc time)
  tm2 : 0.010361 sec (0 allocations: 0 byte, 0.0% gc time)
  tm2s: 0.000748 sec (0 allocations: 0 byte, 0.0% gc time)
  tm4 : 0.029119 sec (0 allocations: 0 byte, 0.0% gc time)
  tp2 : 0.0 sec (0 allocations: 0 byte, 0.0% gc time)
  tp2s: 0.0 sec (0 allocations: 0 byte, 0.0% gc time)
  tp4 : 0.0 sec (0 allocations: 0 byte, 0.0% gc time)
calc_wtdll!:   0.041434 sec (480 allocations: 52.5 KB, 0.0% gc time)
calc_wljj!:    0.00205 sec (1 allocations: 16 byte, 0.0% gc time)
mult_prefac!:  0.0 sec (0 allocations: 0 byte, 0.0% gc time)
convert:       0.0 sec (0 allocations: 0 byte, 0.0% gc time)
write:         0.001 sec (0 allocations: 0 byte, 0.0% gc time)
test_rand_2f1: 0.0 sec (0 allocations: 0 byte, 0.0% gc time)
Closing outfile out/MlCache/MlCache.bin...   0.001397 seconds
  0.482566 seconds (54 allocations: 67.203 KiB)
make_phi():   0.010219 seconds (80 allocations: 276.297 KiB)
  0.003091 seconds (108 allocations: 5.813 KiB)
tskip:       1.0e-6 sec (0 allocations: 0 byte, 0.0% gc time)
tread:       0.000637 sec (20 allocations: 1.328 KB, 0.0% gc time)
tmultphi:    0.000289 sec (0 allocations: 0 byte, 0.0% gc time)
tbrfft:      0.001161 sec (96 allocations: 4.5 KB, 0.0% gc time)
tmultprefac: 0.000726 sec (0 allocations: 0 byte, 0.0% gc time)
toutfunc:    0.00038 sec (0 allocations: 0 byte, 0.0% gc time)
Created 'out/wl42_jj00.tsv'.
Created 'out/wl42_jj02.tsv'.
   Testing TwoFAST tests passed 
