Julia Version 1.3.0
Commit 46ce4d7933 (2019-11-26 06:09 UTC)
Platform Info:
  OS: Linux (x86_64-pc-linux-gnu)
  CPU: Intel(R) Xeon(R) Silver 4114 CPU @ 2.20GHz
  WORD_SIZE: 64
  LIBM: libopenlibm
  LLVM: libLLVM-6.0.1 (ORCJIT, skylake)
Environment:
  JULIA_DEPOT_PATH = ::/usr/local/share/julia

 Resolving package versions...
 Installed FFTW_jll ───────── v3.3.9+3
 Installed IncGammaBeta ───── v0.1.0
 Installed URIParser ──────── v0.4.0
 Installed MKL_jll ────────── v2019.0.117+0
 Installed IntelOpenMP_jll ── v2018.0.3+0
 Installed BinDeps ────────── v1.0.0
 Installed SpecialFunctions ─ v0.8.0
 Installed FFTW ───────────── v1.2.0
 Installed BinaryProvider ─── v0.5.8
 Installed AbstractFFTs ───── v0.5.0
 Installed AbstractAlgebra ── v0.7.1
 Installed Reexport ───────── v0.2.0
 Installed Nemo ───────────── v0.15.1
 Installed TwoFAST ────────── v0.1.0
  Updating `~/.julia/environments/v1.3/Project.toml`
  [0dd23c3e] + TwoFAST v0.1.0
  Updating `~/.julia/environments/v1.3/Manifest.toml`
  [c3fe647b] + AbstractAlgebra v0.7.1
  [621f4979] + AbstractFFTs v0.5.0
  [9e28174c] + BinDeps v1.0.0
  [b99e7846] + BinaryProvider v0.5.8
  [7a1cc6ca] + FFTW v1.2.0
  [f5851436] + FFTW_jll v3.3.9+3
  [5087d2c0] + IncGammaBeta v0.1.0
  [1d5cc7b8] + IntelOpenMP_jll v2018.0.3+0
  [856f044c] + MKL_jll v2019.0.117+0
  [2edaba10] + Nemo v0.15.1
  [189a3867] + Reexport v0.2.0
  [276daf66] + SpecialFunctions v0.8.0
  [0dd23c3e] + TwoFAST v0.1.0
  [30578b45] + URIParser v0.4.0
  [2a0f44e3] + Base64 
  [ade2ca70] + Dates 
  [8bb1440f] + DelimitedFiles 
  [8ba89e20] + Distributed 
  [b77e0a4c] + InteractiveUtils 
  [76f85450] + LibGit2 
  [8f399da3] + Libdl 
  [37e2e46d] + LinearAlgebra 
  [56ddb016] + Logging 
  [d6f4376e] + Markdown 
  [a63ad114] + Mmap 
  [44cfe95a] + Pkg 
  [de0858da] + Printf 
  [3fa0cd96] + REPL 
  [9a3f8284] + Random 
  [ea8e919c] + SHA 
  [9e88b42a] + Serialization 
  [6462fe0b] + Sockets 
  [2f01184e] + SparseArrays 
  [8dfed614] + Test 
  [cf7118a7] + UUIDs 
  [4ec0a83e] + Unicode 
  Building SpecialFunctions → `~/.julia/packages/SpecialFunctions/ne2iw/deps/build.log`
  Building FFTW ────────────→ `~/.julia/packages/FFTW/qqcBj/deps/build.log`
  Building Nemo ────────────→ `~/.julia/packages/Nemo/qzx0m/deps/build.log`
   Testing TwoFAST
 Resolving package versions...
 Installed Dierckx ─ v0.4.1
  Building Dierckx → `~/.julia/packages/Dierckx/9SY4A/deps/build.log`
    Status `/tmp/jl_r57waY/Manifest.toml`
  [c3fe647b] AbstractAlgebra v0.7.1
  [621f4979] AbstractFFTs v0.5.0
  [9e28174c] BinDeps v1.0.0
  [b99e7846] BinaryProvider v0.5.8
  [39dd38d3] Dierckx v0.4.1
  [7a1cc6ca] FFTW v1.2.0
  [f5851436] FFTW_jll v3.3.9+3
  [5087d2c0] IncGammaBeta v0.1.0
  [1d5cc7b8] IntelOpenMP_jll v2018.0.3+0
  [856f044c] MKL_jll v2019.0.117+0
  [2edaba10] Nemo v0.15.1
  [189a3867] Reexport v0.2.0
  [276daf66] SpecialFunctions v0.8.0
  [0dd23c3e] TwoFAST v0.1.0
  [30578b45] URIParser v0.4.0
  [2a0f44e3] Base64  [`@stdlib/Base64`]
  [ade2ca70] Dates  [`@stdlib/Dates`]
  [8bb1440f] DelimitedFiles  [`@stdlib/DelimitedFiles`]
  [8ba89e20] Distributed  [`@stdlib/Distributed`]
  [b77e0a4c] InteractiveUtils  [`@stdlib/InteractiveUtils`]
  [76f85450] LibGit2  [`@stdlib/LibGit2`]
  [8f399da3] Libdl  [`@stdlib/Libdl`]
  [37e2e46d] LinearAlgebra  [`@stdlib/LinearAlgebra`]
  [56ddb016] Logging  [`@stdlib/Logging`]
  [d6f4376e] Markdown  [`@stdlib/Markdown`]
  [a63ad114] Mmap  [`@stdlib/Mmap`]
  [44cfe95a] Pkg  [`@stdlib/Pkg`]
  [de0858da] Printf  [`@stdlib/Printf`]
  [3fa0cd96] REPL  [`@stdlib/REPL`]
  [9a3f8284] Random  [`@stdlib/Random`]
  [ea8e919c] SHA  [`@stdlib/SHA`]
  [9e88b42a] Serialization  [`@stdlib/Serialization`]
  [6462fe0b] Sockets  [`@stdlib/Sockets`]
  [2f01184e] SparseArrays  [`@stdlib/SparseArrays`]
  [8dfed614] Test  [`@stdlib/Test`]
  [cf7118a7] UUIDs  [`@stdlib/UUIDs`]
  [4ec0a83e] Unicode  [`@stdlib/Unicode`]

Welcome to Nemo version 0.15.1

Nemo comes with absolutely no warranty whatsoever


Welcome to Nemo version 0.15.1

Nemo comes with absolutely no warranty whatsoever

Testing ξ(r), ℓ=0, ν=-1 ... passed
Testing ξ(r), ℓ=0, ν=0 ... passed
Testing ξ(r), ℓ=0, ν=1 ... passed
Testing ξ(r), ℓ=0, ν=2 ... passed
Testing ξ(r), ℓ=0, ν=3 ... passed
Testing ξ(r), ℓ=1, ν=0 ... passed
Testing ξ(r), ℓ=1, ν=1 ... passed
Testing ξ(r), ℓ=1, ν=2 ... passed
Testing ξ(r), ℓ=1, ν=3 ... passed
Testing ξ(r), ℓ=2, ν=-1 ... passed
Testing ξ(r), ℓ=2, ν=0 ... passed
Testing ξ(r), ℓ=2, ν=1 ... passed
Testing ξ(r), ℓ=2, ν=2 ... passed
Testing ξ(r), ℓ=2, ν=3 ... passed
Testing ξ(r), ℓ=3, ν=-1 ... passed
Testing ξ(r), ℓ=3, ν=0 ... passed
Testing ξ(r), ℓ=3, ν=1 ... passed
Testing ξ(r), ℓ=3, ν=2 ... passed
Testing ξ(r), ℓ=3, ν=3 ... passed
Testing ξ(r), ℓ=4, ν=-1 ... passed
Testing ξ(r), ℓ=4, ν=0 ... passed
Testing ξ(r), ℓ=4, ν=1 ... passed
Testing ξ(r), ℓ=4, ν=2 ... passed
Testing ξ(r), ℓ=4, ν=3 ... passed
Testing ξ(r) ... passed
Testing ξ′(r) ... passed
Testing ξ″(r) ... passed
Calculating fmax: 
  dlrec    = 4
  dlrecRg1 = -4
  q=1.1, R=1.1:	  3.624877 seconds (1.11 M allocations: 119.115 MiB, 2.28% gc time)

  3.649212 seconds (1.11 M allocations: 119.473 MiB, 2.27% gc time)
ℓ = 1202
Δℓ = 4
ΔℓRg1 = -4
N = 1600
q = 1.1
kmin = 1.0e-5
kmax = 100000.00000000004
χ0 = 0.023029999999999995
RR = RR.tsv
ℓmax = ℓmax.bin
f21 = f21.bin
kmin = 1.0e-5
kmax = 100000.0
dlrec    = 4
dlrecRg1 = -4
Output size: 5741568 bytes = 0.005347251892089844 GiB
Output size: 51264 bytes = 4.774332046508789e-5 GiB
Reading 'out/F21EllCache'...   0.601919 seconds (348.11 k allocations: 17.868 MiB, 3.99% gc time)
ellmax: 1202
lmaxcache: 1202
fell[:,1,1] = Complex{Float64}[3.9583795592771634e-52 - 9.695233714158177e-68im, 3.990121772925759e-52 - 9.772979714843386e-68im]
ell 1202, elapsed: 0.0028989315032958984
ell 1201, elapsed: 2.2602219581604004
ell 1200, elapsed: 0.0004699230194091797
ell 1199, elapsed: 0.00044798851013183594
ell 1198, elapsed: 0.0004870891571044922
ell 1002, elapsed: 0.009596109390258789
ell 1001, elapsed: 0.0004570484161376953
ell 1000, elapsed: 0.0004410743713378906
ell 999, elapsed: 0.00043892860412597656
ell 998, elapsed: 0.00043392181396484375
ell 902, elapsed: 0.004922151565551758
ell 901, elapsed: 0.00045108795166015625
ell 900, elapsed: 0.0004570484161376953
ell 899, elapsed: 0.00043511390686035156
ell 898, elapsed: 0.0005459785461425781
ell 802, elapsed: 0.004949092864990234
ell 801, elapsed: 0.0004608631134033203
ell 800, elapsed: 0.0004458427429199219
ell 799, elapsed: 0.0004429817199707031
ell 798, elapsed: 0.0004601478576660156
ell 702, elapsed: 0.005011081695556641
ell 701, elapsed: 0.00045418739318847656
ell 700, elapsed: 0.00044989585876464844
ell 699, elapsed: 0.0004420280456542969
ell 698, elapsed: 0.0004417896270751953
ell 602, elapsed: 0.005070924758911133
ell 601, elapsed: 0.00045299530029296875
ell 600, elapsed: 0.00044608116149902344
ell 599, elapsed: 0.00043892860412597656
ell 598, elapsed: 0.0004990100860595703
ell 502, elapsed: 0.004850149154663086
ell 501, elapsed: 0.00045609474182128906
ell 500, elapsed: 0.00044608116149902344
ell 499, elapsed: 0.0004420280456542969
ell 498, elapsed: 0.0004420280456542969
ell 402, elapsed: 0.005006074905395508
ell 401, elapsed: 0.0004820823669433594
ell 400, elapsed: 0.0004391670227050781
ell 399, elapsed: 0.0005469322204589844
ell 398, elapsed: 0.0004382133483886719
ell 302, elapsed: 0.004876136779785156
ell 301, elapsed: 0.00044798851013183594
ell 300, elapsed: 0.00043511390686035156
ell 299, elapsed: 0.0004341602325439453
ell 298, elapsed: 0.00043392181396484375
ell 202, elapsed: 0.005042076110839844
ell 201, elapsed: 0.0004489421844482422
ell 200, elapsed: 0.0004360675811767578
ell 199, elapsed: 0.00043511390686035156
ell 198, elapsed: 0.0004439353942871094
ell 152, elapsed: 0.002582073211669922
ell 151, elapsed: 0.0004429817199707031
ell 150, elapsed: 0.00043511390686035156
ell 149, elapsed: 0.0006580352783203125
ell 148, elapsed: 0.0005309581756591797
ell 127, elapsed: 0.0016219615936279297
ell 126, elapsed: 0.0005271434783935547
ell 125, elapsed: 0.0005168914794921875
ell 124, elapsed: 0.0004918575286865234
ell 123, elapsed: 0.0005209445953369141
ell 114, elapsed: 0.0010380744934082031
ell 113, elapsed: 0.0005898475646972656
ell 112, elapsed: 0.00043702125549316406
ell 111, elapsed: 0.0004329681396484375
ell 110, elapsed: 0.0004360675811767578
ell 102, elapsed: 0.0012848377227783203
ell 101, elapsed: 0.0006270408630371094
ell 100, elapsed: 0.0005757808685302734
ell 99, elapsed: 0.000576019287109375
ell 98, elapsed: 0.0005681514739990234
ell 97, elapsed: 0.0006289482116699219
ell 96, elapsed: 0.0008709430694580078
ell 95, elapsed: 0.0006940364837646484
ell 94, elapsed: 0.0007839202880859375
ell 93, elapsed: 0.0005419254302978516
ell 92, elapsed: 0.0005888938903808594
ell 91, elapsed: 0.0004830360412597656
ell 90, elapsed: 0.0005688667297363281
ell 89, elapsed: 0.0004780292510986328
ell 88, elapsed: 0.0005850791931152344
ell 87, elapsed: 0.0014100074768066406
ell 86, elapsed: 0.000982046127319336
ell 85, elapsed: 0.0006959438323974609
ell 84, elapsed: 0.0008180141448974609
ell 83, elapsed: 0.0006902217864990234
ell 82, elapsed: 0.0008029937744140625
ell 81, elapsed: 0.0006959438323974609
ell 80, elapsed: 0.0007917881011962891
ell 79, elapsed: 0.000701904296875
ell 78, elapsed: 0.000804901123046875
ell 77, elapsed: 0.0006930828094482422
ell 76, elapsed: 0.0007839202880859375
ell 75, elapsed: 0.0006840229034423828
ell 74, elapsed: 0.0007998943328857422
ell 73, elapsed: 0.0007078647613525391
ell 72, elapsed: 0.0007789134979248047
ell 71, elapsed: 0.0006909370422363281
ell 70, elapsed: 0.0007929801940917969
ell 69, elapsed: 0.0006930828094482422
ell 68, elapsed: 0.0007989406585693359
ell 67, elapsed: 0.0005729198455810547
ell 66, elapsed: 0.0008361339569091797
ell 65, elapsed: 0.0004980564117431641
ell 64, elapsed: 0.0005888938903808594
ell 63, elapsed: 0.0004799365997314453
ell 62, elapsed: 0.0007488727569580078
ell 61, elapsed: 0.0005719661712646484
ell 60, elapsed: 0.000576019287109375
ell 59, elapsed: 0.0004780292510986328
ell 58, elapsed: 0.0005669593811035156
ell 57, elapsed: 0.0004801750183105469
ell 56, elapsed: 0.0006039142608642578
ell 55, elapsed: 0.0004830360412597656
ell 54, elapsed: 0.0007889270782470703
ell 53, elapsed: 0.00048089027404785156
ell 52, elapsed: 0.0005819797515869141
ell 51, elapsed: 0.0004799365997314453
ell 50, elapsed: 0.0005941390991210938
ell 49, elapsed: 0.0004830360412597656
ell 48, elapsed: 0.0005719661712646484
ell 47, elapsed: 0.0004858970642089844
ell 46, elapsed: 0.0005810260772705078
ell 45, elapsed: 0.0004780292510986328
ell 44, elapsed: 0.0007641315460205078
ell 43, elapsed: 0.000598907470703125
ell 42, elapsed: 0.0005681514739990234
ell 41, elapsed: 0.0004718303680419922
ell 40, elapsed: 0.002552032470703125
ell 39, elapsed: 0.0004849433898925781
ell 38, elapsed: 0.0005750656127929688
ell 37, elapsed: 0.0004799365997314453
ell 36, elapsed: 0.000576019287109375
ell 35, elapsed: 0.00047707557678222656
ell 34, elapsed: 0.0007131099700927734
ell 33, elapsed: 0.0005180835723876953
ell 32, elapsed: 0.0005669593811035156
ell 31, elapsed: 0.0004730224609375
ell 30, elapsed: 0.0005631446838378906
ell 29, elapsed: 0.0004830360412597656
ell 28, elapsed: 0.0005691051483154297
ell 27, elapsed: 0.0006308555603027344
ell 26, elapsed: 0.0005660057067871094
ell 25, elapsed: 0.0004820823669433594
ell 24, elapsed: 0.0007491111755371094
ell 23, elapsed: 0.0004780292510986328
ell 22, elapsed: 0.0005750656127929688
ell 21, elapsed: 0.0004949569702148438
ell 20, elapsed: 0.0005729198455810547
ell 19, elapsed: 0.0004730224609375
ell 18, elapsed: 0.0005600452423095703
ell 17, elapsed: 0.0004858970642089844
ell 16, elapsed: 0.0005688667297363281
ell 15, elapsed: 0.00047707557678222656
ell 14, elapsed: 0.0007228851318359375
ell 13, elapsed: 0.0004811286926269531
ell 12, elapsed: 0.0005741119384765625
ell 11, elapsed: 0.0004749298095703125
ell 10, elapsed: 0.0005710124969482422
ell 9, elapsed: 0.00048613548278808594
ell 8, elapsed: 0.0007429122924804688
ell 7, elapsed: 0.0005021095275878906
ell 6, elapsed: 0.0005729198455810547
ell 5, elapsed: 0.000476837158203125
ell 4, elapsed: 0.0005769729614257812
ell 3, elapsed: 0.00046896934509277344
ell 2, elapsed: 0.0005660057067871094
ell 1, elapsed: 0.0006470680236816406
ell 0, elapsed: 0.0005669593811035156
  2.535614 seconds (1.51 M allocations: 74.493 MiB, 1.80% gc time)
elapsed: 0.0006170272827148438
step:          0.733962 sec (477.888 k allocations: 23.728 MB, 3.13% gc time)
swapping:      0.000585 sec (0 allocations: 0 byte, 0.0% gc time)
calc_Mellell!: 0.531388 sec (371.441 k allocations: 18.402 MB, 4.27% gc time)
  t0 :  0.0 sec (0 allocations: 0 byte, 0.0% gc time)
  tm2 : 0.0 sec (0 allocations: 0 byte, 0.0% gc time)
  tm2s: 0.0 sec (0 allocations: 0 byte, 0.0% gc time)
  tm4 : 0.0 sec (0 allocations: 0 byte, 0.0% gc time)
  tp2 : 0.0 sec (0 allocations: 0 byte, 0.0% gc time)
  tp2s: 0.0 sec (0 allocations: 0 byte, 0.0% gc time)
  tp4 : 0.0 sec (0 allocations: 0 byte, 0.0% gc time)
calc_wtdll!:   1.116739 sec (571.762 k allocations: 28.059 MB, 0.0% gc time)
calc_wljj!:    0.004045 sec (6 allocations: 96 byte, 0.0% gc time)
mult_prefac!:  0.0 sec (0 allocations: 0 byte, 0.0% gc time)
convert:       0.0 sec (0 allocations: 0 byte, 0.0% gc time)
write:         0.005956 sec (0 allocations: 0 byte, 0.0% gc time)
test_rand_2f1: 0.0 sec (0 allocations: 0 byte, 0.0% gc time)
Closing outfile out/Ml21-cache.bin...   0.000134 seconds
  0.969548 seconds (8.63 k allocations: 420.063 KiB)
make_phi():   0.012734 seconds (8.20 k allocations: 238.016 KiB)
  0.227639 seconds (121.94 k allocations: 5.916 MiB, 9.68% gc time)
tskip:       2.4e-5 sec (0 allocations: 0 byte, 0.0% gc time)
tread:       0.00244 sec (20 allocations: 2.188 KB, 0.0% gc time)
tmultphi:    0.062016 sec (26.146 k allocations: 1.344 MB, 35.54% gc time)
tbrfft:      0.00416 sec (896 allocations: 42.0 KB, 0.0% gc time)
tmultprefac: 0.003686 sec (0 allocations: 0 byte, 0.0% gc time)
toutfunc:    0.155214 sec (94.228 k allocations: 4.459 MB, 0.0% gc time)
Testing R=1.1 ... passed
Calculating fmax: 
  dlrec    = 4
  dlrecRg1 = -4
  q=1.1, R=1.0:	  0.014674 seconds (4.81 k allocations: 3.569 MiB)

  0.016507 seconds (4.87 k allocations: 3.601 MiB)
ℓ = 1202
Δℓ = 4
ΔℓRg1 = -4
N = 1600
q = 1.1
kmin = 1.0e-5
kmax = 100000.00000000004
χ0 = 0.023029999999999995
RR = RR.tsv
ℓmax = ℓmax.bin
f21 = f21.bin
kmin = 1.0e-5
kmax = 100000.0
dlrec    = 4
dlrecRg1 = -4
Output size: 61465536 bytes = 0.05724424123764038 GiB
Output size: 51264 bytes = 4.774332046508789e-5 GiB
Reading 'out/F21EllCache'...   0.001310 seconds (271 allocations: 84.719 KiB)
ellmax: 1202
lmaxcache: 1202
fell[:,1,1] = Complex{Float64}[809.6031528389767 - 1.9829558194077161e-13im, 0.0 + 0.0im]
ell 1202, elapsed: 0.0001900196075439453
ell 1201, elapsed: 0.014182090759277344
ell 1200, elapsed: 0.0005848407745361328
ell 1199, elapsed: 0.0005700588226318359
ell 1198, elapsed: 0.0005719661712646484
ell 1197, elapsed: 0.0006361007690429688
ell 1196, elapsed: 0.00061798095703125
ell 1195, elapsed: 0.0007088184356689453
ell 1194, elapsed: 0.0006139278411865234
ell 1193, elapsed: 0.0007259845733642578
ell 1192, elapsed: 0.0006210803985595703
ell 1191, elapsed: 0.00074005126953125
ell 1190, elapsed: 0.0006279945373535156
ell 1189, elapsed: 0.0007271766662597656
ell 1188, elapsed: 0.00061798095703125
ell 1187, elapsed: 0.0007359981536865234
ell 1186, elapsed: 0.0006220340728759766
ell 1185, elapsed: 0.0007450580596923828
ell 1184, elapsed: 0.0006189346313476562
ell 1183, elapsed: 0.0007371902465820312
ell 1182, elapsed: 0.0006449222564697266
ell 1181, elapsed: 0.0007600784301757812
ell 1180, elapsed: 0.0006368160247802734
ell 1179, elapsed: 0.0008561611175537109
ell 1178, elapsed: 0.0004971027374267578
ell 1177, elapsed: 0.0005919933319091797
ell 1176, elapsed: 0.00039196014404296875
ell 1175, elapsed: 0.0004839897155761719
ell 1174, elapsed: 0.0004570484161376953
ell 1173, elapsed: 0.0005910396575927734
ell 1172, elapsed: 0.0005159378051757812
ell 1171, elapsed: 0.0005688667297363281
ell 1170, elapsed: 0.0004749298095703125
ell 1169, elapsed: 0.0006000995635986328
ell 1168, elapsed: 0.0005230903625488281
ell 1167, elapsed: 0.0005338191986083984
ell 1166, elapsed: 0.0003829002380371094
ell 1165, elapsed: 0.0005831718444824219
ell 1164, elapsed: 0.000476837158203125
ell 1163, elapsed: 0.0004830360412597656
ell 1162, elapsed: 0.0005950927734375
ell 1161, elapsed: 0.0005970001220703125
ell 1160, elapsed: 0.0005819797515869141
ell 1159, elapsed: 0.0005419254302978516
ell 1158, elapsed: 0.0007619857788085938
ell 1157, elapsed: 0.0008130073547363281
ell 1156, elapsed: 0.000408172607421875
ell 1155, elapsed: 0.0005609989166259766
ell 1154, elapsed: 0.0004839897155761719
ell 1153, elapsed: 0.0005919933319091797
ell 1152, elapsed: 0.00039005279541015625
ell 1151, elapsed: 0.0006220340728759766
ell 1150, elapsed: 0.00039696693420410156
ell 1149, elapsed: 0.0007047653198242188
ell 1148, elapsed: 0.0004611015319824219
ell 1147, elapsed: 0.0005059242248535156
ell 1146, elapsed: 0.000457763671875
ell 1145, elapsed: 0.0006680488586425781
ell 1144, elapsed: 0.0005540847778320312
ell 1143, elapsed: 0.0006039142608642578
ell 1142, elapsed: 0.00047087669372558594
ell 1141, elapsed: 0.0005190372467041016
ell 1140, elapsed: 0.00046896934509277344
ell 1139, elapsed: 0.0005540847778320312
ell 1138, elapsed: 0.0004608631134033203
ell 1137, elapsed: 0.00047206878662109375
ell 1136, elapsed: 0.0003819465637207031
ell 1135, elapsed: 0.0006008148193359375
ell 1134, elapsed: 0.0005960464477539062
ell 1133, elapsed: 0.0005190372467041016
ell 1132, elapsed: 0.0005328655242919922
ell 1131, elapsed: 0.0005209445953369141
ell 1130, elapsed: 0.0003788471221923828
ell 1129, elapsed: 0.00046181678771972656
ell 1128, elapsed: 0.00037598609924316406
ell 1127, elapsed: 0.0004699230194091797
ell 1126, elapsed: 0.00040721893310546875
ell 1125, elapsed: 0.00047087669372558594
ell 1124, elapsed: 0.0004851818084716797
ell 1123, elapsed: 0.0005750656127929688
ell 1122, elapsed: 0.0003829002380371094
ell 1121, elapsed: 0.0006210803985595703
ell 1120, elapsed: 0.0004451274871826172
ell 1119, elapsed: 0.00047206878662109375
ell 1118, elapsed: 0.0003750324249267578
ell 1117, elapsed: 0.0005640983581542969
ell 1116, elapsed: 0.00047707557678222656
ell 1115, elapsed: 0.0004780292510986328
ell 1114, elapsed: 0.0004639625549316406
ell 1113, elapsed: 0.0007069110870361328
ell 1112, elapsed: 0.0004189014434814453
ell 1111, elapsed: 0.00047087669372558594
ell 1110, elapsed: 0.0005090236663818359
ell 1109, elapsed: 0.0007159709930419922
ell 1108, elapsed: 0.0004889965057373047
ell 1107, elapsed: 0.0006539821624755859
ell 1106, elapsed: 0.0005919933319091797
ell 1105, elapsed: 0.0004761219024658203
ell 1104, elapsed: 0.0003650188446044922
ell 1103, elapsed: 0.00044417381286621094
ell 1102, elapsed: 0.00036597251892089844
ell 1101, elapsed: 0.0004448890686035156
ell 1100, elapsed: 0.0004680156707763672
ell 1099, elapsed: 0.0005748271942138672
ell 1098, elapsed: 0.0004830360412597656
ell 1097, elapsed: 0.0005609989166259766
ell 1096, elapsed: 0.00036597251892089844
ell 1095, elapsed: 0.0005750656127929688
ell 1094, elapsed: 0.000453948974609375
ell 1093, elapsed: 0.0005660057067871094
ell 1092, elapsed: 0.0005109310150146484
ell 1091, elapsed: 0.0004391670227050781
ell 1090, elapsed: 0.00036597251892089844
ell 1089, elapsed: 0.0004379749298095703
ell 1088, elapsed: 0.00036406517028808594
ell 1087, elapsed: 0.00043892860412597656
ell 1086, elapsed: 0.0003650188446044922
ell 1085, elapsed: 0.0005829334259033203
ell 1084, elapsed: 0.0006401538848876953
ell 1083, elapsed: 0.0006959438323974609
ell 1082, elapsed: 0.0004038810729980469
ell 1081, elapsed: 0.0004909038543701172
ell 1080, elapsed: 0.00039005279541015625
ell 1079, elapsed: 0.0006501674652099609
ell 1078, elapsed: 0.0003948211669921875
ell 1077, elapsed: 0.00047707557678222656
ell 1076, elapsed: 0.0005331039428710938
ell 1075, elapsed: 0.0005359649658203125
ell 1074, elapsed: 0.0005519390106201172
ell 1073, elapsed: 0.0005168914794921875
ell 1072, elapsed: 0.0004010200500488281
ell 1071, elapsed: 0.0004780292510986328
ell 1070, elapsed: 0.00039386749267578125
ell 1069, elapsed: 0.0004749298095703125
ell 1068, elapsed: 0.0003871917724609375
ell 1067, elapsed: 0.00047016143798828125
ell 1066, elapsed: 0.0003879070281982422
ell 1065, elapsed: 0.0004811286926269531
ell 1064, elapsed: 0.0003819465637207031
ell 1063, elapsed: 0.0004742145538330078
ell 1062, elapsed: 0.0005190372467041016
ell 1061, elapsed: 0.0005519390106201172
ell 1060, elapsed: 0.00037598609924316406
ell 1059, elapsed: 0.0004639625549316406
ell 1058, elapsed: 0.00037288665771484375
ell 1057, elapsed: 0.00045108795166015625
ell 1056, elapsed: 0.0005331039428710938
ell 1055, elapsed: 0.0005447864532470703
ell 1054, elapsed: 0.00037598609924316406
ell 1053, elapsed: 0.0005178451538085938
ell 1052, elapsed: 0.0004210472106933594
ell 1051, elapsed: 0.0005261898040771484
ell 1050, elapsed: 0.0006921291351318359
ell 1049, elapsed: 0.0007839202880859375
ell 1048, elapsed: 0.0007050037384033203
ell 1047, elapsed: 0.0005919933319091797
ell 1046, elapsed: 0.0005011558532714844
ell 1045, elapsed: 0.0005600452423095703
ell 1044, elapsed: 0.00046896934509277344
ell 1043, elapsed: 0.0005738735198974609
ell 1042, elapsed: 0.00046896934509277344
ell 1041, elapsed: 0.0005509853363037109
ell 1040, elapsed: 0.00047898292541503906
ell 1039, elapsed: 0.0005629062652587891
ell 1038, elapsed: 0.0004839897155761719
ell 1037, elapsed: 0.0005788803100585938
ell 1036, elapsed: 0.00042891502380371094
ell 1035, elapsed: 0.00047016143798828125
ell 1034, elapsed: 0.0003762245178222656
ell 1033, elapsed: 0.0004551410675048828
ell 1032, elapsed: 0.0003809928894042969
ell 1031, elapsed: 0.0004730224609375
ell 1030, elapsed: 0.0003809928894042969
ell 1029, elapsed: 0.00047898292541503906
ell 1028, elapsed: 0.0003941059112548828
ell 1027, elapsed: 0.00047397613525390625
ell 1026, elapsed: 0.0003840923309326172
ell 1025, elapsed: 0.00047898292541503906
ell 1024, elapsed: 0.0003819465637207031
ell 1023, elapsed: 0.0004749298095703125
ell 1022, elapsed: 0.00038504600524902344
ell 1021, elapsed: 0.0004639625549316406
ell 1020, elapsed: 0.00039887428283691406
ell 1019, elapsed: 0.0004718303680419922
ell 1018, elapsed: 0.0003829002380371094
ell 1017, elapsed: 0.0004711151123046875
ell 1016, elapsed: 0.0004551410675048828
ell 1015, elapsed: 0.0006029605865478516
ell 1014, elapsed: 0.0005331039428710938
ell 1013, elapsed: 0.0005688667297363281
ell 1012, elapsed: 0.0003819465637207031
ell 1011, elapsed: 0.00046896934509277344
ell 1010, elapsed: 0.0004558563232421875
ell 1009, elapsed: 0.0005888938903808594
ell 1008, elapsed: 0.0003809928894042969
ell 1007, elapsed: 0.0004489421844482422
ell 1006, elapsed: 0.00037980079650878906
ell 1005, elapsed: 0.00045800209045410156
ell 1004, elapsed: 0.00037097930908203125
ell 1003, elapsed: 0.0004680156707763672
ell 1002, elapsed: 0.00036978721618652344
ell 1001, elapsed: 0.0004470348358154297
ell 1000, elapsed: 0.0003809928894042969
ell 999, elapsed: 0.0004589557647705078
ell 998, elapsed: 0.00036406517028808594
ell 997, elapsed: 0.0004901885986328125
ell 996, elapsed: 0.0003800392150878906
ell 995, elapsed: 0.0004398822784423828
ell 994, elapsed: 0.00037384033203125
ell 993, elapsed: 0.0004520416259765625
ell 992, elapsed: 0.00037407875061035156
ell 991, elapsed: 0.0005838871002197266
ell 990, elapsed: 0.0004761219024658203
ell 989, elapsed: 0.0005309581756591797
ell 988, elapsed: 0.00038504600524902344
ell 987, elapsed: 0.0004940032958984375
ell 986, elapsed: 0.00038695335388183594
ell 985, elapsed: 0.0004420280456542969
ell 984, elapsed: 0.0003719329833984375
ell 983, elapsed: 0.00046706199645996094
ell 982, elapsed: 0.0005009174346923828
ell 981, elapsed: 0.0005719661712646484
ell 980, elapsed: 0.0003790855407714844
ell 979, elapsed: 0.00047206878662109375
ell 978, elapsed: 0.0003790855407714844
ell 977, elapsed: 0.0004680156707763672
ell 976, elapsed: 0.0003771781921386719
ell 975, elapsed: 0.0004551410675048828
ell 974, elapsed: 0.00037598609924316406
ell 973, elapsed: 0.00043201446533203125
ell 972, elapsed: 0.00037789344787597656
ell 971, elapsed: 0.0005688667297363281
ell 970, elapsed: 0.000598907470703125
ell 969, elapsed: 0.0005359649658203125
ell 968, elapsed: 0.0003788471221923828
ell 967, elapsed: 0.0004668235778808594
ell 966, elapsed: 0.000392913818359375
ell 965, elapsed: 0.00043082237243652344
ell 964, elapsed: 0.00037288665771484375
ell 963, elapsed: 0.00045990943908691406
ell 962, elapsed: 0.00037407875061035156
ell 961, elapsed: 0.00045299530029296875
ell 960, elapsed: 0.00037789344787597656
ell 959, elapsed: 0.00046181678771972656
ell 958, elapsed: 0.0003921985626220703
ell 957, elapsed: 0.00047206878662109375
ell 956, elapsed: 0.0003719329833984375
ell 955, elapsed: 0.0004680156707763672
ell 954, elapsed: 0.0003809928894042969
ell 953, elapsed: 0.0004608631134033203
ell 952, elapsed: 0.0003719329833984375
ell 951, elapsed: 0.0004611015319824219
ell 950, elapsed: 0.0003731250762939453
ell 949, elapsed: 0.0004930496215820312
ell 948, elapsed: 0.0003848075866699219
ell 947, elapsed: 0.0004658699035644531
ell 946, elapsed: 0.0003800392150878906
ell 945, elapsed: 0.0004811286926269531
ell 944, elapsed: 0.0003769397735595703
ell 943, elapsed: 0.0004589557647705078
ell 942, elapsed: 0.00038504600524902344
ell 941, elapsed: 0.0004889965057373047
ell 940, elapsed: 0.0003788471221923828
ell 939, elapsed: 0.0004699230194091797
ell 938, elapsed: 0.0003819465637207031
ell 937, elapsed: 0.00046515464782714844
ell 936, elapsed: 0.0003821849822998047
ell 935, elapsed: 0.00047397613525390625
ell 934, elapsed: 0.00037598609924316406
ell 933, elapsed: 0.00047588348388671875
ell 932, elapsed: 0.00037288665771484375
ell 931, elapsed: 0.00045990943908691406
ell 930, elapsed: 0.0003781318664550781
ell 929, elapsed: 0.0004589557647705078
ell 928, elapsed: 0.00038504600524902344
ell 927, elapsed: 0.0004699230194091797
ell 926, elapsed: 0.0005109310150146484
ell 925, elapsed: 0.0005571842193603516
ell 924, elapsed: 0.0003769397735595703
ell 923, elapsed: 0.0004589557647705078
ell 922, elapsed: 0.0003809928894042969
ell 921, elapsed: 0.0004680156707763672
ell 920, elapsed: 0.00037598609924316406
ell 919, elapsed: 0.00047087669372558594
ell 918, elapsed: 0.0003829002380371094
ell 917, elapsed: 0.0004858970642089844
ell 916, elapsed: 0.0003840923309326172
ell 915, elapsed: 0.0004749298095703125
ell 914, elapsed: 0.00037097930908203125
ell 913, elapsed: 0.0006480216979980469
ell 912, elapsed: 0.0004999637603759766
ell 911, elapsed: 0.0005638599395751953
ell 910, elapsed: 0.0003800392150878906
ell 909, elapsed: 0.0004658699035644531
ell 908, elapsed: 0.00037407875061035156
ell 907, elapsed: 0.00045990943908691406
ell 906, elapsed: 0.00037288665771484375
ell 905, elapsed: 0.0004668235778808594
ell 904, elapsed: 0.0003769397735595703
ell 903, elapsed: 0.0004870891571044922
ell 902, elapsed: 0.00033593177795410156
ell 901, elapsed: 0.0004088878631591797
ell 900, elapsed: 0.0003650188446044922
ell 899, elapsed: 0.0004401206970214844
ell 898, elapsed: 0.0004267692565917969
ell 897, elapsed: 0.0006749629974365234
ell 896, elapsed: 0.00044083595275878906
ell 895, elapsed: 0.0005199909210205078
ell 894, elapsed: 0.0004200935363769531
ell 893, elapsed: 0.0005109310150146484
ell 892, elapsed: 0.0005519390106201172
ell 891, elapsed: 0.0005309581756591797
ell 890, elapsed: 0.0004260540008544922
ell 889, elapsed: 0.0005037784576416016
ell 888, elapsed: 0.00042510032653808594
ell 887, elapsed: 0.0005109310150146484
ell 886, elapsed: 0.0005538463592529297
ell 885, elapsed: 0.0005550384521484375
ell 884, elapsed: 0.00044083595275878906
ell 883, elapsed: 0.0004658699035644531
ell 882, elapsed: 0.0003590583801269531
ell 881, elapsed: 0.0004570484161376953
ell 880, elapsed: 0.00036597251892089844
ell 879, elapsed: 0.00045299530029296875
ell 878, elapsed: 0.0003719329833984375
ell 877, elapsed: 0.0004642009735107422
ell 876, elapsed: 0.0003769397735595703
ell 875, elapsed: 0.00047397613525390625
ell 874, elapsed: 0.0003809928894042969
ell 873, elapsed: 0.0004570484161376953
ell 872, elapsed: 0.00037598609924316406
ell 871, elapsed: 0.0004630088806152344
ell 870, elapsed: 0.0003781318664550781
ell 869, elapsed: 0.0004649162292480469
ell 868, elapsed: 0.0003681182861328125
ell 867, elapsed: 0.0004639625549316406
ell 866, elapsed: 0.0003781318664550781
ell 865, elapsed: 0.0004630088806152344
ell 864, elapsed: 0.0003788471221923828
ell 863, elapsed: 0.0004551410675048828
ell 862, elapsed: 0.00035691261291503906
ell 861, elapsed: 0.0004601478576660156
ell 860, elapsed: 0.0003800392150878906
ell 859, elapsed: 0.00047707557678222656
ell 858, elapsed: 0.00037288665771484375
ell 857, elapsed: 0.0004870891571044922
ell 856, elapsed: 0.00037288665771484375
ell 855, elapsed: 0.0004620552062988281
ell 854, elapsed: 0.00037789344787597656
ell 853, elapsed: 0.0004749298095703125
ell 852, elapsed: 0.0003681182861328125
ell 851, elapsed: 0.0004749298095703125
ell 850, elapsed: 0.00037097930908203125
ell 849, elapsed: 0.0005619525909423828
ell 848, elapsed: 0.0004448890686035156
ell 847, elapsed: 0.000469207763671875
ell 846, elapsed: 0.00039196014404296875
ell 845, elapsed: 0.00046706199645996094
ell 844, elapsed: 0.0004520416259765625
ell 843, elapsed: 0.0005400180816650391
ell 842, elapsed: 0.0003838539123535156
ell 841, elapsed: 0.0004711151123046875
ell 840, elapsed: 0.0003809928894042969
ell 839, elapsed: 0.00047016143798828125
ell 838, elapsed: 0.00037789344787597656
ell 837, elapsed: 0.00046706199645996094
ell 836, elapsed: 0.00049591064453125
ell 835, elapsed: 0.0006349086761474609
ell 834, elapsed: 0.00037789344787597656
ell 833, elapsed: 0.0005919933319091797
ell 832, elapsed: 0.00048613548278808594
ell 831, elapsed: 0.00046896934509277344
ell 830, elapsed: 0.0003941059112548828
ell 829, elapsed: 0.0004711151123046875
ell 828, elapsed: 0.0003819465637207031
ell 827, elapsed: 0.0004677772521972656
ell 826, elapsed: 0.0003840923309326172
ell 825, elapsed: 0.0004718303680419922
ell 824, elapsed: 0.00037384033203125
ell 823, elapsed: 0.0004680156707763672
ell 822, elapsed: 0.00038695335388183594
ell 821, elapsed: 0.00046706199645996094
ell 820, elapsed: 0.00037789344787597656
ell 819, elapsed: 0.0004649162292480469
ell 818, elapsed: 0.0003809928894042969
ell 817, elapsed: 0.0006170272827148438
ell 816, elapsed: 0.0004489421844482422
ell 815, elapsed: 0.0004649162292480469
ell 814, elapsed: 0.000392913818359375
ell 813, elapsed: 0.00047397613525390625
ell 812, elapsed: 0.0003750324249267578
ell 811, elapsed: 0.00047397613525390625
ell 810, elapsed: 0.0003809928894042969
ell 809, elapsed: 0.0004661083221435547
ell 808, elapsed: 0.0003771781921386719
ell 807, elapsed: 0.0004699230194091797
ell 806, elapsed: 0.00038886070251464844
ell 805, elapsed: 0.00046706199645996094
ell 804, elapsed: 0.0003788471221923828
ell 803, elapsed: 0.00047087669372558594
ell 802, elapsed: 0.00044989585876464844
ell 801, elapsed: 0.0005431175231933594
ell 800, elapsed: 0.0004439353942871094
ell 799, elapsed: 0.0004699230194091797
ell 798, elapsed: 0.0004420280456542969
ell 797, elapsed: 0.0005159378051757812
ell 796, elapsed: 0.0004260540008544922
ell 795, elapsed: 0.0004980564117431641
ell 794, elapsed: 0.0004210472106933594
ell 793, elapsed: 0.0005171298980712891
ell 792, elapsed: 0.0004239082336425781
ell 791, elapsed: 0.0004940032958984375
ell 790, elapsed: 0.0004050731658935547
ell 789, elapsed: 0.0004909038543701172
ell 788, elapsed: 0.0004229545593261719
ell 787, elapsed: 0.0005102157592773438
ell 786, elapsed: 0.00042319297790527344
ell 785, elapsed: 0.0005059242248535156
ell 784, elapsed: 0.0004031658172607422
ell 783, elapsed: 0.0005099773406982422
ell 782, elapsed: 0.0004220008850097656
ell 781, elapsed: 0.0005109310150146484
ell 780, elapsed: 0.00041985511779785156
ell 779, elapsed: 0.00051116943359375
ell 778, elapsed: 0.0005540847778320312
ell 777, elapsed: 0.0005578994750976562
ell 776, elapsed: 0.0004210472106933594
ell 775, elapsed: 0.0005068778991699219
ell 774, elapsed: 0.00040411949157714844
ell 773, elapsed: 0.00047016143798828125
ell 772, elapsed: 0.0004260540008544922
ell 771, elapsed: 0.0005729198455810547
ell 770, elapsed: 0.0004849433898925781
ell 769, elapsed: 0.0005779266357421875
ell 768, elapsed: 0.00049591064453125
ell 767, elapsed: 0.0005948543548583984
ell 766, elapsed: 0.0004799365997314453
ell 765, elapsed: 0.0005800724029541016
ell 764, elapsed: 0.0005321502685546875
ell 763, elapsed: 0.0005848407745361328
ell 762, elapsed: 0.00046896934509277344
ell 761, elapsed: 0.0005831718444824219
ell 760, elapsed: 0.0004680156707763672
ell 759, elapsed: 0.0005671977996826172
ell 758, elapsed: 0.00048804283142089844
ell 757, elapsed: 0.0006148815155029297
ell 756, elapsed: 0.0004658699035644531
ell 755, elapsed: 0.0005629062652587891
ell 754, elapsed: 0.00046706199645996094
ell 753, elapsed: 0.0005710124969482422
ell 752, elapsed: 0.0004839897155761719
ell 751, elapsed: 0.0005860328674316406
ell 750, elapsed: 0.0004589557647705078
ell 749, elapsed: 0.0005629062652587891
ell 748, elapsed: 0.0004830360412597656
ell 747, elapsed: 0.0005750656127929688
ell 746, elapsed: 0.0006699562072753906
ell 745, elapsed: 0.0005581378936767578
ell 744, elapsed: 0.0004658699035644531
ell 743, elapsed: 0.0005841255187988281
ell 742, elapsed: 0.0004639625549316406
ell 741, elapsed: 0.0005629062652587891
ell 740, elapsed: 0.0004749298095703125
ell 739, elapsed: 0.0005810260772705078
ell 738, elapsed: 0.0004611015319824219
ell 737, elapsed: 0.0005681514739990234
ell 736, elapsed: 0.00045680999755859375
ell 735, elapsed: 0.0005629062652587891
ell 734, elapsed: 0.0004851818084716797
ell 733, elapsed: 0.0005691051483154297
ell 732, elapsed: 0.00046706199645996094
ell 731, elapsed: 0.0007541179656982422
ell 730, elapsed: 0.0004749298095703125
ell 729, elapsed: 0.0005931854248046875
ell 728, elapsed: 0.0004849433898925781
ell 727, elapsed: 0.000553131103515625
ell 726, elapsed: 0.0004649162292480469
ell 725, elapsed: 0.0006000995635986328
ell 724, elapsed: 0.000476837158203125
ell 723, elapsed: 0.0005769729614257812
ell 722, elapsed: 0.0004520416259765625
ell 721, elapsed: 0.0005998611450195312
ell 720, elapsed: 0.0006549358367919922
ell 719, elapsed: 0.0005500316619873047
ell 718, elapsed: 0.0006680488586425781
ell 717, elapsed: 0.0005650520324707031
ell 716, elapsed: 0.00045609474182128906
ell 715, elapsed: 0.000553131103515625
ell 714, elapsed: 0.0004718303680419922
ell 713, elapsed: 0.0005590915679931641
ell 712, elapsed: 0.00047397613525390625
ell 711, elapsed: 0.0005819797515869141
ell 710, elapsed: 0.0004680156707763672
ell 709, elapsed: 0.0006051063537597656
ell 708, elapsed: 0.0004878044128417969
ell 707, elapsed: 0.000576019287109375
ell 706, elapsed: 0.00046706199645996094
ell 705, elapsed: 0.0005919933319091797
ell 704, elapsed: 0.0004658699035644531
ell 703, elapsed: 0.0005609989166259766
ell 702, elapsed: 0.00046706199645996094
ell 701, elapsed: 0.0005590915679931641
ell 700, elapsed: 0.00040793418884277344
ell 699, elapsed: 0.0005829334259033203
ell 698, elapsed: 0.0004951953887939453
ell 697, elapsed: 0.0005619525909423828
ell 696, elapsed: 0.0005021095275878906
ell 695, elapsed: 0.0008418560028076172
ell 694, elapsed: 0.00048804283142089844
ell 693, elapsed: 0.0005919933319091797
ell 692, elapsed: 0.0004818439483642578
ell 691, elapsed: 0.0004839897155761719
ell 690, elapsed: 0.00037598609924316406
ell 689, elapsed: 0.0004699230194091797
ell 688, elapsed: 0.00037789344787597656
ell 687, elapsed: 0.0004661083221435547
ell 686, elapsed: 0.00038123130798339844
ell 685, elapsed: 0.0004868507385253906
ell 684, elapsed: 0.0003781318664550781
ell 683, elapsed: 0.0006461143493652344
ell 682, elapsed: 0.00041794776916503906
ell 681, elapsed: 0.0004639625549316406
ell 680, elapsed: 0.0003750324249267578
ell 679, elapsed: 0.00045990943908691406
ell 678, elapsed: 0.0003829002380371094
ell 677, elapsed: 0.00045490264892578125
ell 676, elapsed: 0.0003819465637207031
ell 675, elapsed: 0.0004680156707763672
ell 674, elapsed: 0.0003781318664550781
ell 673, elapsed: 0.00045680999755859375
ell 672, elapsed: 0.0003781318664550781
ell 671, elapsed: 0.0004642009735107422
ell 670, elapsed: 0.0003731250762939453
ell 669, elapsed: 0.0004839897155761719
ell 668, elapsed: 0.0003821849822998047
ell 667, elapsed: 0.00046706199645996094
ell 666, elapsed: 0.00037288665771484375
ell 665, elapsed: 0.00043702125549316406
ell 664, elapsed: 0.000370025634765625
ell 663, elapsed: 0.00045299530029296875
ell 662, elapsed: 0.00037097930908203125
ell 661, elapsed: 0.00048089027404785156
ell 660, elapsed: 0.00037097930908203125
ell 659, elapsed: 0.0004749298095703125
ell 658, elapsed: 0.0003819465637207031
ell 657, elapsed: 0.0004699230194091797
ell 656, elapsed: 0.0003750324249267578
ell 655, elapsed: 0.00046896934509277344
ell 654, elapsed: 0.0003628730773925781
ell 653, elapsed: 0.00046706199645996094
ell 652, elapsed: 0.000370025634765625
ell 651, elapsed: 0.00046181678771972656
ell 650, elapsed: 0.00037598609924316406
ell 649, elapsed: 0.00047707557678222656
ell 648, elapsed: 0.0003840923309326172
ell 647, elapsed: 0.0004680156707763672
ell 646, elapsed: 0.0003788471221923828
ell 645, elapsed: 0.00048613548278808594
ell 644, elapsed: 0.0003750324249267578
ell 643, elapsed: 0.0004780292510986328
ell 642, elapsed: 0.0003769397735595703
ell 641, elapsed: 0.00046181678771972656
ell 640, elapsed: 0.0004849433898925781
ell 639, elapsed: 0.0005772113800048828
ell 638, elapsed: 0.00037384033203125
ell 637, elapsed: 0.0004730224609375
ell 636, elapsed: 0.0005090236663818359
ell 635, elapsed: 0.0005319118499755859
ell 634, elapsed: 0.0003800392150878906
ell 633, elapsed: 0.0004630088806152344
ell 632, elapsed: 0.00037789344787597656
ell 631, elapsed: 0.00046706199645996094
ell 630, elapsed: 0.0003829002380371094
ell 629, elapsed: 0.0006239414215087891
ell 628, elapsed: 0.00043487548828125
ell 627, elapsed: 0.0004630088806152344
ell 626, elapsed: 0.0003788471221923828
ell 625, elapsed: 0.0004611015319824219
ell 624, elapsed: 0.0003769397735595703
ell 623, elapsed: 0.0004608631134033203
ell 622, elapsed: 0.0004000663757324219
ell 621, elapsed: 0.0004601478576660156
ell 620, elapsed: 0.0003669261932373047
ell 619, elapsed: 0.00045800209045410156
ell 618, elapsed: 0.0003781318664550781
ell 617, elapsed: 0.0004570484161376953
ell 616, elapsed: 0.00037407875061035156
ell 615, elapsed: 0.0004658699035644531
ell 614, elapsed: 0.0003769397735595703
ell 613, elapsed: 0.0004901885986328125
ell 612, elapsed: 0.0003809928894042969
ell 611, elapsed: 0.0004649162292480469
ell 610, elapsed: 0.0003788471221923828
ell 609, elapsed: 0.0004642009735107422
ell 608, elapsed: 0.00037598609924316406
ell 607, elapsed: 0.0005280971527099609
ell 606, elapsed: 0.00038313865661621094
ell 605, elapsed: 0.0004889965057373047
ell 604, elapsed: 0.0003840923309326172
ell 603, elapsed: 0.00043702125549316406
ell 602, elapsed: 0.0003540515899658203
ell 601, elapsed: 0.0004241466522216797
ell 600, elapsed: 0.0003509521484375
ell 599, elapsed: 0.0004260540008544922
ell 598, elapsed: 0.0003540515899658203
ell 597, elapsed: 0.0004401206970214844
ell 596, elapsed: 0.0003528594970703125
ell 595, elapsed: 0.0004279613494873047
ell 594, elapsed: 0.0003509521484375
ell 593, elapsed: 0.0004429817199707031
ell 592, elapsed: 0.00037097930908203125
ell 591, elapsed: 0.00045800209045410156
ell 590, elapsed: 0.0003750324249267578
ell 589, elapsed: 0.0004608631134033203
ell 588, elapsed: 0.0003879070281982422
ell 587, elapsed: 0.0004620552062988281
ell 586, elapsed: 0.0003731250762939453
ell 585, elapsed: 0.0004661083221435547
ell 584, elapsed: 0.0003750324249267578
ell 583, elapsed: 0.00046515464782714844
ell 582, elapsed: 0.00037789344787597656
ell 581, elapsed: 0.00046515464782714844
ell 580, elapsed: 0.004503965377807617
ell 579, elapsed: 0.0006649494171142578
ell 578, elapsed: 0.00044798851013183594
ell 577, elapsed: 0.0004680156707763672
ell 576, elapsed: 0.0003800392150878906
ell 575, elapsed: 0.0004630088806152344
ell 574, elapsed: 0.0003790855407714844
ell 573, elapsed: 0.0004611015319824219
ell 572, elapsed: 0.0007219314575195312
ell 571, elapsed: 0.0005428791046142578
ell 570, elapsed: 0.00039696693420410156
ell 569, elapsed: 0.0005688667297363281
ell 568, elapsed: 0.0019979476928710938
ell 567, elapsed: 0.0009050369262695312
ell 566, elapsed: 0.00038313865661621094
ell 565, elapsed: 0.00047898292541503906
ell 564, elapsed: 0.0003800392150878906
ell 563, elapsed: 0.0004718303680419922
ell 562, elapsed: 0.0003781318664550781
ell 561, elapsed: 0.0004611015319824219
ell 560, elapsed: 0.0006060600280761719
ell 559, elapsed: 0.0006511211395263672
ell 558, elapsed: 0.0004730224609375
ell 557, elapsed: 0.0004680156707763672
ell 556, elapsed: 0.000431060791015625
ell 555, elapsed: 0.0004730224609375
ell 554, elapsed: 0.0003809928894042969
ell 553, elapsed: 0.0004630088806152344
ell 552, elapsed: 0.0003788471221923828
ell 551, elapsed: 0.00045800209045410156
ell 550, elapsed: 0.0005340576171875
ell 549, elapsed: 0.0006270408630371094
ell 548, elapsed: 0.0004000663757324219
ell 547, elapsed: 0.0004661083221435547
ell 546, elapsed: 0.0003781318664550781
ell 545, elapsed: 0.0006039142608642578
ell 544, elapsed: 0.0004551410675048828
ell 543, elapsed: 0.00045299530029296875
ell 542, elapsed: 0.0003669261932373047
ell 541, elapsed: 0.0006649494171142578
ell 540, elapsed: 0.0004069805145263672
ell 539, elapsed: 0.0004570484161376953
ell 538, elapsed: 0.00039315223693847656
ell 537, elapsed: 0.0005810260772705078
ell 536, elapsed: 0.0004699230194091797
ell 535, elapsed: 0.0004601478576660156
ell 534, elapsed: 0.0003650188446044922
ell 533, elapsed: 0.0006470680236816406
ell 532, elapsed: 0.0004229545593261719
ell 531, elapsed: 0.0004851818084716797
ell 530, elapsed: 0.0003790855407714844
ell 529, elapsed: 0.0004639625549316406
ell 528, elapsed: 0.0003840923309326172
ell 527, elapsed: 0.0004627704620361328
ell 526, elapsed: 0.0003731250762939453
ell 525, elapsed: 0.0004608631134033203
ell 524, elapsed: 0.0003809928894042969
ell 523, elapsed: 0.00046896934509277344
ell 522, elapsed: 0.00037789344787597656
ell 521, elapsed: 0.0004601478576660156
ell 520, elapsed: 0.0003731250762939453
ell 519, elapsed: 0.0004668235778808594
ell 518, elapsed: 0.00037598609924316406
ell 517, elapsed: 0.0004761219024658203
ell 516, elapsed: 0.00037288665771484375
ell 515, elapsed: 0.00045299530029296875
ell 514, elapsed: 0.00037288665771484375
ell 513, elapsed: 0.0004520416259765625
ell 512, elapsed: 0.0003719329833984375
ell 511, elapsed: 0.00045609474182128906
ell 510, elapsed: 0.0003731250762939453
ell 509, elapsed: 0.0004849433898925781
ell 508, elapsed: 0.0003788471221923828
ell 507, elapsed: 0.0004870891571044922
ell 506, elapsed: 0.0003669261932373047
ell 505, elapsed: 0.0006148815155029297
ell 504, elapsed: 0.0004470348358154297
ell 503, elapsed: 0.00045800209045410156
ell 502, elapsed: 0.0003769397735595703
ell 501, elapsed: 0.0004761219024658203
ell 500, elapsed: 0.0003731250762939453
ell 499, elapsed: 0.00044798851013183594
ell 498, elapsed: 0.00037097930908203125
ell 497, elapsed: 0.00045108795166015625
ell 496, elapsed: 0.00036597251892089844
ell 495, elapsed: 0.00047206878662109375
ell 494, elapsed: 0.00037217140197753906
ell 493, elapsed: 0.0004780292510986328
ell 492, elapsed: 0.00037598609924316406
ell 491, elapsed: 0.00045609474182128906
ell 490, elapsed: 0.0003809928894042969
ell 489, elapsed: 0.0004589557647705078
ell 488, elapsed: 0.00037097930908203125
ell 487, elapsed: 0.0004508495330810547
ell 486, elapsed: 0.0003731250762939453
ell 485, elapsed: 0.0004630088806152344
ell 484, elapsed: 0.000392913818359375
ell 483, elapsed: 0.00045490264892578125
ell 482, elapsed: 0.0003821849822998047
ell 481, elapsed: 0.0004658699035644531
ell 480, elapsed: 0.0003788471221923828
ell 479, elapsed: 0.0004639625549316406
ell 478, elapsed: 0.0003809928894042969
ell 477, elapsed: 0.0004630088806152344
ell 476, elapsed: 0.00038909912109375
ell 475, elapsed: 0.0004520416259765625
ell 474, elapsed: 0.00037217140197753906
ell 473, elapsed: 0.0004551410675048828
ell 472, elapsed: 0.0003788471221923828
ell 471, elapsed: 0.0004730224609375
ell 470, elapsed: 0.00038504600524902344
ell 469, elapsed: 0.00046515464782714844
ell 468, elapsed: 0.0004570484161376953
ell 467, elapsed: 0.0006380081176757812
ell 466, elapsed: 0.00045990943908691406
ell 465, elapsed: 0.00061798095703125
ell 464, elapsed: 0.0003859996795654297
ell 463, elapsed: 0.00047206878662109375
ell 462, elapsed: 0.00037789344787597656
ell 461, elapsed: 0.000469207763671875
ell 460, elapsed: 0.0003821849822998047
ell 459, elapsed: 0.00047278404235839844
ell 458, elapsed: 0.00039005279541015625
ell 457, elapsed: 0.0004589557647705078
ell 456, elapsed: 0.00037097930908203125
ell 455, elapsed: 0.0004639625549316406
ell 454, elapsed: 0.00037598609924316406
ell 453, elapsed: 0.00047206878662109375
ell 452, elapsed: 0.000392913818359375
ell 451, elapsed: 0.0004718303680419922
ell 450, elapsed: 0.00037407875061035156
ell 449, elapsed: 0.00045990943908691406
ell 448, elapsed: 0.00037407875061035156
ell 447, elapsed: 0.00045418739318847656
ell 446, elapsed: 0.0003859996795654297
ell 445, elapsed: 0.0004699230194091797
ell 444, elapsed: 0.0004050731658935547
ell 443, elapsed: 0.0004658699035644531
ell 442, elapsed: 0.00038504600524902344
ell 441, elapsed: 0.0004711151123046875
ell 440, elapsed: 0.0003840923309326172
ell 439, elapsed: 0.0004780292510986328
ell 438, elapsed: 0.0003840923309326172
ell 437, elapsed: 0.00045680999755859375
ell 436, elapsed: 0.00040602684020996094
ell 435, elapsed: 0.00046706199645996094
ell 434, elapsed: 0.0003809928894042969
ell 433, elapsed: 0.0004658699035644531
ell 432, elapsed: 0.0004868507385253906
ell 431, elapsed: 0.0005829334259033203
ell 430, elapsed: 0.0003819465637207031
ell 429, elapsed: 0.0004611015319824219
ell 428, elapsed: 0.00039505958557128906
ell 427, elapsed: 0.0004630088806152344
ell 426, elapsed: 0.0003819465637207031
ell 425, elapsed: 0.0006339550018310547
ell 424, elapsed: 0.0004489421844482422
ell 423, elapsed: 0.00047206878662109375
ell 422, elapsed: 0.0003871917724609375
ell 421, elapsed: 0.0004870891571044922
ell 420, elapsed: 0.0003840923309326172
ell 419, elapsed: 0.0004799365997314453
ell 418, elapsed: 0.0003838539123535156
ell 417, elapsed: 0.0004639625549316406
ell 416, elapsed: 0.0003800392150878906
ell 415, elapsed: 0.0004661083221435547
ell 414, elapsed: 0.0003991127014160156
ell 413, elapsed: 0.0006098747253417969
ell 412, elapsed: 0.0004711151123046875
ell 411, elapsed: 0.00047087669372558594
ell 410, elapsed: 0.0003809928894042969
ell 409, elapsed: 0.00046706199645996094
ell 408, elapsed: 0.0003838539123535156
ell 407, elapsed: 0.0004658699035644531
ell 406, elapsed: 0.00038695335388183594
ell 405, elapsed: 0.0004820823669433594
ell 404, elapsed: 0.00038504600524902344
ell 403, elapsed: 0.0004630088806152344
ell 402, elapsed: 0.00038504600524902344
ell 401, elapsed: 0.0004649162292480469
ell 400, elapsed: 0.0003871917724609375
ell 399, elapsed: 0.00046706199645996094
ell 398, elapsed: 0.0003790855407714844
ell 397, elapsed: 0.0004649162292480469
ell 396, elapsed: 0.00038313865661621094
ell 395, elapsed: 0.0004680156707763672
ell 394, elapsed: 0.0003871917724609375
ell 393, elapsed: 0.00047087669372558594
ell 392, elapsed: 0.0003840923309326172
ell 391, elapsed: 0.0004620552062988281
ell 390, elapsed: 0.00037479400634765625
ell 389, elapsed: 0.0006270408630371094
ell 388, elapsed: 0.00038886070251464844
ell 387, elapsed: 0.0004911422729492188
ell 386, elapsed: 0.00037097930908203125
ell 385, elapsed: 0.0006539821624755859
ell 384, elapsed: 0.0004169940948486328
ell 383, elapsed: 0.00047397613525390625
ell 382, elapsed: 0.0003800392150878906
ell 381, elapsed: 0.00048279762268066406
ell 380, elapsed: 0.0003819465637207031
ell 379, elapsed: 0.0004699230194091797
ell 378, elapsed: 0.0003788471221923828
ell 377, elapsed: 0.000637054443359375
ell 376, elapsed: 0.0004260540008544922
ell 375, elapsed: 0.0004699230194091797
ell 374, elapsed: 0.0003848075866699219
ell 373, elapsed: 0.0004858970642089844
ell 372, elapsed: 0.0003809928894042969
ell 371, elapsed: 0.00045108795166015625
ell 370, elapsed: 0.0004718303680419922
ell 369, elapsed: 0.0005710124969482422
ell 368, elapsed: 0.0003800392150878906
ell 367, elapsed: 0.0006561279296875
ell 366, elapsed: 0.0004420280456542969
ell 365, elapsed: 0.0004699230194091797
ell 364, elapsed: 0.0003819465637207031
ell 363, elapsed: 0.0004668235778808594
ell 362, elapsed: 0.00037598609924316406
ell 361, elapsed: 0.00045800209045410156
ell 360, elapsed: 0.00037288665771484375
ell 359, elapsed: 0.00045490264892578125
ell 358, elapsed: 0.00038909912109375
ell 357, elapsed: 0.00046896934509277344
ell 356, elapsed: 0.00038313865661621094
ell 355, elapsed: 0.0004630088806152344
ell 354, elapsed: 0.0003771781921386719
ell 353, elapsed: 0.00045418739318847656
ell 352, elapsed: 0.00037407875061035156
ell 351, elapsed: 0.0004630088806152344
ell 350, elapsed: 0.00037479400634765625
ell 349, elapsed: 0.00047707557678222656
ell 348, elapsed: 0.0003769397735595703
ell 347, elapsed: 0.00045680999755859375
ell 346, elapsed: 0.0003771781921386719
ell 345, elapsed: 0.0004649162292480469
ell 344, elapsed: 0.0003731250762939453
ell 343, elapsed: 0.0004620552062988281
ell 342, elapsed: 0.0003859996795654297
ell 341, elapsed: 0.0004918575286865234
ell 340, elapsed: 0.0003719329833984375
ell 339, elapsed: 0.0004820823669433594
ell 338, elapsed: 0.00038504600524902344
ell 337, elapsed: 0.0004620552062988281
ell 336, elapsed: 0.0003819465637207031
ell 335, elapsed: 0.00045800209045410156
ell 334, elapsed: 0.00037384033203125
ell 333, elapsed: 0.0005080699920654297
ell 332, elapsed: 0.0003790855407714844
ell 331, elapsed: 0.0004551410675048828
ell 330, elapsed: 0.00037598609924316406
ell 329, elapsed: 0.0006170272827148438
ell 328, elapsed: 0.0004317760467529297
ell 327, elapsed: 0.00047588348388671875
ell 326, elapsed: 0.0003800392150878906
ell 325, elapsed: 0.00047397613525390625
ell 324, elapsed: 0.0003769397735595703
ell 323, elapsed: 0.00045800209045410156
ell 322, elapsed: 0.0003788471221923828
ell 321, elapsed: 0.0004570484161376953
ell 320, elapsed: 0.0003790855407714844
ell 319, elapsed: 0.0004661083221435547
ell 318, elapsed: 0.0005481243133544922
ell 317, elapsed: 0.0005550384521484375
ell 316, elapsed: 0.0003838539123535156
ell 315, elapsed: 0.0004642009735107422
ell 314, elapsed: 0.00038909912109375
ell 313, elapsed: 0.0004730224609375
ell 312, elapsed: 0.0003819465637207031
ell 311, elapsed: 0.0004730224609375
ell 310, elapsed: 0.0003790855407714844
ell 309, elapsed: 0.0004918575286865234
ell 308, elapsed: 0.00038814544677734375
ell 307, elapsed: 0.00047206878662109375
ell 306, elapsed: 0.0003838539123535156
ell 305, elapsed: 0.00047087669372558594
ell 304, elapsed: 0.0003762245178222656
ell 303, elapsed: 0.00047397613525390625
ell 302, elapsed: 0.00038313865661621094
ell 301, elapsed: 0.0005090236663818359
ell 300, elapsed: 0.0003688335418701172
ell 299, elapsed: 0.000476837158203125
ell 298, elapsed: 0.00038695335388183594
ell 297, elapsed: 0.00047707557678222656
ell 296, elapsed: 0.00038695335388183594
ell 295, elapsed: 0.0004730224609375
ell 294, elapsed: 0.00037598609924316406
ell 293, elapsed: 0.0004980564117431641
ell 292, elapsed: 0.0003879070281982422
ell 291, elapsed: 0.0004661083221435547
ell 290, elapsed: 0.0003859996795654297
ell 289, elapsed: 0.00047206878662109375
ell 288, elapsed: 0.0003859996795654297
ell 287, elapsed: 0.0004680156707763672
ell 286, elapsed: 0.0003819465637207031
ell 285, elapsed: 0.0004949569702148438
ell 284, elapsed: 0.0003809928894042969
ell 283, elapsed: 0.00047898292541503906
ell 282, elapsed: 0.0003838539123535156
ell 281, elapsed: 0.0004680156707763672
ell 280, elapsed: 0.00038504600524902344
ell 279, elapsed: 0.0004780292510986328
ell 278, elapsed: 0.00038909912109375
ell 277, elapsed: 0.0004820823669433594
ell 276, elapsed: 0.00038504600524902344
ell 275, elapsed: 0.00047898292541503906
ell 274, elapsed: 0.0003859996795654297
ell 273, elapsed: 0.00047087669372558594
ell 272, elapsed: 0.0003809928894042969
ell 271, elapsed: 0.0004730224609375
ell 270, elapsed: 0.0003829002380371094
ell 269, elapsed: 0.0004849433898925781
ell 268, elapsed: 0.00039005279541015625
ell 267, elapsed: 0.0004730224609375
ell 266, elapsed: 0.0003819465637207031
ell 265, elapsed: 0.0004749298095703125
ell 264, elapsed: 0.0003879070281982422
ell 263, elapsed: 0.0004711151123046875
ell 262, elapsed: 0.00038814544677734375
ell 261, elapsed: 0.00046706199645996094
ell 260, elapsed: 0.00040793418884277344
ell 259, elapsed: 0.0004711151123046875
ell 258, elapsed: 0.0003871917724609375
ell 257, elapsed: 0.0004680156707763672
ell 256, elapsed: 0.0003859996795654297
ell 255, elapsed: 0.00047898292541503906
ell 254, elapsed: 0.00039005279541015625
ell 253, elapsed: 0.00047397613525390625
ell 252, elapsed: 0.00040078163146972656
ell 251, elapsed: 0.00045990943908691406
ell 250, elapsed: 0.0003941059112548828
ell 249, elapsed: 0.00047016143798828125
ell 248, elapsed: 0.00038504600524902344
ell 247, elapsed: 0.00047016143798828125
ell 246, elapsed: 0.00038504600524902344
ell 245, elapsed: 0.0004730224609375
ell 244, elapsed: 0.0003960132598876953
ell 243, elapsed: 0.0004730224609375
ell 242, elapsed: 0.00038504600524902344
ell 241, elapsed: 0.0004730224609375
ell 240, elapsed: 0.0003769397735595703
ell 239, elapsed: 0.0004658699035644531
ell 238, elapsed: 0.0003840923309326172
ell 237, elapsed: 0.0004680156707763672
ell 236, elapsed: 0.0003960132598876953
ell 235, elapsed: 0.000476837158203125
ell 234, elapsed: 0.0003879070281982422
ell 233, elapsed: 0.00047206878662109375
ell 232, elapsed: 0.00038313865661621094
ell 231, elapsed: 0.00046706199645996094
ell 230, elapsed: 0.0003879070281982422
ell 229, elapsed: 0.00047206878662109375
ell 228, elapsed: 0.0004031658172607422
ell 227, elapsed: 0.0004730224609375
ell 226, elapsed: 0.0003848075866699219
ell 225, elapsed: 0.0004680156707763672
ell 224, elapsed: 0.0003819465637207031
ell 223, elapsed: 0.0006120204925537109
ell 222, elapsed: 0.000453948974609375
ell 221, elapsed: 0.0004711151123046875
ell 220, elapsed: 0.00040721893310546875
ell 219, elapsed: 0.0004780292510986328
ell 218, elapsed: 0.00038886070251464844
ell 217, elapsed: 0.00047278404235839844
ell 216, elapsed: 0.0003781318664550781
ell 215, elapsed: 0.0004699230194091797
ell 214, elapsed: 0.0003829002380371094
ell 213, elapsed: 0.00047087669372558594
ell 212, elapsed: 0.00038814544677734375
ell 211, elapsed: 0.0004630088806152344
ell 210, elapsed: 0.0003819465637207031
ell 209, elapsed: 0.0004611015319824219
ell 208, elapsed: 0.00037789344787597656
ell 207, elapsed: 0.0004639625549316406
ell 206, elapsed: 0.00038313865661621094
ell 205, elapsed: 0.0004811286926269531
ell 204, elapsed: 0.0004830360412597656
ell 203, elapsed: 0.00047516822814941406
ell 202, elapsed: 0.0003800392150878906
ell 201, elapsed: 0.00046706199645996094
ell 200, elapsed: 0.0003829002380371094
ell 199, elapsed: 0.0006270408630371094
ell 198, elapsed: 0.000431060791015625
ell 197, elapsed: 0.0004649162292480469
ell 196, elapsed: 0.0004849433898925781
ell 195, elapsed: 0.0004699230194091797
ell 194, elapsed: 0.00037789344787597656
ell 193, elapsed: 0.00046515464782714844
ell 192, elapsed: 0.0003788471221923828
ell 191, elapsed: 0.00047016143798828125
ell 190, elapsed: 0.0003819465637207031
ell 189, elapsed: 0.00046896934509277344
ell 188, elapsed: 0.0004899501800537109
ell 187, elapsed: 0.0004711151123046875
ell 186, elapsed: 0.0003809928894042969
ell 185, elapsed: 0.0004680156707763672
ell 184, elapsed: 0.0003790855407714844
ell 183, elapsed: 0.0004470348358154297
ell 182, elapsed: 0.00038123130798339844
ell 181, elapsed: 0.00046706199645996094
ell 180, elapsed: 0.0004820823669433594
ell 179, elapsed: 0.00047707557678222656
ell 178, elapsed: 0.0003790855407714844
ell 177, elapsed: 0.0004649162292480469
ell 176, elapsed: 0.00038313865661621094
ell 175, elapsed: 0.00046515464782714844
ell 174, elapsed: 0.00039005279541015625
ell 173, elapsed: 0.0004630088806152344
ell 172, elapsed: 0.0005090236663818359
ell 171, elapsed: 0.000469207763671875
ell 170, elapsed: 0.0005068778991699219
ell 169, elapsed: 0.0005719661712646484
ell 168, elapsed: 0.0003790855407714844
ell 167, elapsed: 0.00046515464782714844
ell 166, elapsed: 0.0003781318664550781
ell 165, elapsed: 0.0004661083221435547
ell 164, elapsed: 0.00038313865661621094
ell 163, elapsed: 0.0005960464477539062
ell 162, elapsed: 0.00045418739318847656
ell 161, elapsed: 0.0004649162292480469
ell 160, elapsed: 0.00043511390686035156
ell 159, elapsed: 0.0006291866302490234
ell 158, elapsed: 0.00036597251892089844
ell 157, elapsed: 0.0005679130554199219
ell 156, elapsed: 0.0003731250762939453
ell 155, elapsed: 0.0004642009735107422
ell 154, elapsed: 0.0003769397735595703
ell 153, elapsed: 0.0004570484161376953
ell 152, elapsed: 0.0003781318664550781
ell 151, elapsed: 0.0004608631134033203
ell 150, elapsed: 0.0003790855407714844
ell 149, elapsed: 0.0005660057067871094
ell 148, elapsed: 0.00037789344787597656
ell 147, elapsed: 0.0004630088806152344
ell 146, elapsed: 0.00038695335388183594
ell 145, elapsed: 0.0004680156707763672
ell 144, elapsed: 0.0003800392150878906
ell 143, elapsed: 0.0004558563232421875
ell 142, elapsed: 0.0003879070281982422
ell 141, elapsed: 0.00048613548278808594
ell 140, elapsed: 0.0003790855407714844
ell 139, elapsed: 0.0004649162292480469
ell 138, elapsed: 0.0003809928894042969
ell 137, elapsed: 0.0004589557647705078
ell 136, elapsed: 0.0003788471221923828
ell 135, elapsed: 0.00045800209045410156
ell 134, elapsed: 0.0005469322204589844
ell 133, elapsed: 0.0005590915679931641
ell 132, elapsed: 0.00037598609924316406
ell 131, elapsed: 0.00047016143798828125
ell 130, elapsed: 0.00038814544677734375
ell 129, elapsed: 0.00048089027404785156
ell 128, elapsed: 0.0003809928894042969
ell 127, elapsed: 0.0004711151123046875
ell 126, elapsed: 0.00039005279541015625
ell 125, elapsed: 0.0004961490631103516
ell 124, elapsed: 0.0003800392150878906
ell 123, elapsed: 0.0004658699035644531
ell 122, elapsed: 0.00037598609924316406
ell 121, elapsed: 0.0004699230194091797
ell 120, elapsed: 0.0003771781921386719
ell 119, elapsed: 0.0004730224609375
ell 118, elapsed: 0.00038814544677734375
ell 117, elapsed: 0.0004870891571044922
ell 116, elapsed: 0.0003840923309326172
ell 115, elapsed: 0.0004642009735107422
ell 114, elapsed: 0.00038504600524902344
ell 113, elapsed: 0.0004680156707763672
ell 112, elapsed: 0.00037789344787597656
ell 111, elapsed: 0.0004661083221435547
ell 110, elapsed: 0.0003840923309326172
ell 109, elapsed: 0.0004889965057373047
ell 108, elapsed: 0.0003879070281982422
ell 107, elapsed: 0.0004551410675048828
ell 106, elapsed: 0.0003790855407714844
ell 105, elapsed: 0.000453948974609375
ell 104, elapsed: 0.00037789344787597656
ell 103, elapsed: 0.0004680156707763672
ell 102, elapsed: 0.0003829002380371094
ell 101, elapsed: 0.0004870891571044922
ell 100, elapsed: 0.0003809928894042969
ell 99, elapsed: 0.00047397613525390625
ell 98, elapsed: 0.00038313865661621094
ell 97, elapsed: 0.00046896934509277344
ell 96, elapsed: 0.0003819465637207031
ell 95, elapsed: 0.0004661083221435547
ell 94, elapsed: 0.0003719329833984375
ell 93, elapsed: 0.0004749298095703125
ell 92, elapsed: 0.0003800392150878906
ell 91, elapsed: 0.0006501674652099609
ell 90, elapsed: 0.0004420280456542969
ell 89, elapsed: 0.0004639625549316406
ell 88, elapsed: 0.00037789344787597656
ell 87, elapsed: 0.0004699230194091797
ell 86, elapsed: 0.0003769397735595703
ell 85, elapsed: 0.0004780292510986328
ell 84, elapsed: 0.0003809928894042969
ell 83, elapsed: 0.0004680156707763672
ell 82, elapsed: 0.0003769397735595703
ell 81, elapsed: 0.0004742145538330078
ell 80, elapsed: 0.0003790855407714844
ell 79, elapsed: 0.0004730224609375
ell 78, elapsed: 0.0003840923309326172
ell 77, elapsed: 0.0005159378051757812
ell 76, elapsed: 0.0003941059112548828
ell 75, elapsed: 0.00047898292541503906
ell 74, elapsed: 0.00038695335388183594
ell 73, elapsed: 0.0004680156707763672
ell 72, elapsed: 0.00038695335388183594
ell 71, elapsed: 0.00047898292541503906
ell 70, elapsed: 0.0003910064697265625
ell 69, elapsed: 0.00047397613525390625
ell 68, elapsed: 0.00038695335388183594
ell 67, elapsed: 0.0006289482116699219
ell 66, elapsed: 0.00045800209045410156
ell 65, elapsed: 0.000476837158203125
ell 64, elapsed: 0.00046706199645996094
ell 63, elapsed: 0.0006461143493652344
ell 62, elapsed: 0.0003829002380371094
ell 61, elapsed: 0.0004839897155761719
ell 60, elapsed: 0.0005300045013427734
ell 59, elapsed: 0.0005440711975097656
ell 58, elapsed: 0.00038313865661621094
ell 57, elapsed: 0.00048089027404785156
ell 56, elapsed: 0.0003838539123535156
ell 55, elapsed: 0.0007059574127197266
ell 54, elapsed: 0.0005598068237304688
ell 53, elapsed: 0.0005218982696533203
ell 52, elapsed: 0.0003859996795654297
ell 51, elapsed: 0.00045800209045410156
ell 50, elapsed: 0.0005371570587158203
ell 49, elapsed: 0.0005331039428710938
ell 48, elapsed: 0.0003809928894042969
ell 47, elapsed: 0.0004661083221435547
ell 46, elapsed: 0.0003800392150878906
ell 45, elapsed: 0.0004658699035644531
ell 44, elapsed: 0.0003788471221923828
ell 43, elapsed: 0.0004489421844482422
ell 42, elapsed: 0.0003800392150878906
ell 41, elapsed: 0.00046896934509277344
ell 40, elapsed: 0.00038695335388183594
ell 39, elapsed: 0.0004611015319824219
ell 38, elapsed: 0.00038313865661621094
ell 37, elapsed: 0.00045990943908691406
ell 36, elapsed: 0.0003600120544433594
ell 35, elapsed: 0.0004410743713378906
ell 34, elapsed: 0.00035500526428222656
ell 33, elapsed: 0.0004489421844482422
ell 32, elapsed: 0.0004730224609375
ell 31, elapsed: 0.0004520416259765625
ell 30, elapsed: 0.00037598609924316406
ell 29, elapsed: 0.0004458427429199219
ell 28, elapsed: 0.00037288665771484375
ell 27, elapsed: 0.0004630088806152344
ell 26, elapsed: 0.0003840923309326172
ell 25, elapsed: 0.00046515464782714844
ell 24, elapsed: 0.00047707557678222656
ell 23, elapsed: 0.00046706199645996094
ell 22, elapsed: 0.00041103363037109375
ell 21, elapsed: 0.0004987716674804688
ell 20, elapsed: 0.00038504600524902344
ell 19, elapsed: 0.00048613548278808594
ell 18, elapsed: 0.0003800392150878906
ell 17, elapsed: 0.0004980564117431641
ell 16, elapsed: 0.0005340576171875
ell 15, elapsed: 0.0006110668182373047
ell 14, elapsed: 0.00045990943908691406
ell 13, elapsed: 0.0004661083221435547
ell 12, elapsed: 0.0003719329833984375
ell 11, elapsed: 0.0004630088806152344
ell 10, elapsed: 0.0003829002380371094
ell 9, elapsed: 0.0005450248718261719
ell 8, elapsed: 0.00040984153747558594
ell 7, elapsed: 0.0004711151123046875
ell 6, elapsed: 0.0003781318664550781
ell 5, elapsed: 0.00046181678771972656
ell 4, elapsed: 0.00037598609924316406
ell 3, elapsed: 0.00046515464782714844
ell 2, elapsed: 0.0003840923309326172
ell 1, elapsed: 0.00045990943908691406
ell 0, elapsed: 0.00039196014404296875
  0.739532 seconds (57.02 k allocations: 2.784 MiB)
elapsed: 0.0006101131439208984
step:          0.06478 sec (0 allocations: 0 byte, 0.0% gc time)
swapping:      0.004974 sec (0 allocations: 0 byte, 0.0% gc time)
calc_Mellell!: 0.011585 sec (0 allocations: 0 byte, 0.0% gc time)
  t0 :  0.002523 sec (0 allocations: 0 byte, 0.0% gc time)
  tm2 : 0.090625 sec (0 allocations: 0 byte, 0.0% gc time)
  tm2s: 0.002056 sec (0 allocations: 0 byte, 0.0% gc time)
  tm4 : 0.227987 sec (0 allocations: 0 byte, 0.0% gc time)
  tp2 : 0.0 sec (0 allocations: 0 byte, 0.0% gc time)
  tp2s: 0.0 sec (0 allocations: 0 byte, 0.0% gc time)
  tp4 : 0.0 sec (0 allocations: 0 byte, 0.0% gc time)
calc_wtdll!:   0.340654 sec (9.879 k allocations: 1.044 MB, 0.0% gc time)
calc_wljj!:    0.045745 sec (689 allocations: 10.766 KB, 0.0% gc time)
mult_prefac!:  0.0 sec (0 allocations: 0 byte, 0.0% gc time)
convert:       0.0 sec (0 allocations: 0 byte, 0.0% gc time)
write:         0.058377 sec (0 allocations: 0 byte, 0.0% gc time)
test_rand_2f1: 0.0 sec (0 allocations: 0 byte, 0.0% gc time)
Closing outfile out/Ml21-cache.bin...   0.023314 seconds
  0.000515 seconds (52 allocations: 28.297 KiB)
make_phi():   0.002586 seconds (8.20 k allocations: 238.016 KiB)
  0.187907 seconds (146.69 k allocations: 3.629 MiB)
tskip:       0.001328 sec (0 allocations: 0 byte, 0.0% gc time)
tread:       0.024407 sec (20 allocations: 10.703 KB, 0.0% gc time)
tmultphi:    0.01861 sec (0 allocations: 0 byte, 0.0% gc time)
tbrfft:      0.04375 sec (9.592 k allocations: 449.625 KB, 0.0% gc time)
tmultprefac: 0.039557 sec (0 allocations: 0 byte, 0.0% gc time)
toutfunc:    0.0582 sec (129.905 k allocations: 2.421 MB, 0.0% gc time)
Testing R=1.0 ... passed
Calculating fmax: 
  dlrec    = 4
  dlrecRg1 = -4
  q=1.1, R=0.9:	  0.542245 seconds (149.41 k allocations: 69.863 MiB, 3.07% gc time)

  0.543428 seconds (149.47 k allocations: 69.895 MiB, 3.06% gc time)
ℓ = 1202
Δℓ = 4
ΔℓRg1 = -4
N = 1600
q = 1.1
kmin = 1.0e-5
kmax = 100000.00000000004
χ0 = 0.023029999999999995
RR = RR.tsv
ℓmax = ℓmax.bin
f21 = f21.bin
kmin = 1.0e-5
kmax = 100000.0
dlrec    = 4
dlrecRg1 = -4
Output size: 5741568 bytes = 0.005347251892089844 GiB
Output size: 51264 bytes = 4.774332046508789e-5 GiB
Reading 'out/F21EllCache'...   0.001158 seconds (271 allocations: 84.719 KiB)
ellmax: 1202
lmaxcache: 1202
fell[:,1,1] = Complex{Float64}[1.3482014726274674e-57 - 3.302141236118086e-73im, 1.357860004724329e-57 - 3.3257978169518355e-73im]
ell 1202, elapsed: 5.698204040527344e-5
ell 1201, elapsed: 0.00043082237243652344
ell 1200, elapsed: 0.0004248619079589844
ell 1199, elapsed: 0.0003991127014160156
ell 1198, elapsed: 0.0004069805145263672
ell 1002, elapsed: 0.009731054306030273
ell 1001, elapsed: 0.00043892860412597656
ell 1000, elapsed: 0.0003991127014160156
ell 999, elapsed: 0.0003910064697265625
ell 998, elapsed: 0.0003981590270996094
ell 902, elapsed: 0.005012989044189453
ell 901, elapsed: 0.000431060791015625
ell 900, elapsed: 0.0003662109375
ell 899, elapsed: 0.0003368854522705078
ell 898, elapsed: 0.00033402442932128906
ell 802, elapsed: 0.00509190559387207
ell 801, elapsed: 0.0004520416259765625
ell 800, elapsed: 0.00041484832763671875
ell 799, elapsed: 0.0004069805145263672
ell 798, elapsed: 0.00039696693420410156
ell 702, elapsed: 0.005007028579711914
ell 701, elapsed: 0.00044798851013183594
ell 700, elapsed: 0.00044989585876464844
ell 699, elapsed: 0.0003910064697265625
ell 698, elapsed: 0.00043892860412597656
ell 602, elapsed: 0.00506591796875
ell 601, elapsed: 0.0004150867462158203
ell 600, elapsed: 0.0004088878631591797
ell 599, elapsed: 0.0004031658172607422
ell 598, elapsed: 0.000408172607421875
ell 502, elapsed: 0.0049970149993896484
ell 501, elapsed: 0.0004291534423828125
ell 500, elapsed: 0.00047898292541503906
ell 499, elapsed: 0.0004050731658935547
ell 498, elapsed: 0.0004169940948486328
ell 402, elapsed: 0.005079030990600586
ell 401, elapsed: 0.0004291534423828125
ell 400, elapsed: 0.0003979206085205078
ell 399, elapsed: 0.00038695335388183594
ell 398, elapsed: 0.0004010200500488281
ell 302, elapsed: 0.004951953887939453
ell 301, elapsed: 0.0004398822784423828
ell 300, elapsed: 0.0003960132598876953
ell 299, elapsed: 0.0004031658172607422
ell 298, elapsed: 0.0004029273986816406
ell 202, elapsed: 0.005052089691162109
ell 201, elapsed: 0.0004448890686035156
ell 200, elapsed: 0.0004029273986816406
ell 199, elapsed: 0.00041484832763671875
ell 198, elapsed: 0.00040984153747558594
ell 152, elapsed: 0.0026280879974365234
ell 151, elapsed: 0.0004189014434814453
ell 150, elapsed: 0.00034689903259277344
ell 149, elapsed: 0.0003380775451660156
ell 148, elapsed: 0.0003349781036376953
ell 127, elapsed: 0.0016238689422607422
ell 126, elapsed: 0.0004029273986816406
ell 125, elapsed: 0.00039196014404296875
ell 124, elapsed: 0.0003960132598876953
ell 123, elapsed: 0.00039315223693847656
ell 114, elapsed: 0.0008251667022705078
ell 113, elapsed: 0.00034308433532714844
ell 112, elapsed: 0.0003409385681152344
ell 111, elapsed: 0.0003390312194824219
ell 110, elapsed: 0.00033211708068847656
ell 102, elapsed: 0.0008409023284912109
ell 101, elapsed: 0.00033593177795410156
ell 100, elapsed: 0.0003330707550048828
ell 99, elapsed: 0.000347137451171875
ell 98, elapsed: 0.00033092498779296875
ell 97, elapsed: 0.00036907196044921875
ell 96, elapsed: 0.0004260540008544922
ell 95, elapsed: 0.00024890899658203125
ell 94, elapsed: 0.00030493736267089844
ell 93, elapsed: 0.0003769397735595703
ell 92, elapsed: 0.00045299530029296875
ell 91, elapsed: 0.0003681182861328125
ell 90, elapsed: 0.00044083595275878906
ell 89, elapsed: 0.00036787986755371094
ell 88, elapsed: 0.00045013427734375
ell 87, elapsed: 0.00036597251892089844
ell 86, elapsed: 0.0004448890686035156
ell 85, elapsed: 0.00036597251892089844
ell 84, elapsed: 0.00044083595275878906
ell 83, elapsed: 0.0003609657287597656
ell 82, elapsed: 0.0004410743713378906
ell 81, elapsed: 0.0004620552062988281
ell 80, elapsed: 0.000514984130859375
ell 79, elapsed: 0.0004668235778808594
ell 78, elapsed: 0.0006220340728759766
ell 77, elapsed: 0.0004451274871826172
ell 76, elapsed: 0.0005218982696533203
ell 75, elapsed: 0.0004131793975830078
ell 74, elapsed: 0.00057220458984375
ell 73, elapsed: 0.0004248619079589844
ell 72, elapsed: 0.0005199909210205078
ell 71, elapsed: 0.00043702125549316406
ell 70, elapsed: 0.0005400180816650391
ell 69, elapsed: 0.00043320655822753906
ell 68, elapsed: 0.0005338191986083984
ell 67, elapsed: 0.0004761219024658203
ell 66, elapsed: 0.00045609474182128906
ell 65, elapsed: 0.00036716461181640625
ell 64, elapsed: 0.0004439353942871094
ell 63, elapsed: 0.0004138946533203125
ell 62, elapsed: 0.0005121231079101562
ell 61, elapsed: 0.00044989585876464844
ell 60, elapsed: 0.0005178451538085938
ell 59, elapsed: 0.0004398822784423828
ell 58, elapsed: 0.000514984130859375
ell 57, elapsed: 0.00042319297790527344
ell 56, elapsed: 0.0005118846893310547
ell 55, elapsed: 0.00043392181396484375
ell 54, elapsed: 0.0005109310150146484
ell 53, elapsed: 0.00042891502380371094
ell 52, elapsed: 0.0005810260772705078
ell 51, elapsed: 0.0004279613494873047
ell 50, elapsed: 0.0004980564117431641
ell 49, elapsed: 0.00040984153747558594
ell 48, elapsed: 0.0004940032958984375
ell 47, elapsed: 0.0004088878631591797
ell 46, elapsed: 0.0004949569702148438
ell 45, elapsed: 0.0004439353942871094
ell 44, elapsed: 0.02758312225341797
ell 43, elapsed: 0.0003979206085205078
ell 42, elapsed: 0.000453948974609375
ell 41, elapsed: 0.00036907196044921875
ell 40, elapsed: 0.00044608116149902344
ell 39, elapsed: 0.00037097930908203125
ell 38, elapsed: 0.0004470348358154297
ell 37, elapsed: 0.00037097930908203125
ell 36, elapsed: 0.005712032318115234
ell 35, elapsed: 0.00039005279541015625
ell 34, elapsed: 0.0004608631134033203
ell 33, elapsed: 0.0004980564117431641
ell 32, elapsed: 0.0005650520324707031
ell 31, elapsed: 0.0004181861877441406
ell 30, elapsed: 0.0004680156707763672
ell 29, elapsed: 0.0005009174346923828
ell 28, elapsed: 0.0005691051483154297
ell 27, elapsed: 0.0005199909210205078
ell 26, elapsed: 0.0005497932434082031
ell 25, elapsed: 0.0005259513854980469
ell 24, elapsed: 0.0006151199340820312
ell 23, elapsed: 0.0005109310150146484
ell 22, elapsed: 0.0005650520324707031
ell 21, elapsed: 0.0003819465637207031
ell 20, elapsed: 0.0006289482116699219
ell 19, elapsed: 0.0005700588226318359
ell 18, elapsed: 0.0007050037384033203
ell 17, elapsed: 0.0003840923309326172
ell 16, elapsed: 0.00043201446533203125
ell 15, elapsed: 0.0003459453582763672
ell 14, elapsed: 0.0004429817199707031
ell 13, elapsed: 0.0004949569702148438
ell 12, elapsed: 0.0005710124969482422
ell 11, elapsed: 0.0004940032958984375
ell 10, elapsed: 0.0006470680236816406
ell 9, elapsed: 0.0003819465637207031
ell 8, elapsed: 0.0006310939788818359
ell 7, elapsed: 0.0006039142608642578
ell 6, elapsed: 0.0006151199340820312
ell 5, elapsed: 0.00042700767517089844
ell 4, elapsed: 0.0007138252258300781
ell 3, elapsed: 0.0003809928894042969
ell 2, elapsed: 0.00046706199645996094
ell 1, elapsed: 0.0003800392150878906
ell 0, elapsed: 0.0005891323089599609
  0.192571 seconds (13.00 k allocations: 674.719 KiB)
elapsed: 0.0005729198455810547
step:          0.056403 sec (0 allocations: 0 byte, 0.0% gc time)
swapping:      0.000501 sec (0 allocations: 0 byte, 0.0% gc time)
calc_Mellell!: 0.001607 sec (0 allocations: 0 byte, 0.0% gc time)
  t0 :  0.000385 sec (0 allocations: 0 byte, 0.0% gc time)
  tm2 : 0.012566 sec (0 allocations: 0 byte, 0.0% gc time)
  tm2s: 0.000296 sec (0 allocations: 0 byte, 0.0% gc time)
  tm4 : 0.064229 sec (0 allocations: 0 byte, 0.0% gc time)
  tp2 : 0.0 sec (0 allocations: 0 byte, 0.0% gc time)
  tp2s: 0.0 sec (0 allocations: 0 byte, 0.0% gc time)
  tp4 : 0.0 sec (0 allocations: 0 byte, 0.0% gc time)
calc_wtdll!:   0.078199 sec (1.344 k allocations: 147.0 KB, 0.0% gc time)
calc_wljj!:    0.004285 sec (6 allocations: 96 byte, 0.0% gc time)
mult_prefac!:  0.0 sec (0 allocations: 0 byte, 0.0% gc time)
convert:       0.0 sec (0 allocations: 0 byte, 0.0% gc time)
write:         0.005153 sec (0 allocations: 0 byte, 0.0% gc time)
test_rand_2f1: 0.0 sec (0 allocations: 0 byte, 0.0% gc time)
Closing outfile out/Ml21-cache.bin...   0.003676 seconds
  0.000570 seconds (52 allocations: 28.297 KiB)
make_phi():   0.002951 seconds (8.20 k allocations: 238.016 KiB)
  0.029669 seconds (12.10 k allocations: 322.000 KiB)
tskip:       3.1e-5 sec (0 allocations: 0 byte, 0.0% gc time)
tread:       0.003024 sec (20 allocations: 2.188 KB, 0.0% gc time)
tmultphi:    0.002986 sec (0 allocations: 0 byte, 0.0% gc time)
tbrfft:      0.006577 sec (896 allocations: 42.0 KB, 0.0% gc time)
tmultprefac: 0.007241 sec (0 allocations: 0 byte, 0.0% gc time)
toutfunc:    0.009632 sec (10.528 k allocations: 206.5 KB, 0.0% gc time)
Testing R=0.9 ... passed
Calculating fmax: 
  dlrec    = 4
  dlrecRg1 = -4
  q=1.1, R=0.8:	  0.508386 seconds (145.59 k allocations: 68.095 MiB, 2.64% gc time)

  0.508633 seconds (145.66 k allocations: 68.127 MiB, 2.63% gc time)
ℓ = 1202
Δℓ = 4
ΔℓRg1 = -4
N = 1600
q = 1.1
kmin = 1.0e-5
kmax = 100000.00000000004
χ0 = 0.023029999999999995
RR = RR.tsv
ℓmax = ℓmax.bin
f21 = f21.bin
kmin = 1.0e-5
kmax = 100000.0
dlrec    = 4
dlrecRg1 = -4
Output size: 5741568 bytes = 0.005347251892089844 GiB
Output size: 51264 bytes = 4.774332046508789e-5 GiB
Reading 'out/F21EllCache'...   0.001017 seconds (271 allocations: 84.719 KiB)
ellmax: 1202
lmaxcache: 1202
fell[:,1,1] = Complex{Float64}[7.519068145690986e-120 - 1.8416405474382574e-135im, 7.541664537386155e-120 - 1.847175067190611e-135im]
ell 1202, elapsed: 1.8835067749023438e-5
ell 1201, elapsed: 0.0003581047058105469
ell 1200, elapsed: 0.0003390312194824219
ell 1199, elapsed: 0.0003421306610107422
ell 1198, elapsed: 0.0003409385681152344
ell 1002, elapsed: 0.010695934295654297
ell 1001, elapsed: 0.00036597251892089844
ell 1000, elapsed: 0.0003428459167480469
ell 999, elapsed: 0.00034499168395996094
ell 998, elapsed: 0.00034308433532714844
ell 902, elapsed: 0.004961967468261719
ell 901, elapsed: 0.0004620552062988281
ell 900, elapsed: 0.0003409385681152344
ell 899, elapsed: 0.0003428459167480469
ell 898, elapsed: 0.0003440380096435547
ell 802, elapsed: 0.00504612922668457
ell 801, elapsed: 0.00035309791564941406
ell 800, elapsed: 0.0003440380096435547
ell 799, elapsed: 0.0003418922424316406
ell 798, elapsed: 0.0004010200500488281
ell 702, elapsed: 0.005145072937011719
ell 701, elapsed: 0.0003540515899658203
ell 700, elapsed: 0.0003418922424316406
ell 699, elapsed: 0.0003409385681152344
ell 698, elapsed: 0.0003399848937988281
ell 602, elapsed: 0.005654096603393555
ell 601, elapsed: 0.00034689903259277344
ell 600, elapsed: 0.0003409385681152344
ell 599, elapsed: 0.0003380775451660156
ell 598, elapsed: 0.0003380775451660156
ell 502, elapsed: 0.004920005798339844
ell 501, elapsed: 0.00034499168395996094
ell 500, elapsed: 0.0005981922149658203
ell 499, elapsed: 0.0003390312194824219
ell 498, elapsed: 0.0003361701965332031
ell 402, elapsed: 0.0050809383392333984
ell 401, elapsed: 0.00034999847412109375
ell 400, elapsed: 0.00034308433532714844
ell 399, elapsed: 0.0003409385681152344
ell 398, elapsed: 0.0003428459167480469
ell 302, elapsed: 0.005548000335693359
ell 301, elapsed: 0.00034689903259277344
ell 300, elapsed: 0.00034499168395996094
ell 299, elapsed: 0.0003399848937988281
ell 298, elapsed: 0.0003361701965332031
ell 202, elapsed: 0.005160093307495117
ell 201, elapsed: 0.0003581047058105469
ell 200, elapsed: 0.0003409385681152344
ell 199, elapsed: 0.0003399848937988281
ell 198, elapsed: 0.0003399848937988281
ell 152, elapsed: 0.002574920654296875
ell 151, elapsed: 0.0003440380096435547
ell 150, elapsed: 0.0003371238708496094
ell 149, elapsed: 0.0003390312194824219
ell 148, elapsed: 0.0003418922424316406
ell 127, elapsed: 0.0015490055084228516
ell 126, elapsed: 0.00035309791564941406
ell 125, elapsed: 0.0004642009735107422
ell 124, elapsed: 0.0004551410675048828
ell 123, elapsed: 0.0003418922424316406
ell 114, elapsed: 0.0010519027709960938
ell 113, elapsed: 0.00043487548828125
ell 112, elapsed: 0.00049591064453125
ell 111, elapsed: 0.0004329681396484375
ell 110, elapsed: 0.00034308433532714844
ell 102, elapsed: 0.0008559226989746094
ell 101, elapsed: 0.0003409385681152344
ell 100, elapsed: 0.00034308433532714844
ell 99, elapsed: 0.0003399848937988281
ell 98, elapsed: 0.0003368854522705078
ell 97, elapsed: 0.00038313865661621094
ell 96, elapsed: 0.0005540847778320312
ell 95, elapsed: 0.0003829002380371094
ell 94, elapsed: 0.0004589557647705078
ell 93, elapsed: 0.0003800392150878906
ell 92, elapsed: 0.00045108795166015625
ell 91, elapsed: 0.0003790855407714844
ell 90, elapsed: 0.00045299530029296875
ell 89, elapsed: 0.0003809928894042969
ell 88, elapsed: 0.0004551410675048828
ell 87, elapsed: 0.00039005279541015625
ell 86, elapsed: 0.00045609474182128906
ell 85, elapsed: 0.0003871917724609375
ell 84, elapsed: 0.0004611015319824219
ell 83, elapsed: 0.0003838539123535156
ell 82, elapsed: 0.000453948974609375
ell 81, elapsed: 0.0003819465637207031
ell 80, elapsed: 0.00044989585876464844
ell 79, elapsed: 0.0004668235778808594
ell 78, elapsed: 0.0004630088806152344
ell 77, elapsed: 0.0003809928894042969
ell 76, elapsed: 0.00045418739318847656
ell 75, elapsed: 0.0003800392150878906
ell 74, elapsed: 0.0004489421844482422
ell 73, elapsed: 0.0003819465637207031
ell 72, elapsed: 0.00045299530029296875
ell 71, elapsed: 0.0004799365997314453
ell 70, elapsed: 0.00046706199645996094
ell 69, elapsed: 0.00037288665771484375
ell 68, elapsed: 0.0004551410675048828
ell 67, elapsed: 0.0003809928894042969
ell 66, elapsed: 0.000453948974609375
ell 65, elapsed: 0.00038504600524902344
ell 64, elapsed: 0.00045299530029296875
ell 63, elapsed: 0.00047087669372558594
ell 62, elapsed: 0.00047016143798828125
ell 61, elapsed: 0.00038313865661621094
ell 60, elapsed: 0.00046896934509277344
ell 59, elapsed: 0.0003750324249267578
ell 58, elapsed: 0.00047016143798828125
ell 57, elapsed: 0.0003829002380371094
ell 56, elapsed: 0.00045490264892578125
ell 55, elapsed: 0.00037980079650878906
ell 54, elapsed: 0.00047206878662109375
ell 53, elapsed: 0.0003809928894042969
ell 52, elapsed: 0.00045490264892578125
ell 51, elapsed: 0.0003800392150878906
ell 50, elapsed: 0.0004551410675048828
ell 49, elapsed: 0.0003859996795654297
ell 48, elapsed: 0.00046896934509277344
ell 47, elapsed: 0.00038313865661621094
ell 46, elapsed: 0.0005509853363037109
ell 45, elapsed: 0.0003809928894042969
ell 44, elapsed: 0.00045299530029296875
ell 43, elapsed: 0.00038313865661621094
ell 42, elapsed: 0.0004489421844482422
ell 41, elapsed: 0.0003788471221923828
ell 40, elapsed: 0.000453948974609375
ell 39, elapsed: 0.0003809928894042969
ell 38, elapsed: 0.0005381107330322266
ell 37, elapsed: 0.0003819465637207031
[...]
ell 782, elapsed: 0.0015079975128173828
ell 781, elapsed: 0.0007939338684082031
ell 780, elapsed: 0.0008180141448974609
ell 779, elapsed: 0.0008020401000976562
ell 778, elapsed: 0.0008161067962646484
ell 772, elapsed: 0.001531839370727539
ell 771, elapsed: 0.0008308887481689453
ell 770, elapsed: 0.0007789134979248047
ell 769, elapsed: 0.0008001327514648438
ell 768, elapsed: 0.0007970333099365234
ell 762, elapsed: 0.001917123794555664
ell 761, elapsed: 0.0007450580596923828
ell 760, elapsed: 0.0007870197296142578
ell 759, elapsed: 0.0007779598236083984
ell 758, elapsed: 0.0007939338684082031
ell 752, elapsed: 0.0015540122985839844
ell 751, elapsed: 0.0007951259613037109
ell 750, elapsed: 0.0008068084716796875
ell 749, elapsed: 0.0008130073547363281
ell 748, elapsed: 0.0007970333099365234
ell 742, elapsed: 0.0015058517456054688
ell 741, elapsed: 0.000843048095703125
ell 740, elapsed: 0.0007808208465576172
ell 739, elapsed: 0.0007920265197753906
ell 738, elapsed: 0.0007791519165039062
ell 732, elapsed: 0.0016129016876220703
ell 731, elapsed: 0.0007829666137695312
ell 730, elapsed: 0.0007879734039306641
ell 729, elapsed: 0.0008111000061035156
ell 728, elapsed: 0.0008008480072021484
ell 722, elapsed: 0.001619100570678711
ell 721, elapsed: 0.0007770061492919922
ell 720, elapsed: 0.0007579326629638672
ell 719, elapsed: 0.0007660388946533203
ell 718, elapsed: 0.0007848739624023438
ell 712, elapsed: 0.0015540122985839844
ell 711, elapsed: 0.0007932186126708984
ell 710, elapsed: 0.0008928775787353516
ell 709, elapsed: 0.0007619857788085938
ell 708, elapsed: 0.0007779598236083984
ell 702, elapsed: 0.001641988754272461
ell 701, elapsed: 0.0009801387786865234
ell 700, elapsed: 0.0007588863372802734
ell 699, elapsed: 0.0007698535919189453
ell 698, elapsed: 0.0007638931274414062
ell 692, elapsed: 0.0016529560089111328
ell 691, elapsed: 0.0007650852203369141
ell 690, elapsed: 0.0008230209350585938
ell 689, elapsed: 0.000804901123046875
ell 688, elapsed: 0.0008730888366699219
ell 682, elapsed: 0.0017561912536621094
ell 681, elapsed: 0.0008149147033691406
ell 680, elapsed: 0.0008060932159423828
ell 679, elapsed: 0.0008051395416259766
ell 678, elapsed: 0.000804901123046875
ell 672, elapsed: 0.0016429424285888672
ell 671, elapsed: 0.0008380413055419922
ell 670, elapsed: 0.0008080005645751953
ell 669, elapsed: 0.0008080005645751953
ell 668, elapsed: 0.0008149147033691406
ell 662, elapsed: 0.0017299652099609375
ell 661, elapsed: 0.0008099079132080078
ell 660, elapsed: 0.000804901123046875
ell 659, elapsed: 0.0007929801940917969
ell 658, elapsed: 0.0007622241973876953
ell 652, elapsed: 0.0015230178833007812
ell 651, elapsed: 0.0007688999176025391
ell 650, elapsed: 0.0008101463317871094
ell 649, elapsed: 0.0008180141448974609
ell 648, elapsed: 0.0007989406585693359
ell 642, elapsed: 0.0014989376068115234
ell 641, elapsed: 0.0005841255187988281
ell 640, elapsed: 0.000637054443359375
ell 639, elapsed: 0.0005779266357421875
ell 638, elapsed: 0.0005738735198974609
ell 632, elapsed: 0.0011019706726074219
ell 631, elapsed: 0.0005738735198974609
ell 630, elapsed: 0.0005781650543212891
ell 629, elapsed: 0.0006020069122314453
ell 628, elapsed: 0.0005750656127929688
ell 622, elapsed: 0.001085042953491211
ell 621, elapsed: 0.0005719661712646484
ell 620, elapsed: 0.0005769729614257812
ell 619, elapsed: 0.0005998611450195312
ell 618, elapsed: 0.000576019287109375
ell 612, elapsed: 0.0010809898376464844
ell 611, elapsed: 0.0005719661712646484
ell 610, elapsed: 0.0005750656127929688
ell 609, elapsed: 0.0005710124969482422
ell 608, elapsed: 0.0006020069122314453
ell 602, elapsed: 0.0012509822845458984
ell 601, elapsed: 0.0009229183197021484
ell 600, elapsed: 0.0009739398956298828
ell 599, elapsed: 0.0008699893951416016
ell 598, elapsed: 0.0009539127349853516
ell 592, elapsed: 0.001909017562866211
ell 591, elapsed: 0.0007958412170410156
ell 590, elapsed: 0.0009438991546630859
ell 589, elapsed: 0.0009429454803466797
ell 588, elapsed: 0.0009448528289794922
ell 582, elapsed: 0.0020160675048828125
ell 581, elapsed: 0.0009081363677978516
ell 580, elapsed: 0.0006151199340820312
ell 579, elapsed: 0.0005738735198974609
ell 578, elapsed: 0.0006020069122314453
ell 572, elapsed: 0.0015170574188232422
ell 571, elapsed: 0.0007100105285644531
ell 570, elapsed: 0.0005869865417480469
ell 569, elapsed: 0.0006198883056640625
ell 568, elapsed: 0.0005919933319091797
ell 562, elapsed: 0.0011069774627685547
ell 561, elapsed: 0.0006048679351806641
ell 560, elapsed: 0.0005919933319091797
ell 559, elapsed: 0.0005838871002197266
ell 558, elapsed: 0.0005931854248046875
ell 552, elapsed: 0.0011119842529296875
ell 551, elapsed: 0.0005879402160644531
ell 550, elapsed: 0.0005970001220703125
ell 549, elapsed: 0.0005960464477539062
ell 548, elapsed: 0.0006158351898193359
ell 542, elapsed: 0.0011210441589355469
ell 541, elapsed: 0.0005879402160644531
ell 540, elapsed: 0.0006098747253417969
ell 539, elapsed: 0.0005900859832763672
ell 538, elapsed: 0.0006120204925537109
ell 532, elapsed: 0.0018229484558105469
ell 531, elapsed: 0.0009489059448242188
ell 530, elapsed: 0.0009520053863525391
ell 529, elapsed: 0.0009088516235351562
ell 528, elapsed: 0.0009491443634033203
ell 522, elapsed: 0.0019369125366210938
ell 521, elapsed: 0.0009570121765136719
ell 520, elapsed: 0.0009560585021972656
ell 519, elapsed: 0.0009539127349853516
ell 518, elapsed: 0.0009391307830810547
ell 512, elapsed: 0.0019309520721435547
ell 511, elapsed: 0.0009591579437255859
ell 510, elapsed: 0.0009500980377197266
ell 509, elapsed: 0.0009448528289794922
ell 508, elapsed: 0.0009469985961914062
ell 502, elapsed: 0.001934051513671875
ell 501, elapsed: 0.0009539127349853516
ell 500, elapsed: 0.0007908344268798828
ell 499, elapsed: 0.0007500648498535156
ell 498, elapsed: 0.00080108642578125
ell 492, elapsed: 0.0014960765838623047
ell 491, elapsed: 0.0007729530334472656
ell 490, elapsed: 0.0007839202880859375
ell 489, elapsed: 0.0007989406585693359
ell 488, elapsed: 0.0007750988006591797
ell 482, elapsed: 0.0014879703521728516
ell 481, elapsed: 0.0007758140563964844
ell 480, elapsed: 0.0007941722869873047
ell 479, elapsed: 0.0007770061492919922
ell 478, elapsed: 0.0007760524749755859
ell 472, elapsed: 0.0015649795532226562
ell 471, elapsed: 0.0008111000061035156
ell 470, elapsed: 0.0008089542388916016
ell 469, elapsed: 0.0007829666137695312
ell 468, elapsed: 0.0007870197296142578
ell 462, elapsed: 0.0016469955444335938
ell 461, elapsed: 0.0007638931274414062
ell 460, elapsed: 0.0007870197296142578
ell 459, elapsed: 0.0007991790771484375
ell 458, elapsed: 0.0008919239044189453
ell 452, elapsed: 0.0015978813171386719
ell 451, elapsed: 0.000782012939453125
ell 450, elapsed: 0.0007829666137695312
ell 449, elapsed: 0.0008931159973144531
ell 448, elapsed: 0.0007569789886474609
ell 442, elapsed: 0.001603841781616211
ell 441, elapsed: 0.0007650852203369141
ell 440, elapsed: 0.0008831024169921875
ell 439, elapsed: 0.0007991790771484375
ell 438, elapsed: 0.0007779598236083984
ell 432, elapsed: 0.0016160011291503906
ell 431, elapsed: 0.0007798671722412109
ell 430, elapsed: 0.0007848739624023438
ell 429, elapsed: 0.0007379055023193359
ell 428, elapsed: 0.0007798671722412109
ell 422, elapsed: 0.0016510486602783203
ell 421, elapsed: 0.0008070468902587891
ell 420, elapsed: 0.0007641315460205078
ell 419, elapsed: 0.000743865966796875
ell 418, elapsed: 0.0008687973022460938
ell 412, elapsed: 0.001561880111694336
ell 411, elapsed: 0.0007939338684082031
ell 410, elapsed: 0.0007970333099365234
ell 409, elapsed: 0.0007510185241699219
ell 408, elapsed: 0.0008029937744140625
ell 402, elapsed: 0.0015590190887451172
ell 401, elapsed: 0.0007898807525634766
ell 400, elapsed: 0.0007879734039306641
ell 399, elapsed: 0.0007748603820800781
ell 398, elapsed: 0.000782012939453125
ell 392, elapsed: 0.0016241073608398438
ell 391, elapsed: 0.0007658004760742188
ell 390, elapsed: 0.00074005126953125
ell 389, elapsed: 0.0007698535919189453
ell 388, elapsed: 0.0007710456848144531
ell 382, elapsed: 0.0016798973083496094
ell 381, elapsed: 0.0007870197296142578
ell 380, elapsed: 0.0008111000061035156
ell 379, elapsed: 0.0008029937744140625
ell 378, elapsed: 0.0007948875427246094
ell 372, elapsed: 0.001538991928100586
ell 371, elapsed: 0.0007328987121582031
ell 370, elapsed: 0.0008170604705810547
ell 369, elapsed: 0.0007181167602539062
ell 368, elapsed: 0.0007832050323486328
ell 362, elapsed: 0.0015549659729003906
ell 361, elapsed: 0.000993967056274414
ell 360, elapsed: 0.0007929801940917969
ell 359, elapsed: 0.000782012939453125
ell 358, elapsed: 0.0007748603820800781
ell 352, elapsed: 0.0016720294952392578
ell 351, elapsed: 0.0007560253143310547
ell 350, elapsed: 0.0007638931274414062
ell 349, elapsed: 0.0008029937744140625
ell 348, elapsed: 0.0008680820465087891
ell 342, elapsed: 0.0015590190887451172
ell 341, elapsed: 0.0007810592651367188
ell 340, elapsed: 0.0007288455963134766
ell 339, elapsed: 0.0008919239044189453
ell 338, elapsed: 0.0008089542388916016
ell 332, elapsed: 0.0017919540405273438
ell 331, elapsed: 0.0007531642913818359
ell 330, elapsed: 0.00080108642578125
ell 329, elapsed: 0.0007619857788085938
ell 328, elapsed: 0.0007472038269042969
ell 322, elapsed: 0.0015299320220947266
ell 321, elapsed: 0.0007641315460205078
ell 320, elapsed: 0.0008051395416259766
ell 319, elapsed: 0.0007748603820800781
ell 318, elapsed: 0.0007431507110595703
ell 312, elapsed: 0.0016009807586669922
ell 311, elapsed: 0.0007739067077636719
ell 310, elapsed: 0.0008068084716796875
ell 309, elapsed: 0.0007631778717041016
ell 308, elapsed: 0.0008568763732910156
ell 302, elapsed: 0.0015499591827392578
ell 301, elapsed: 0.0007870197296142578
ell 300, elapsed: 0.0007650852203369141
ell 299, elapsed: 0.0007741451263427734
ell 298, elapsed: 0.0007500648498535156
ell 292, elapsed: 0.0015499591827392578
ell 291, elapsed: 0.0008859634399414062
ell 290, elapsed: 0.000988006591796875
ell 289, elapsed: 0.000820159912109375
ell 288, elapsed: 0.0008380413055419922
ell 282, elapsed: 0.0018129348754882812
ell 281, elapsed: 0.0008561611175537109
ell 280, elapsed: 0.0008509159088134766
ell 279, elapsed: 0.0008451938629150391
ell 278, elapsed: 0.0008740425109863281
ell 272, elapsed: 0.0017647743225097656
ell 271, elapsed: 0.0008320808410644531
ell 270, elapsed: 0.00084686279296875
ell 269, elapsed: 0.0008130073547363281
ell 268, elapsed: 0.0007679462432861328
ell 262, elapsed: 0.0015308856964111328
ell 261, elapsed: 0.0008130073547363281
ell 260, elapsed: 0.0008051395416259766
ell 259, elapsed: 0.0007460117340087891
ell 258, elapsed: 0.0007519721984863281
ell 252, elapsed: 0.0015859603881835938
ell 251, elapsed: 0.0007860660552978516
ell 250, elapsed: 0.0007951259613037109
ell 249, elapsed: 0.0007519721984863281
ell 248, elapsed: 0.0007970333099365234
ell 242, elapsed: 0.001789093017578125
ell 241, elapsed: 0.0008111000061035156
ell 240, elapsed: 0.0007770061492919922
ell 239, elapsed: 0.0008821487426757812
ell 238, elapsed: 0.000782012939453125
ell 232, elapsed: 0.00162506103515625
ell 231, elapsed: 0.0008261203765869141
ell 230, elapsed: 0.0007970333099365234
ell 229, elapsed: 0.0007839202880859375
ell 228, elapsed: 0.0007939338684082031
ell 222, elapsed: 0.0017330646514892578
ell 221, elapsed: 0.0007510185241699219
ell 220, elapsed: 0.0007410049438476562
ell 219, elapsed: 0.0007588863372802734
ell 218, elapsed: 0.0007879734039306641
ell 212, elapsed: 0.0016560554504394531
ell 211, elapsed: 0.0007560253143310547
ell 210, elapsed: 0.0007729530334472656
ell 209, elapsed: 0.0007729530334472656
ell 208, elapsed: 0.0008878707885742188
ell 202, elapsed: 0.0015749931335449219
ell 201, elapsed: 0.0007970333099365234
ell 200, elapsed: 0.0008099079132080078
ell 199, elapsed: 0.0007939338684082031
ell 198, elapsed: 0.0007920265197753906
ell 192, elapsed: 0.0015180110931396484
ell 191, elapsed: 0.0007679462432861328
ell 190, elapsed: 0.0007731914520263672
ell 189, elapsed: 0.0007970333099365234
ell 188, elapsed: 0.0007989406585693359
ell 182, elapsed: 0.0015969276428222656
ell 181, elapsed: 0.0007691383361816406
ell 180, elapsed: 0.0008029937744140625
ell 179, elapsed: 0.0007779598236083984
ell 178, elapsed: 0.0008130073547363281
ell 172, elapsed: 0.0015780925750732422
ell 171, elapsed: 0.0007770061492919922
ell 170, elapsed: 0.0007498264312744141
ell 169, elapsed: 0.0007960796356201172
ell 168, elapsed: 0.0007839202880859375
ell 162, elapsed: 0.0015549659729003906
ell 161, elapsed: 0.0007851123809814453
ell 160, elapsed: 0.0007660388946533203
ell 159, elapsed: 0.0007419586181640625
ell 158, elapsed: 0.0007739067077636719
ell 152, elapsed: 0.0015769004821777344
ell 151, elapsed: 0.0007948875427246094
ell 150, elapsed: 0.0007491111755371094
ell 149, elapsed: 0.0007710456848144531
ell 148, elapsed: 0.0007760524749755859
ell 142, elapsed: 0.0016219615936279297
ell 141, elapsed: 0.0007789134979248047
ell 140, elapsed: 0.0007789134979248047
ell 139, elapsed: 0.0007660388946533203
ell 138, elapsed: 0.0008261203765869141
ell 132, elapsed: 0.001538991928100586
ell 131, elapsed: 0.0008020401000976562
ell 130, elapsed: 0.0007631778717041016
ell 129, elapsed: 0.0007879734039306641
ell 128, elapsed: 0.0007460117340087891
ell 122, elapsed: 0.0015959739685058594
ell 121, elapsed: 0.0007889270782470703
ell 120, elapsed: 0.0007848739624023438
ell 119, elapsed: 0.0007600784301757812
ell 118, elapsed: 0.0007729530334472656
ell 112, elapsed: 0.001583099365234375
ell 111, elapsed: 0.0008001327514648438
ell 110, elapsed: 0.0007648468017578125
ell 109, elapsed: 0.0007581710815429688
ell 108, elapsed: 0.0007641315460205078
ell 102, elapsed: 0.0015401840209960938
ell 101, elapsed: 0.0029380321502685547
ell 100, elapsed: 0.0029778480529785156
ell 99, elapsed: 0.002984762191772461
ell 98, elapsed: 0.0029799938201904297
ell 92, elapsed: 0.005674839019775391
ell 91, elapsed: 0.0029349327087402344
ell 90, elapsed: 0.0029671192169189453
ell 89, elapsed: 0.002969026565551758
ell 88, elapsed: 0.0029799938201904297
ell 82, elapsed: 0.00583195686340332
ell 81, elapsed: 0.002966165542602539
ell 80, elapsed: 0.002986907958984375
ell 79, elapsed: 0.0030078887939453125
ell 78, elapsed: 0.0029969215393066406
ell 72, elapsed: 0.005835056304931641
ell 71, elapsed: 0.0030291080474853516
ell 70, elapsed: 0.0033180713653564453
ell 69, elapsed: 0.0029981136322021484
ell 68, elapsed: 0.002995014190673828
ell 62, elapsed: 0.00568699836730957
ell 61, elapsed: 0.0029349327087402344
ell 60, elapsed: 0.002962827682495117
ell 59, elapsed: 0.002988100051879883
ell 58, elapsed: 0.003000974655151367
ell 52, elapsed: 0.00559687614440918
ell 51, elapsed: 0.0031189918518066406
ell 50, elapsed: 0.0031228065490722656
ell 49, elapsed: 0.003033161163330078
ell 48, elapsed: 0.002989053726196289
ell 42, elapsed: 0.006045103073120117
ell 41, elapsed: 0.002953052520751953
ell 40, elapsed: 0.0029838085174560547
ell 39, elapsed: 0.0029718875885009766
ell 38, elapsed: 0.0029981136322021484
ell 32, elapsed: 0.0058209896087646484
ell 31, elapsed: 0.003036022186279297
ell 30, elapsed: 0.003270864486694336
ell 29, elapsed: 0.0032711029052734375
ell 28, elapsed: 0.0035910606384277344
ell 22, elapsed: 0.006044149398803711
ell 21, elapsed: 0.0029609203338623047
ell 20, elapsed: 0.0040569305419921875
ell 19, elapsed: 0.0033829212188720703
ell 18, elapsed: 0.004117012023925781
ell 12, elapsed: 0.006381034851074219
ell 11, elapsed: 0.003290891647338867
ell 10, elapsed: 0.0029811859130859375
ell 9, elapsed: 0.0029621124267578125
ell 8, elapsed: 0.0033190250396728516
  0.750112 seconds (74.16 k allocations: 12.051 MiB)
elapsed: 0.004002094268798828
step:          0.074539 sec (0 allocations: 0 byte, 0.0% gc time)
swapping:      0.000773 sec (0 allocations: 0 byte, 0.0% gc time)
calc_Mellell!: 0.035589 sec (0 allocations: 0 byte, 0.0% gc time)
  t0 :  0.01028 sec (0 allocations: 0 byte, 0.0% gc time)
  tm2 : 0.067811 sec (0 allocations: 0 byte, 0.0% gc time)
  tm2s: 0.008968 sec (0 allocations: 0 byte, 0.0% gc time)
  tm4 : 0.167808 sec (0 allocations: 0 byte, 0.0% gc time)
  tp2 : 0.0 sec (0 allocations: 0 byte, 0.0% gc time)
  tp2s: 0.0 sec (0 allocations: 0 byte, 0.0% gc time)
  tp4 : 0.0 sec (0 allocations: 0 byte, 0.0% gc time)
calc_wtdll!:   0.496669 sec (49.2 k allocations: 11.133 MB, 0.0% gc time)
calc_wljj!:    0.041903 sec (69 allocations: 1.078 KB, 0.0% gc time)
mult_prefac!:  0.0 sec (0 allocations: 0 byte, 0.0% gc time)
convert:       0.0 sec (0 allocations: 0 byte, 0.0% gc time)
write:         0.03642 sec (0 allocations: 0 byte, 0.0% gc time)
test_rand_2f1: 0.0 sec (0 allocations: 0 byte, 0.0% gc time)
Closing outfile out/MlCache/MlCache.bin...   0.000011 seconds
xi, l=0, nu=0:   0.418703 seconds (556.07 k allocations: 27.070 MiB, 4.36% gc time)
xi, l=0, nu=-2:  0.002559 seconds (144 allocations: 149.563 KiB)
Created 'out/xi.tsv'.
  q=1.1, R=0.6:	  1.055395 seconds (373.06 k allocations: 174.511 MiB, 2.81% gc time)
  q=1.1, R=0.7:	  1.155102 seconds (391.29 k allocations: 182.916 MiB, 1.79% gc time)
  q=1.1, R=0.8:	  1.151243 seconds (383.81 k allocations: 179.466 MiB, 1.84% gc time)
  q=1.1, R=0.9:	  1.223461 seconds (376.40 k allocations: 176.056 MiB, 1.72% gc time)
  q=1.1, R=0.998:	 21.009502 seconds (10.67 M allocations: 831.832 MiB, 0.25% gc time)
  q=1.1, R=1.0:	  0.059155 seconds (12.29 k allocations: 9.129 MiB, 6.50% gc time)

ℓ = 1000
Δℓ = 4
ΔℓRg1 = -4
N = 4096
q = 1.1
kmin = 1.0e-5
kmax = 1000.0
χ0 = 0.001
RR = RR.tsv
ℓmax = ℓmax.bin
f21 = f21.bin
kmin = 1.0e-5
kmax = 1000.0
dlrec    = 4
dlrecRg1 = -4
Output size: 1573632 bytes = 0.0014655590057373047 GiB
Output size: 786816 bytes = 0.0007327795028686523 GiB
Reading 'out/F21EllCache'...   0.001564 seconds (272 allocations: 533.594 KiB)
ellmax: 1002
lmaxcache: 1000
fell[:,1,1] = Complex{Float64}[1.7262928128202118e-224 - 4.2281979352226944e-240im, 1.7282693092099662e-224 - 4.233038955177176e-240im]
ell 1002, elapsed: 8.296966552734375e-5
ell 1001, elapsed: 0.000949859619140625
ell 1000, elapsed: 0.0008890628814697266
ell 999, elapsed: 0.007999181747436523
ell 998, elapsed: 0.008064985275268555
ell 44, elapsed: 0.6697990894317627
ell 43, elapsed: 0.006477832794189453
ell 42, elapsed: 0.005752086639404297
ell 41, elapsed: 0.005864858627319336
ell 40, elapsed: 0.006805896759033203
  0.722570 seconds (4.65 k allocations: 318.469 KiB)
elapsed: 0.007862091064453125
step:          0.665357 sec (0 allocations: 0 byte, 0.0% gc time)
swapping:      0.000578 sec (0 allocations: 0 byte, 0.0% gc time)
calc_Mellell!: 0.001412 sec (0 allocations: 0 byte, 0.0% gc time)
  t0 :  0.000491 sec (0 allocations: 0 byte, 0.0% gc time)
  tm2 : 0.01184 sec (0 allocations: 0 byte, 0.0% gc time)
  tm2s: 0.000348 sec (0 allocations: 0 byte, 0.0% gc time)
  tm4 : 0.033938 sec (0 allocations: 0 byte, 0.0% gc time)
  tp2 : 0.0 sec (0 allocations: 0 byte, 0.0% gc time)
  tp2s: 0.0 sec (0 allocations: 0 byte, 0.0% gc time)
  tp4 : 0.0 sec (0 allocations: 0 byte, 0.0% gc time)
calc_wtdll!:   0.04687 sec (480 allocations: 52.5 KB, 0.0% gc time)
calc_wljj!:    0.001692 sec (1 allocations: 16 byte, 0.0% gc time)
mult_prefac!:  0.0 sec (0 allocations: 0 byte, 0.0% gc time)
convert:       0.0 sec (0 allocations: 0 byte, 0.0% gc time)
write:         0.001353 sec (0 allocations: 0 byte, 0.0% gc time)
test_rand_2f1: 0.0 sec (0 allocations: 0 byte, 0.0% gc time)
Closing outfile out/MlCache/MlCache.bin...   0.002254 seconds
  0.516172 seconds (54 allocations: 67.203 KiB)
make_phi():   0.010892 seconds (80 allocations: 276.297 KiB)
  0.004135 seconds (108 allocations: 5.813 KiB)
tskip:       1.0e-6 sec (0 allocations: 0 byte, 0.0% gc time)
tread:       0.00071 sec (20 allocations: 1.328 KB, 0.0% gc time)
tmultphi:    0.000473 sec (0 allocations: 0 byte, 0.0% gc time)
tbrfft:      0.001703 sec (96 allocations: 4.5 KB, 0.0% gc time)
tmultprefac: 0.001244 sec (0 allocations: 0 byte, 0.0% gc time)
toutfunc:    0.000135 sec (0 allocations: 0 byte, 0.0% gc time)
Created 'out/wl42_jj00.tsv'.
Created 'out/wl42_jj02.tsv'.
   Testing TwoFAST tests passed 
