Julia Version 1.5.0-DEV.3
Commit 53ba0cc3c7 (2020-01-02 23:13 UTC)
Platform Info:
  OS: Linux (x86_64-pc-linux-gnu)
  CPU: Intel(R) Xeon(R) Silver 4114 CPU @ 2.20GHz
  WORD_SIZE: 64
  LIBM: libopenlibm
  LLVM: libLLVM-8.0.1 (ORCJIT, skylake)
Environment:
  JULIA_DEPOT_PATH = ::/usr/local/share/julia

 Resolving package versions...
 Installed Reexport ───────── v0.2.0
 Installed URIParser ──────── v0.4.0
 Installed MKL_jll ────────── v2019.0.117+0
 Installed FFTW ───────────── v1.2.0
 Installed BinaryProvider ─── v0.5.8
 Installed AbstractAlgebra ── v0.7.1
 Installed Nemo ───────────── v0.15.1
 Installed BinDeps ────────── v1.0.0
 Installed AbstractFFTs ───── v0.5.0
 Installed SpecialFunctions ─ v0.8.0
 Installed FFTW_jll ───────── v3.3.9+3
 Installed IntelOpenMP_jll ── v2018.0.3+0
 Installed IncGammaBeta ───── v0.1.0
 Installed TwoFAST ────────── v0.1.0
  Updating `~/.julia/environments/v1.5/Project.toml`
  [0dd23c3e] + TwoFAST v0.1.0
  Updating `~/.julia/environments/v1.5/Manifest.toml`
  [c3fe647b] + AbstractAlgebra v0.7.1
  [621f4979] + AbstractFFTs v0.5.0
  [9e28174c] + BinDeps v1.0.0
  [b99e7846] + BinaryProvider v0.5.8
  [7a1cc6ca] + FFTW v1.2.0
  [f5851436] + FFTW_jll v3.3.9+3
  [5087d2c0] + IncGammaBeta v0.1.0
  [1d5cc7b8] + IntelOpenMP_jll v2018.0.3+0
  [856f044c] + MKL_jll v2019.0.117+0
  [2edaba10] + Nemo v0.15.1
  [189a3867] + Reexport v0.2.0
  [276daf66] + SpecialFunctions v0.8.0
  [0dd23c3e] + TwoFAST v0.1.0
  [30578b45] + URIParser v0.4.0
  [2a0f44e3] + Base64 
  [ade2ca70] + Dates 
  [8bb1440f] + DelimitedFiles 
  [8ba89e20] + Distributed 
  [b77e0a4c] + InteractiveUtils 
  [76f85450] + LibGit2 
  [8f399da3] + Libdl 
  [37e2e46d] + LinearAlgebra 
  [56ddb016] + Logging 
  [d6f4376e] + Markdown 
  [a63ad114] + Mmap 
  [44cfe95a] + Pkg 
  [de0858da] + Printf 
  [3fa0cd96] + REPL 
  [9a3f8284] + Random 
  [ea8e919c] + SHA 
  [9e88b42a] + Serialization 
  [6462fe0b] + Sockets 
  [2f01184e] + SparseArrays 
  [8dfed614] + Test 
  [cf7118a7] + UUIDs 
  [4ec0a83e] + Unicode 
  Building FFTW ────────────→ `~/.julia/packages/FFTW/qqcBj/deps/build.log`
  Updating `/tmp/jl_PQq3pC/Project.toml`
 [no changes]
  Updating `/tmp/jl_PQq3pC/Manifest.toml`
 [no changes]
  Building Nemo ────────────→ `~/.julia/packages/Nemo/qzx0m/deps/build.log`
  Updating `/tmp/jl_4R2eps/Project.toml`
 [no changes]
  Updating `/tmp/jl_4R2eps/Manifest.toml`
 [no changes]
  Building SpecialFunctions → `~/.julia/packages/SpecialFunctions/ne2iw/deps/build.log`
  Updating `/tmp/jl_t6Fdei/Project.toml`
 [no changes]
  Updating `/tmp/jl_t6Fdei/Manifest.toml`
 [no changes]
   Testing TwoFAST
 Installed Dierckx ─ v0.4.1
  Updating `/tmp/jl_0oVhOs/Project.toml`
  [39dd38d3] + Dierckx v0.4.1
  Updating `/tmp/jl_0oVhOs/Manifest.toml`
  [39dd38d3] + Dierckx v0.4.1
  Building Dierckx → `~/.julia/packages/Dierckx/9SY4A/deps/build.log`
  Updating `/tmp/jl_i9g9LP/Project.toml`
 [no changes]
  Updating `/tmp/jl_i9g9LP/Manifest.toml`
 [no changes]
Running sandbox
Status `/tmp/jl_0oVhOs/Project.toml`
  [39dd38d3] Dierckx v0.4.1
  [7a1cc6ca] FFTW v1.2.0
  [5087d2c0] IncGammaBeta v0.1.0
  [2edaba10] Nemo v0.15.1
  [276daf66] SpecialFunctions v0.8.0
  [0dd23c3e] TwoFAST v0.1.0
  [8bb1440f] DelimitedFiles 
  [37e2e46d] LinearAlgebra 
  [56ddb016] Logging 
  [8dfed614] Test 

Welcome to Nemo version 0.15.1

Nemo comes with absolutely no warranty whatsoever


Welcome to Nemo version 0.15.1

Nemo comes with absolutely no warranty whatsoever

Testing ξ(r), ℓ=0, ν=-1 ... passed
Testing ξ(r), ℓ=0, ν=0 ... passed
Testing ξ(r), ℓ=0, ν=1 ... passed
Testing ξ(r), ℓ=0, ν=2 ... passed
Testing ξ(r), ℓ=0, ν=3 ... passed
Testing ξ(r), ℓ=1, ν=0 ... passed
Testing ξ(r), ℓ=1, ν=1 ... passed
Testing ξ(r), ℓ=1, ν=2 ... passed
Testing ξ(r), ℓ=1, ν=3 ... passed
Testing ξ(r), ℓ=2, ν=-1 ... passed
Testing ξ(r), ℓ=2, ν=0 ... passed
Testing ξ(r), ℓ=2, ν=1 ... passed
Testing ξ(r), ℓ=2, ν=2 ... passed
Testing ξ(r), ℓ=2, ν=3 ... passed
Testing ξ(r), ℓ=3, ν=-1 ... passed
Testing ξ(r), ℓ=3, ν=0 ... passed
Testing ξ(r), ℓ=3, ν=1 ... passed
Testing ξ(r), ℓ=3, ν=2 ... passed
Testing ξ(r), ℓ=3, ν=3 ... passed
Testing ξ(r), ℓ=4, ν=-1 ... passed
Testing ξ(r), ℓ=4, ν=0 ... passed
Testing ξ(r), ℓ=4, ν=1 ... passed
Testing ξ(r), ℓ=4, ν=2 ... passed
Testing ξ(r), ℓ=4, ν=3 ... passed
Testing ξ(r) ... passed
Testing ξ′(r) ... passed
Testing ξ″(r) ... passed
Calculating fmax: 
  dlrec    = 4
  dlrecRg1 = -4
  q=1.1, R=1.1:	  5.160497 seconds (1.20 M allocations: 68.016 MiB, 1.27% gc time)

  5.204909 seconds (1.22 M allocations: 69.126 MiB, 1.25% gc time)
ℓ = 1202
Δℓ = 4
ΔℓRg1 = -4
N = 1600
q = 1.1
kmin = 1.0e-5
kmax = 100000.00000000004
χ0 = 0.023029999999999995
RR = RR.tsv
ℓmax = ℓmax.bin
f21 = f21.bin
kmin = 1.0e-5
kmax = 100000.0
dlrec    = 4
dlrecRg1 = -4
Output size: 5741568 bytes = 0.005347251892089844 GiB
Output size: 51264 bytes = 4.774332046508789e-5 GiB
Reading 'out/F21EllCache'...   0.665175 seconds (318.67 k allocations: 16.380 MiB)
ellmax: 1202
lmaxcache: 1202
fell[:,1,1] = Complex{Float64}[3.9583795592771634e-52 - 9.695233714158177e-68im, 3.990121772925759e-52 - 9.772979714843386e-68im]
ell 1202, elapsed: 0.0005679130554199219
ell 1201, elapsed: 2.0900790691375732
ell 1200, elapsed: 0.0007960796356201172
ell 1199, elapsed: 0.0006229877471923828
ell 1198, elapsed: 0.0006310939788818359
ell 1002, elapsed: 0.009501934051513672
ell 1001, elapsed: 0.00049591064453125
ell 1000, elapsed: 0.0008959770202636719
ell 999, elapsed: 0.0005741119384765625
ell 998, elapsed: 0.0005781650543212891
ell 902, elapsed: 0.004992961883544922
ell 901, elapsed: 0.0006170272827148438
ell 900, elapsed: 0.0005519390106201172
ell 899, elapsed: 0.0005919933319091797
ell 898, elapsed: 0.0005960464477539062
ell 802, elapsed: 0.00542902946472168
ell 801, elapsed: 0.0006830692291259766
ell 800, elapsed: 0.0006561279296875
ell 799, elapsed: 0.0007071495056152344
ell 798, elapsed: 0.0005939006805419922
ell 702, elapsed: 0.005053043365478516
ell 701, elapsed: 0.0006270408630371094
ell 700, elapsed: 0.0006129741668701172
ell 699, elapsed: 0.0006160736083984375
ell 698, elapsed: 0.0006070137023925781
ell 602, elapsed: 0.005116939544677734
ell 601, elapsed: 0.0006430149078369141
ell 600, elapsed: 0.0006129741668701172
ell 599, elapsed: 0.0006060600280761719
ell 598, elapsed: 0.0006029605865478516
ell 502, elapsed: 0.005009889602661133
ell 501, elapsed: 0.0005209445953369141
ell 500, elapsed: 0.0005340576171875
ell 499, elapsed: 0.0004820823669433594
ell 498, elapsed: 0.0004818439483642578
ell 402, elapsed: 0.0050830841064453125
ell 401, elapsed: 0.0005609989166259766
ell 400, elapsed: 0.0005471706390380859
ell 399, elapsed: 0.0005631446838378906
ell 398, elapsed: 0.0005440711975097656
ell 302, elapsed: 0.004981040954589844
ell 301, elapsed: 0.0005841255187988281
ell 300, elapsed: 0.0005428791046142578
ell 299, elapsed: 0.0005700588226318359
ell 298, elapsed: 0.0006289482116699219
ell 202, elapsed: 0.0051572322845458984
ell 201, elapsed: 0.0005221366882324219
ell 200, elapsed: 0.0005199909210205078
ell 199, elapsed: 0.0005071163177490234
ell 198, elapsed: 0.0004830360412597656
ell 152, elapsed: 0.002705097198486328
ell 151, elapsed: 0.0004811286926269531
ell 150, elapsed: 0.00047707557678222656
ell 149, elapsed: 0.0004699230194091797
ell 148, elapsed: 0.0004999637603759766
ell 127, elapsed: 0.0017299652099609375
ell 126, elapsed: 0.0005459785461425781
ell 125, elapsed: 0.0004749298095703125
ell 124, elapsed: 0.0004680156707763672
ell 123, elapsed: 0.000469207763671875
ell 114, elapsed: 0.0009968280792236328
ell 113, elapsed: 0.00047087669372558594
ell 112, elapsed: 0.00046706199645996094
ell 111, elapsed: 0.00047016143798828125
ell 110, elapsed: 0.0004699230194091797
ell 102, elapsed: 0.0010020732879638672
ell 101, elapsed: 0.00049591064453125
ell 100, elapsed: 0.0005488395690917969
ell 99, elapsed: 0.0005419254302978516
ell 98, elapsed: 0.0005869865417480469
ell 97, elapsed: 0.0006389617919921875
ell 96, elapsed: 0.0006771087646484375
ell 95, elapsed: 0.0005841255187988281
ell 94, elapsed: 0.0006990432739257812
ell 93, elapsed: 0.0006268024444580078
ell 92, elapsed: 0.0006909370422363281
ell 91, elapsed: 0.0006098747253417969
ell 90, elapsed: 0.0006911754608154297
ell 89, elapsed: 0.0006091594696044922
ell 88, elapsed: 0.0007531642913818359
ell 87, elapsed: 0.0006151199340820312
ell 86, elapsed: 0.0006520748138427734
ell 85, elapsed: 0.0005469322204589844
ell 84, elapsed: 0.0006189346313476562
ell 83, elapsed: 0.0005331039428710938
ell 82, elapsed: 0.0006220340728759766
ell 81, elapsed: 0.0005810260772705078
ell 80, elapsed: 0.0006921291351318359
ell 79, elapsed: 0.0005431175231933594
ell 78, elapsed: 0.0006330013275146484
ell 77, elapsed: 0.0005750656127929688
ell 76, elapsed: 0.0006830692291259766
ell 75, elapsed: 0.0005440711975097656
ell 74, elapsed: 0.0006258487701416016
ell 73, elapsed: 0.0005311965942382812
ell 72, elapsed: 0.0006020069122314453
ell 71, elapsed: 0.0005259513854980469
ell 70, elapsed: 0.0006070137023925781
ell 69, elapsed: 0.0005300045013427734
ell 68, elapsed: 0.0006089210510253906
ell 67, elapsed: 0.0005340576171875
ell 66, elapsed: 0.0006380081176757812
ell 65, elapsed: 0.0005328655242919922
ell 64, elapsed: 0.0006170272827148438
ell 63, elapsed: 0.0005359649658203125
ell 62, elapsed: 0.0006167888641357422
ell 61, elapsed: 0.0006089210510253906
ell 60, elapsed: 0.0007419586181640625
ell 59, elapsed: 0.0005941390991210938
ell 58, elapsed: 0.0006899833679199219
ell 57, elapsed: 0.0006070137023925781
ell 56, elapsed: 0.0007748603820800781
ell 55, elapsed: 0.0006010532379150391
ell 54, elapsed: 0.0006940364837646484
ell 53, elapsed: 0.0005190372467041016
ell 52, elapsed: 0.00061798095703125
ell 51, elapsed: 0.0005478858947753906
ell 50, elapsed: 0.0006368160247802734
ell 49, elapsed: 0.0005218982696533203
ell 48, elapsed: 0.0006549358367919922
ell 47, elapsed: 0.0005719661712646484
ell 46, elapsed: 0.0006728172302246094
ell 45, elapsed: 0.0005860328674316406
ell 44, elapsed: 0.0005998611450195312
ell 43, elapsed: 0.0006380081176757812
ell 42, elapsed: 0.0007500648498535156
ell 41, elapsed: 0.0005450248718261719
ell 40, elapsed: 0.00061798095703125
ell 39, elapsed: 0.0005178451538085938
ell 38, elapsed: 0.0006160736083984375
ell 37, elapsed: 0.000518798828125
ell 36, elapsed: 0.0006010532379150391
ell 35, elapsed: 0.0005190372467041016
ell 34, elapsed: 0.0006120204925537109
ell 33, elapsed: 0.0005171298980712891
ell 32, elapsed: 0.0006051063537597656
ell 31, elapsed: 0.0005159378051757812
ell 30, elapsed: 0.0005991458892822266
ell 29, elapsed: 0.0005369186401367188
ell 28, elapsed: 0.000675201416015625
ell 27, elapsed: 0.0005340576171875
ell 26, elapsed: 0.0005998611450195312
ell 25, elapsed: 0.0005280971527099609
ell 24, elapsed: 0.0006299018859863281
ell 23, elapsed: 0.0006089210510253906
ell 22, elapsed: 0.0006749629974365234
ell 21, elapsed: 0.0005221366882324219
ell 20, elapsed: 0.0006000995635986328
ell 19, elapsed: 0.0005259513854980469
ell 18, elapsed: 0.0006020069122314453
ell 17, elapsed: 0.0005171298980712891
ell 16, elapsed: 0.0006041526794433594
ell 15, elapsed: 0.0005209445953369141
ell 14, elapsed: 0.0006330013275146484
ell 13, elapsed: 0.0005140304565429688
ell 12, elapsed: 0.0005788803100585938
ell 11, elapsed: 0.0005059242248535156
ell 10, elapsed: 0.0005829334259033203
ell 9, elapsed: 0.0005059242248535156
ell 8, elapsed: 0.0006000995635986328
ell 7, elapsed: 0.0005350112915039062
ell 6, elapsed: 0.0005931854248046875
ell 5, elapsed: 0.0005159378051757812
ell 4, elapsed: 0.0005970001220703125
ell 3, elapsed: 0.0005130767822265625
ell 2, elapsed: 0.0006060600280761719
ell 1, elapsed: 0.0005121231079101562
ell 0, elapsed: 0.0006129741668701172
  2.960922 seconds (1.75 M allocations: 85.477 MiB)
elapsed: 0.0007948875427246094
step:          0.739201 sec (402.561 k allocations: 20.278 MB, 0.0% gc time)
swapping:      0.000552 sec (0 allocations: 0 byte, 0.0% gc time)
calc_Mellell!: 0.495073 sec (296.399 k allocations: 14.958 MB, 0.0% gc time)
  t0 :  0.0 sec (0 allocations: 0 byte, 0.0% gc time)
  tm2 : 0.0 sec (0 allocations: 0 byte, 0.0% gc time)
  tm2s: 0.0 sec (0 allocations: 0 byte, 0.0% gc time)
  tm4 : 0.0 sec (0 allocations: 0 byte, 0.0% gc time)
  tp2 : 0.0 sec (0 allocations: 0 byte, 0.0% gc time)
  tp2s: 0.0 sec (0 allocations: 0 byte, 0.0% gc time)
  tp4 : 0.0 sec (0 allocations: 0 byte, 0.0% gc time)
calc_wtdll!:   0.981051 sec (525.859 k allocations: 26.376 MB, 0.0% gc time)
calc_wljj!:    0.003324 sec (6 allocations: 96 byte, 0.0% gc time)
mult_prefac!:  0.0 sec (0 allocations: 0 byte, 0.0% gc time)
convert:       0.0 sec (0 allocations: 0 byte, 0.0% gc time)
write:         0.005162 sec (0 allocations: 0 byte, 0.0% gc time)
test_rand_2f1: 0.0 sec (0 allocations: 0 byte, 0.0% gc time)
Closing outfile out/Ml21-cache.bin...   0.000141 seconds
  1.065392 seconds (8.66 k allocations: 420.969 KiB)
make_phi():   0.013467 seconds (8.20 k allocations: 238.016 KiB)
  0.204371 seconds (121.70 k allocations: 5.903 MiB)
tskip:       2.4e-5 sec (0 allocations: 0 byte, 0.0% gc time)
tread:       0.002253 sec (19 allocations: 2.172 KB, 0.0% gc time)
tmultphi:    0.039029 sec (26.022 k allocations: 1.338 MB, 0.0% gc time)
tbrfft:      0.004712 sec (896 allocations: 42.0 KB, 0.0% gc time)
tmultprefac: 0.003739 sec (0 allocations: 0 byte, 0.0% gc time)
toutfunc:    0.154577 sec (94.108 k allocations: 4.452 MB, 0.0% gc time)
Testing R=1.1 ... passed
Calculating fmax: 
  dlrec    = 4
  dlrecRg1 = -4
  q=1.1, R=1.0:	  0.001733 seconds (4.00 k allocations: 300.375 KiB)

  0.001913 seconds (4.04 k allocations: 335.062 KiB)
ℓ = 1202
Δℓ = 4
ΔℓRg1 = -4
N = 1600
q = 1.1
kmin = 1.0e-5
kmax = 100000.00000000004
χ0 = 0.023029999999999995
RR = RR.tsv
ℓmax = ℓmax.bin
f21 = f21.bin
kmin = 1.0e-5
kmax = 100000.0
dlrec    = 4
dlrecRg1 = -4
Output size: 61465536 bytes = 0.05724424123764038 GiB
Output size: 51264 bytes = 4.774332046508789e-5 GiB
Reading 'out/F21EllCache'...   0.001131 seconds (267 allocations: 84.656 KiB)
ellmax: 1202
lmaxcache: 1202
fell[:,1,1] = Complex{Float64}[809.6031528389767 - 1.9829558194077161e-13im, 0.0 + 0.0im]
ell 1202, elapsed: 4.315376281738281e-5
ell 1201, elapsed: 0.014831066131591797
ell 1200, elapsed: 0.00044798851013183594
ell 1199, elapsed: 0.00043201446533203125
ell 1198, elapsed: 0.0004458427429199219
ell 1197, elapsed: 0.0004949569702148438
ell 1196, elapsed: 0.0005140304565429688
ell 1195, elapsed: 0.0005800724029541016
ell 1194, elapsed: 0.0004661083221435547
ell 1193, elapsed: 0.0005850791931152344
ell 1192, elapsed: 0.00045299530029296875
ell 1191, elapsed: 0.0005800724029541016
ell 1190, elapsed: 0.00048089027404785156
ell 1189, elapsed: 0.0005788803100585938
ell 1188, elapsed: 0.00046706199645996094
ell 1187, elapsed: 0.0005669593811035156
ell 1186, elapsed: 0.0005049705505371094
ell 1185, elapsed: 0.0005648136138916016
ell 1184, elapsed: 0.00047707557678222656
ell 1183, elapsed: 0.0005681514739990234
ell 1182, elapsed: 0.00047898292541503906
ell 1181, elapsed: 0.0005900859832763672
ell 1180, elapsed: 0.0004761219024658203
ell 1179, elapsed: 0.0005970001220703125
ell 1178, elapsed: 0.000492095947265625
ell 1177, elapsed: 0.0005970001220703125
ell 1176, elapsed: 0.00047516822814941406
ell 1175, elapsed: 0.0005710124969482422
ell 1174, elapsed: 0.0004799365997314453
ell 1173, elapsed: 0.0005838871002197266
ell 1172, elapsed: 0.0004949569702148438
ell 1171, elapsed: 0.0005671977996826172
ell 1170, elapsed: 0.0004980564117431641
ell 1169, elapsed: 0.0005660057067871094
ell 1168, elapsed: 0.0004699230194091797
ell 1167, elapsed: 0.0005390644073486328
ell 1166, elapsed: 0.00045800209045410156
ell 1165, elapsed: 0.0005750656127929688
ell 1164, elapsed: 0.0004980564117431641
ell 1163, elapsed: 0.0005660057067871094
ell 1162, elapsed: 0.00047087669372558594
ell 1161, elapsed: 0.0005879402160644531
ell 1160, elapsed: 0.0004930496215820312
ell 1159, elapsed: 0.0005609989166259766
ell 1158, elapsed: 0.0006220340728759766
ell 1157, elapsed: 0.0005919933319091797
ell 1156, elapsed: 0.000469207763671875
ell 1155, elapsed: 0.000579833984375
ell 1154, elapsed: 0.00047206878662109375
ell 1153, elapsed: 0.0005710124969482422
ell 1152, elapsed: 0.0004649162292480469
ell 1151, elapsed: 0.00057220458984375
ell 1150, elapsed: 0.0004780292510986328
ell 1149, elapsed: 0.0005719661712646484
ell 1148, elapsed: 0.0004658699035644531
ell 1147, elapsed: 0.0005598068237304688
ell 1146, elapsed: 0.0004680156707763672
ell 1145, elapsed: 0.0005910396575927734
ell 1144, elapsed: 0.0004909038543701172
ell 1143, elapsed: 0.0005619525909423828
ell 1142, elapsed: 0.0007030963897705078
ell 1141, elapsed: 0.0005629062652587891
ell 1140, elapsed: 0.0004658699035644531
ell 1139, elapsed: 0.0005881786346435547
ell 1138, elapsed: 0.000492095947265625
ell 1137, elapsed: 0.0005829334259033203
ell 1136, elapsed: 0.00047397613525390625
ell 1135, elapsed: 0.0005190372467041016
ell 1134, elapsed: 0.0004119873046875
ell 1133, elapsed: 0.0004899501800537109
ell 1132, elapsed: 0.0003910064697265625
ell 1131, elapsed: 0.0004749298095703125
ell 1130, elapsed: 0.00039196014404296875
ell 1129, elapsed: 0.0005369186401367188
ell 1128, elapsed: 0.0003960132598876953
ell 1127, elapsed: 0.0004940032958984375
ell 1126, elapsed: 0.0003879070281982422
ell 1125, elapsed: 0.0004780292510986328
ell 1124, elapsed: 0.00039005279541015625
ell 1123, elapsed: 0.00047516822814941406
ell 1122, elapsed: 0.00039196014404296875
ell 1121, elapsed: 0.0004818439483642578
ell 1120, elapsed: 0.00039196014404296875
ell 1119, elapsed: 0.0004930496215820312
ell 1118, elapsed: 0.00038886070251464844
ell 1117, elapsed: 0.00047588348388671875
ell 1116, elapsed: 0.00039196014404296875
ell 1115, elapsed: 0.0004811286926269531
ell 1114, elapsed: 0.0003840923309326172
ell 1113, elapsed: 0.0004730224609375
ell 1112, elapsed: 0.0003910064697265625
ell 1111, elapsed: 0.0004718303680419922
ell 1110, elapsed: 0.00040912628173828125
ell 1109, elapsed: 0.0004889965057373047
ell 1108, elapsed: 0.00039696693420410156
ell 1107, elapsed: 0.00047397613525390625
ell 1106, elapsed: 0.0003859996795654297
ell 1105, elapsed: 0.00047707557678222656
ell 1104, elapsed: 0.00038886070251464844
ell 1103, elapsed: 0.00047516822814941406
ell 1102, elapsed: 0.0004050731658935547
ell 1101, elapsed: 0.00047588348388671875
ell 1100, elapsed: 0.0003979206085205078
ell 1099, elapsed: 0.00047588348388671875
ell 1098, elapsed: 0.00038695335388183594
ell 1097, elapsed: 0.0004818439483642578
ell 1096, elapsed: 0.0003898143768310547
ell 1095, elapsed: 0.00046896934509277344
ell 1094, elapsed: 0.0003829002380371094
ell 1093, elapsed: 0.00049591064453125
ell 1092, elapsed: 0.00038886070251464844
ell 1091, elapsed: 0.00047898292541503906
ell 1090, elapsed: 0.0003910064697265625
ell 1089, elapsed: 0.00047397613525390625
ell 1088, elapsed: 0.00039696693420410156
ell 1087, elapsed: 0.0004749298095703125
ell 1086, elapsed: 0.0003848075866699219
ell 1085, elapsed: 0.0004949569702148438
ell 1084, elapsed: 0.00039386749267578125
ell 1083, elapsed: 0.0005781650543212891
ell 1082, elapsed: 0.0004489421844482422
ell 1081, elapsed: 0.0006320476531982422
ell 1080, elapsed: 0.0005021095275878906
ell 1079, elapsed: 0.0006120204925537109
ell 1078, elapsed: 0.0005140304565429688
ell 1077, elapsed: 0.00047397613525390625
ell 1076, elapsed: 0.0003941059112548828
ell 1075, elapsed: 0.0005681514739990234
ell 1074, elapsed: 0.00045800209045410156
ell 1073, elapsed: 0.0005290508270263672
ell 1072, elapsed: 0.0004558563232421875
ell 1071, elapsed: 0.0005559921264648438
ell 1070, elapsed: 0.0004489421844482422
ell 1069, elapsed: 0.0005290508270263672
ell 1068, elapsed: 0.0006220340728759766
ell 1067, elapsed: 0.0005319118499755859
ell 1066, elapsed: 0.0005819797515869141
ell 1065, elapsed: 0.0005888938903808594
ell 1064, elapsed: 0.0004799365997314453
ell 1063, elapsed: 0.0005490779876708984
ell 1062, elapsed: 0.00046896934509277344
ell 1061, elapsed: 0.0005691051483154297
ell 1060, elapsed: 0.0004680156707763672
ell 1059, elapsed: 0.0005550384521484375
ell 1058, elapsed: 0.00047397613525390625
ell 1057, elapsed: 0.0005590915679931641
ell 1056, elapsed: 0.0004620552062988281
ell 1055, elapsed: 0.0005679130554199219
ell 1054, elapsed: 0.00047206878662109375
ell 1053, elapsed: 0.0005528926849365234
ell 1052, elapsed: 0.0004570484161376953
ell 1051, elapsed: 0.0005669593811035156
ell 1050, elapsed: 0.00045490264892578125
ell 1049, elapsed: 0.0005478858947753906
ell 1048, elapsed: 0.000453948974609375
ell 1047, elapsed: 0.0005440711975097656
ell 1046, elapsed: 0.00048089027404785156
ell 1045, elapsed: 0.0005648136138916016
ell 1044, elapsed: 0.00045990943908691406
ell 1043, elapsed: 0.0005540847778320312
ell 1042, elapsed: 0.0004429817199707031
ell 1041, elapsed: 0.0005629062652587891
ell 1040, elapsed: 0.0004398822784423828
ell 1039, elapsed: 0.0005359649658203125
ell 1038, elapsed: 0.00045108795166015625
ell 1037, elapsed: 0.0005397796630859375
ell 1036, elapsed: 0.0005779266357421875
ell 1035, elapsed: 0.0006270408630371094
ell 1034, elapsed: 0.0005688667297363281
ell 1033, elapsed: 0.0005781650543212891
ell 1032, elapsed: 0.0004220008850097656
ell 1031, elapsed: 0.0004911422729492188
ell 1030, elapsed: 0.0003960132598876953
ell 1029, elapsed: 0.0005018711090087891
ell 1028, elapsed: 0.0005049705505371094
ell 1027, elapsed: 0.0007369518280029297
ell 1026, elapsed: 0.00043511390686035156
ell 1025, elapsed: 0.0004839897155761719
ell 1024, elapsed: 0.00039577484130859375
ell 1023, elapsed: 0.0006229877471923828
ell 1022, elapsed: 0.0004811286926269531
ell 1021, elapsed: 0.0004839897155761719
ell 1020, elapsed: 0.00039696693420410156
ell 1019, elapsed: 0.0005640983581542969
ell 1018, elapsed: 0.00038814544677734375
ell 1017, elapsed: 0.0004839897155761719
ell 1016, elapsed: 0.00038695335388183594
ell 1015, elapsed: 0.00046896934509277344
ell 1014, elapsed: 0.0003910064697265625
ell 1013, elapsed: 0.0004820823669433594
ell 1012, elapsed: 0.0004730224609375
ell 1011, elapsed: 0.0006520748138427734
ell 1010, elapsed: 0.00038814544677734375
ell 1009, elapsed: 0.0005640983581542969
ell 1008, elapsed: 0.0006000995635986328
ell 1007, elapsed: 0.0006389617919921875
ell 1006, elapsed: 0.0003829002380371094
ell 1005, elapsed: 0.00046706199645996094
ell 1004, elapsed: 0.0006170272827148438
ell 1003, elapsed: 0.0006449222564697266
ell 1002, elapsed: 0.0005638599395751953
ell 1001, elapsed: 0.0005550384521484375
ell 1000, elapsed: 0.00041294097900390625
ell 999, elapsed: 0.0004868507385253906
ell 998, elapsed: 0.00038695335388183594
ell 997, elapsed: 0.0004699230194091797
ell 996, elapsed: 0.0003859996795654297
ell 995, elapsed: 0.0004680156707763672
ell 994, elapsed: 0.00038695335388183594
ell 993, elapsed: 0.00047397613525390625
ell 992, elapsed: 0.00041222572326660156
ell 991, elapsed: 0.0004718303680419922
ell 990, elapsed: 0.000392913818359375
ell 989, elapsed: 0.0005040168762207031
ell 988, elapsed: 0.0003979206085205078
ell 987, elapsed: 0.0004980564117431641
ell 986, elapsed: 0.0004010200500488281
ell 985, elapsed: 0.00047898292541503906
ell 984, elapsed: 0.00037789344787597656
ell 983, elapsed: 0.0006570816040039062
ell 982, elapsed: 0.0004470348358154297
ell 981, elapsed: 0.0006711483001708984
ell 980, elapsed: 0.0005249977111816406
ell 979, elapsed: 0.00047206878662109375
ell 978, elapsed: 0.0004839897155761719
ell 977, elapsed: 0.0007538795471191406
ell 976, elapsed: 0.0005121231079101562
ell 975, elapsed: 0.0007231235504150391
ell 974, elapsed: 0.0006139278411865234
ell 973, elapsed: 0.0007059574127197266
ell 972, elapsed: 0.0006000995635986328
ell 971, elapsed: 0.0007469654083251953
ell 970, elapsed: 0.0006048679351806641
ell 969, elapsed: 0.0007309913635253906
ell 968, elapsed: 0.000431060791015625
ell 967, elapsed: 0.00045490264892578125
ell 966, elapsed: 0.00038695335388183594
ell 965, elapsed: 0.0004699230194091797
ell 964, elapsed: 0.0005819797515869141
ell 963, elapsed: 0.0007379055023193359
ell 962, elapsed: 0.0006170272827148438
ell 961, elapsed: 0.0006551742553710938
ell 960, elapsed: 0.0004520416259765625
ell 959, elapsed: 0.0005741119384765625
ell 958, elapsed: 0.0004379749298095703
ell 957, elapsed: 0.0005080699920654297
ell 956, elapsed: 0.0004611015319824219
ell 955, elapsed: 0.0005071163177490234
ell 954, elapsed: 0.0004050731658935547
ell 953, elapsed: 0.0004951953887939453
ell 952, elapsed: 0.0003910064697265625
ell 951, elapsed: 0.0004761219024658203
ell 950, elapsed: 0.0004019737243652344
ell 949, elapsed: 0.0004820823669433594
ell 948, elapsed: 0.000392913818359375
ell 947, elapsed: 0.0004818439483642578
ell 946, elapsed: 0.0003910064697265625
ell 945, elapsed: 0.0004818439483642578
ell 944, elapsed: 0.00039386749267578125
ell 943, elapsed: 0.00047516822814941406
ell 942, elapsed: 0.00040912628173828125
ell 941, elapsed: 0.0004799365997314453
ell 940, elapsed: 0.0003879070281982422
ell 939, elapsed: 0.0004820823669433594
ell 938, elapsed: 0.0005140304565429688
ell 937, elapsed: 0.0006008148193359375
ell 936, elapsed: 0.0003840923309326172
ell 935, elapsed: 0.00047278404235839844
ell 934, elapsed: 0.0005152225494384766
ell 933, elapsed: 0.0006010532379150391
ell 932, elapsed: 0.00038695335388183594
ell 931, elapsed: 0.0006182193756103516
ell 930, elapsed: 0.0005230903625488281
ell 929, elapsed: 0.0005919933319091797
ell 928, elapsed: 0.0005090236663818359
ell 927, elapsed: 0.0006239414215087891
ell 926, elapsed: 0.0004851818084716797
ell 925, elapsed: 0.00047206878662109375
ell 924, elapsed: 0.00039505958557128906
ell 923, elapsed: 0.0004749298095703125
ell 922, elapsed: 0.00039196014404296875
ell 921, elapsed: 0.00047397613525390625
ell 920, elapsed: 0.0003910064697265625
ell 919, elapsed: 0.0004870891571044922
ell 918, elapsed: 0.0003819465637207031
ell 917, elapsed: 0.0004730224609375
ell 916, elapsed: 0.0005371570587158203
ell 915, elapsed: 0.0005679130554199219
ell 914, elapsed: 0.00039196014404296875
ell 913, elapsed: 0.00047278404235839844
ell 912, elapsed: 0.0005218982696533203
ell 911, elapsed: 0.0005671977996826172
ell 910, elapsed: 0.00036597251892089844
ell 909, elapsed: 0.0004451274871826172
ell 908, elapsed: 0.0004918575286865234
ell 907, elapsed: 0.0007021427154541016
ell 906, elapsed: 0.00045990943908691406
ell 905, elapsed: 0.0004401206970214844
ell 904, elapsed: 0.0003788471221923828
ell 903, elapsed: 0.0005388259887695312
ell 902, elapsed: 0.00039386749267578125
ell 901, elapsed: 0.0004799365997314453
ell 900, elapsed: 0.0003840923309326172
ell 899, elapsed: 0.00048279762268066406
ell 898, elapsed: 0.0003848075866699219
ell 897, elapsed: 0.0005221366882324219
ell 896, elapsed: 0.0003981590270996094
ell 895, elapsed: 0.0005240440368652344
ell 894, elapsed: 0.0004558563232421875
ell 893, elapsed: 0.0005331039428710938
ell 892, elapsed: 0.00044798851013183594
ell 891, elapsed: 0.0004749298095703125
ell 890, elapsed: 0.00047397613525390625
ell 889, elapsed: 0.0005681514739990234
ell 888, elapsed: 0.0004889965057373047
ell 887, elapsed: 0.0005819797515869141
ell 886, elapsed: 0.00048804283142089844
ell 885, elapsed: 0.0005991458892822266
ell 884, elapsed: 0.0004999637603759766
ell 883, elapsed: 0.0005738735198974609
ell 882, elapsed: 0.0004699230194091797
ell 881, elapsed: 0.0007550716400146484
ell 880, elapsed: 0.0006768703460693359
ell 879, elapsed: 0.0005881786346435547
ell 878, elapsed: 0.00047588348388671875
ell 877, elapsed: 0.0005741119384765625
ell 876, elapsed: 0.00048089027404785156
ell 875, elapsed: 0.0005781650543212891
ell 874, elapsed: 0.0004990100860595703
ell 873, elapsed: 0.0005049705505371094
ell 872, elapsed: 0.0004100799560546875
ell 871, elapsed: 0.0004839897155761719
ell 870, elapsed: 0.0004050731658935547
ell 869, elapsed: 0.0004849433898925781
ell 868, elapsed: 0.0003948211669921875
ell 867, elapsed: 0.0004949569702148438
ell 866, elapsed: 0.00041294097900390625
ell 865, elapsed: 0.0004830360412597656
ell 864, elapsed: 0.0003910064697265625
ell 863, elapsed: 0.00047898292541503906
ell 862, elapsed: 0.00038814544677734375
ell 861, elapsed: 0.000537872314453125
ell 860, elapsed: 0.00041985511779785156
ell 859, elapsed: 0.0006000995635986328
ell 858, elapsed: 0.0004839897155761719
ell 857, elapsed: 0.0005080699920654297
ell 856, elapsed: 0.00043702125549316406
ell 855, elapsed: 0.0005140304565429688
ell 854, elapsed: 0.00042819976806640625
ell 853, elapsed: 0.0005030632019042969
ell 852, elapsed: 0.00041103363037109375
ell 851, elapsed: 0.0005130767822265625
ell 850, elapsed: 0.0004858970642089844
ell 849, elapsed: 0.0005621910095214844
ell 848, elapsed: 0.0004851818084716797
ell 847, elapsed: 0.0005860328674316406
ell 846, elapsed: 0.0004940032958984375
ell 845, elapsed: 0.0005669593811035156
ell 844, elapsed: 0.0005090236663818359
ell 843, elapsed: 0.0005910396575927734
ell 842, elapsed: 0.0004019737243652344
ell 841, elapsed: 0.0005178451538085938
ell 840, elapsed: 0.00040793418884277344
ell 839, elapsed: 0.0006380081176757812
ell 838, elapsed: 0.0005030632019042969
ell 837, elapsed: 0.0005640983581542969
ell 836, elapsed: 0.0004918575286865234
ell 835, elapsed: 0.0005970001220703125
ell 834, elapsed: 0.00048613548278808594
ell 833, elapsed: 0.0005719661712646484
ell 832, elapsed: 0.00047779083251953125
ell 831, elapsed: 0.0005750656127929688
ell 830, elapsed: 0.0004899501800537109
ell 829, elapsed: 0.0005919933319091797
ell 828, elapsed: 0.0004680156707763672
ell 827, elapsed: 0.0005970001220703125
ell 826, elapsed: 0.0005600452423095703
ell 825, elapsed: 0.0005650520324707031
ell 824, elapsed: 0.0006508827209472656
ell 823, elapsed: 0.0006029605865478516
ell 822, elapsed: 0.00047707557678222656
ell 821, elapsed: 0.0006508827209472656
ell 820, elapsed: 0.0007061958312988281
ell 819, elapsed: 0.0005629062652587891
ell 818, elapsed: 0.0005469322204589844
ell 817, elapsed: 0.0005810260772705078
ell 816, elapsed: 0.0004911422729492188
ell 815, elapsed: 0.0005710124969482422
ell 814, elapsed: 0.0004899501800537109
ell 813, elapsed: 0.000579833984375
ell 812, elapsed: 0.0004940032958984375
ell 811, elapsed: 0.0005941390991210938
ell 810, elapsed: 0.0004010200500488281
ell 809, elapsed: 0.0005190372467041016
ell 808, elapsed: 0.00045299530029296875
ell 807, elapsed: 0.0005259513854980469
ell 806, elapsed: 0.00043201446533203125
ell 805, elapsed: 0.0005209445953369141
ell 804, elapsed: 0.0005609989166259766
ell 803, elapsed: 0.0006182193756103516
ell 802, elapsed: 0.00043487548828125
ell 801, elapsed: 0.0005240440368652344
ell 800, elapsed: 0.00043487548828125
ell 799, elapsed: 0.000514984130859375
ell 798, elapsed: 0.0004360675811767578
ell 797, elapsed: 0.0005228519439697266
ell 796, elapsed: 0.00044798851013183594
ell 795, elapsed: 0.0005168914794921875
ell 794, elapsed: 0.0004410743713378906
ell 793, elapsed: 0.0005230903625488281
ell 792, elapsed: 0.0004258155822753906
ell 791, elapsed: 0.0005068778991699219
ell 790, elapsed: 0.0004329681396484375
ell 789, elapsed: 0.0005140304565429688
ell 788, elapsed: 0.00044608116149902344
ell 787, elapsed: 0.0005202293395996094
ell 786, elapsed: 0.0005948543548583984
ell 785, elapsed: 0.0005939006805419922
ell 784, elapsed: 0.0006132125854492188
ell 783, elapsed: 0.0006511211395263672
ell 782, elapsed: 0.0005900859832763672
ell 781, elapsed: 0.0008158683776855469
ell 780, elapsed: 0.0006709098815917969
ell 779, elapsed: 0.0008208751678466797
ell 778, elapsed: 0.0006160736083984375
ell 777, elapsed: 0.0008301734924316406
ell 776, elapsed: 0.0005061626434326172
ell 775, elapsed: 0.0006520748138427734
ell 774, elapsed: 0.0005152225494384766
ell 773, elapsed: 0.000659942626953125
ell 772, elapsed: 0.0005190372467041016
ell 771, elapsed: 0.0007607936859130859
ell 770, elapsed: 0.0007030963897705078
ell 769, elapsed: 0.0006029605865478516
ell 768, elapsed: 0.0004248619079589844
ell 767, elapsed: 0.0006620883941650391
ell 766, elapsed: 0.0006430149078369141
ell 765, elapsed: 0.0008060932159423828
ell 764, elapsed: 0.0006668567657470703
ell 763, elapsed: 0.0006589889526367188
ell 762, elapsed: 0.0005869865417480469
ell 761, elapsed: 0.0006229877471923828
ell 760, elapsed: 0.0006420612335205078
ell 759, elapsed: 0.0007920265197753906
ell 758, elapsed: 0.0005490779876708984
ell 757, elapsed: 0.0005199909210205078
ell 756, elapsed: 0.0004329681396484375
ell 755, elapsed: 0.0005190372467041016
ell 754, elapsed: 0.0006139278411865234
ell 753, elapsed: 0.0006289482116699219
ell 752, elapsed: 0.0005309581756591797
ell 751, elapsed: 0.0006132125854492188
ell 750, elapsed: 0.000698089599609375
ell 749, elapsed: 0.0005650520324707031
ell 748, elapsed: 0.0006308555603027344
ell 747, elapsed: 0.0007979869842529297
ell 746, elapsed: 0.0004870891571044922
ell 745, elapsed: 0.0008039474487304688
ell 744, elapsed: 0.0006568431854248047
ell 743, elapsed: 0.0008480548858642578
ell 742, elapsed: 0.0007278919219970703
ell 741, elapsed: 0.0005660057067871094
ell 740, elapsed: 0.0004930496215820312
ell 739, elapsed: 0.000823974609375
ell 738, elapsed: 0.0004439353942871094
ell 737, elapsed: 0.0004811286926269531
ell 736, elapsed: 0.0005259513854980469
ell 735, elapsed: 0.0006530284881591797
ell 734, elapsed: 0.0004589557647705078
ell 733, elapsed: 0.0005779266357421875
ell 732, elapsed: 0.00047278404235839844
ell 731, elapsed: 0.0005490779876708984
ell 730, elapsed: 0.0004658699035644531
ell 729, elapsed: 0.0005640983581542969
ell 728, elapsed: 0.0005769729614257812
ell 727, elapsed: 0.0008440017700195312
ell 726, elapsed: 0.0004849433898925781
ell 725, elapsed: 0.0005729198455810547
ell 724, elapsed: 0.0004839897155761719
ell 723, elapsed: 0.0005669593811035156
ell 722, elapsed: 0.0004742145538330078
ell 721, elapsed: 0.0005769729614257812
ell 720, elapsed: 0.0005419254302978516
ell 719, elapsed: 0.0005791187286376953
ell 718, elapsed: 0.00042700767517089844
ell 717, elapsed: 0.0004990100860595703
ell 716, elapsed: 0.0004119873046875
ell 715, elapsed: 0.0005269050598144531
ell 714, elapsed: 0.0004100799560546875
ell 713, elapsed: 0.0005128383636474609
ell 712, elapsed: 0.0004119873046875
ell 711, elapsed: 0.0005030632019042969
ell 710, elapsed: 0.0004150867462158203
ell 709, elapsed: 0.0005970001220703125
ell 708, elapsed: 0.00047516822814941406
ell 707, elapsed: 0.0005199909210205078
ell 706, elapsed: 0.00047516822814941406
ell 705, elapsed: 0.0005550384521484375
ell 704, elapsed: 0.00045680999755859375
ell 703, elapsed: 0.0005419254302978516
ell 702, elapsed: 0.000453948974609375
ell 701, elapsed: 0.0005548000335693359
ell 700, elapsed: 0.0004680156707763672
ell 699, elapsed: 0.000514984130859375
ell 698, elapsed: 0.0004589557647705078
ell 697, elapsed: 0.0005397796630859375
ell 696, elapsed: 0.00046181678771972656
ell 695, elapsed: 0.006078004837036133
ell 694, elapsed: 0.000576019287109375
ell 693, elapsed: 0.0005991458892822266
ell 692, elapsed: 0.0005757808685302734
ell 691, elapsed: 0.000514984130859375
ell 690, elapsed: 0.0004169940948486328
ell 689, elapsed: 0.0005040168762207031
ell 688, elapsed: 0.0004889965057373047
ell 687, elapsed: 0.0006330013275146484
ell 686, elapsed: 0.0004200935363769531
ell 685, elapsed: 0.0007028579711914062
ell 684, elapsed: 0.00046181678771972656
ell 683, elapsed: 0.0005080699920654297
ell 682, elapsed: 0.0004169940948486328
ell 681, elapsed: 0.0004999637603759766
ell 680, elapsed: 0.0004169940948486328
ell 679, elapsed: 0.0005040168762207031
ell 678, elapsed: 0.000514984130859375
ell 677, elapsed: 0.0007588863372802734
ell 676, elapsed: 0.00040411949157714844
ell 675, elapsed: 0.0005128383636474609
ell 674, elapsed: 0.00041484832763671875
ell 673, elapsed: 0.0004971027374267578
ell 672, elapsed: 0.0004169940948486328
ell 671, elapsed: 0.0005211830139160156
ell 670, elapsed: 0.0004208087921142578
ell 669, elapsed: 0.0005090236663818359
ell 668, elapsed: 0.0004189014434814453
ell 667, elapsed: 0.0005078315734863281
ell 666, elapsed: 0.0004220008850097656
ell 665, elapsed: 0.0005078315734863281
ell 664, elapsed: 0.00043892860412597656
ell 663, elapsed: 0.0005009174346923828
ell 662, elapsed: 0.0004169940948486328
ell 661, elapsed: 0.0006859302520751953
ell 660, elapsed: 0.0004761219024658203
ell 659, elapsed: 0.0005130767822265625
ell 658, elapsed: 0.0004241466522216797
ell 657, elapsed: 0.0006520748138427734
ell 656, elapsed: 0.00047397613525390625
ell 655, elapsed: 0.0005090236663818359
ell 654, elapsed: 0.00042891502380371094
ell 653, elapsed: 0.0004990100860595703
ell 652, elapsed: 0.00041103363037109375
ell 651, elapsed: 0.0004980564117431641
ell 650, elapsed: 0.00043082237243652344
ell 649, elapsed: 0.0005061626434326172
ell 648, elapsed: 0.0004181861877441406
ell 647, elapsed: 0.0004990100860595703
ell 646, elapsed: 0.0004189014434814453
ell 645, elapsed: 0.0006420612335205078
ell 644, elapsed: 0.00046896934509277344
ell 643, elapsed: 0.0005319118499755859
ell 642, elapsed: 0.0004200935363769531
ell 641, elapsed: 0.0005049705505371094
ell 640, elapsed: 0.00042510032653808594
ell 639, elapsed: 0.0004999637603759766
ell 638, elapsed: 0.0004210472106933594
ell 637, elapsed: 0.000514984130859375
ell 636, elapsed: 0.0004100799560546875
ell 635, elapsed: 0.0005180835723876953
ell 634, elapsed: 0.0004150867462158203
ell 633, elapsed: 0.000514984130859375
ell 632, elapsed: 0.0004258155822753906
ell 631, elapsed: 0.0006630420684814453
ell 630, elapsed: 0.0004420280456542969
ell 629, elapsed: 0.0005159378051757812
ell 628, elapsed: 0.0004220008850097656
ell 627, elapsed: 0.000492095947265625
ell 626, elapsed: 0.00040984153747558594
ell 625, elapsed: 0.0005009174346923828
ell 624, elapsed: 0.0004401206970214844
ell 623, elapsed: 0.0005080699920654297
ell 622, elapsed: 0.0004220008850097656
ell 621, elapsed: 0.0004940032958984375
ell 620, elapsed: 0.0006079673767089844
ell 619, elapsed: 0.0007441043853759766
ell 618, elapsed: 0.0006520748138427734
ell 617, elapsed: 0.0006639957427978516
ell 616, elapsed: 0.00042891502380371094
ell 615, elapsed: 0.0007200241088867188
ell 614, elapsed: 0.0005240440368652344
ell 613, elapsed: 0.0007100105285644531
ell 612, elapsed: 0.0005660057067871094
ell 611, elapsed: 0.0005359649658203125
ell 610, elapsed: 0.00041604042053222656
ell 609, elapsed: 0.0005140304565429688
ell 608, elapsed: 0.0004150867462158203
ell 607, elapsed: 0.0005049705505371094
ell 606, elapsed: 0.00041604042053222656
ell 605, elapsed: 0.0005068778991699219
ell 604, elapsed: 0.0004210472106933594
ell 603, elapsed: 0.000514984130859375
ell 602, elapsed: 0.0004131793975830078
ell 601, elapsed: 0.0005099773406982422
ell 600, elapsed: 0.00041604042053222656
ell 599, elapsed: 0.0004940032958984375
ell 598, elapsed: 0.0004260540008544922
ell 597, elapsed: 0.0005049705505371094
ell 596, elapsed: 0.0004169940948486328
ell 595, elapsed: 0.0005049705505371094
ell 594, elapsed: 0.00042319297790527344
ell 593, elapsed: 0.000518798828125
ell 592, elapsed: 0.0004220008850097656
ell 591, elapsed: 0.0005018711090087891
ell 590, elapsed: 0.00041794776916503906
ell 589, elapsed: 0.0005059242248535156
ell 588, elapsed: 0.0004220008850097656
ell 587, elapsed: 0.00051116943359375
ell 586, elapsed: 0.0004329681396484375
ell 585, elapsed: 0.00051116943359375
ell 584, elapsed: 0.0005400180816650391
ell 583, elapsed: 0.0006649494171142578
ell 582, elapsed: 0.0004470348358154297
ell 581, elapsed: 0.0005061626434326172
ell 580, elapsed: 0.00040912628173828125
ell 579, elapsed: 0.0005359649658203125
ell 578, elapsed: 0.00041413307189941406
ell 577, elapsed: 0.000492095947265625
ell 576, elapsed: 0.0004100799560546875
ell 575, elapsed: 0.0005099773406982422
ell 574, elapsed: 0.0004208087921142578
ell 573, elapsed: 0.0007100105285644531
ell 572, elapsed: 0.0004189014434814453
ell 571, elapsed: 0.0005109310150146484
ell 570, elapsed: 0.0004181861877441406
ell 569, elapsed: 0.0005118846893310547
ell 568, elapsed: 0.00041484832763671875
ell 567, elapsed: 0.0005099773406982422
ell 566, elapsed: 0.0004131793975830078
ell 565, elapsed: 0.0005140304565429688
ell 564, elapsed: 0.0005810260772705078
ell 563, elapsed: 0.0006229877471923828
ell 562, elapsed: 0.0007269382476806641
ell 561, elapsed: 0.0005700588226318359
ell 560, elapsed: 0.0004839897155761719
ell 559, elapsed: 0.0005838871002197266
ell 558, elapsed: 0.00046706199645996094
ell 557, elapsed: 0.0008590221405029297
ell 556, elapsed: 0.0007560253143310547
ell 555, elapsed: 0.0005199909210205078
ell 554, elapsed: 0.0004839897155761719
ell 553, elapsed: 0.0007750988006591797
ell 552, elapsed: 0.00041103363037109375
ell 551, elapsed: 0.0008020401000976562
ell 550, elapsed: 0.0004119873046875
ell 549, elapsed: 0.0008440017700195312
ell 548, elapsed: 0.0005080699920654297
ell 547, elapsed: 0.0006909370422363281
ell 546, elapsed: 0.0005898475646972656
ell 545, elapsed: 0.0005590915679931641
ell 544, elapsed: 0.0004200935363769531
ell 543, elapsed: 0.000514984130859375
ell 542, elapsed: 0.00041794776916503906
ell 541, elapsed: 0.0005130767822265625
ell 540, elapsed: 0.0004220008850097656
ell 539, elapsed: 0.0005030632019042969
ell 538, elapsed: 0.0005900859832763672
ell 537, elapsed: 0.0005581378936767578
ell 536, elapsed: 0.00042319297790527344
ell 535, elapsed: 0.0004999637603759766
ell 534, elapsed: 0.0004131793975830078
ell 533, elapsed: 0.0004990100860595703
ell 532, elapsed: 0.00041294097900390625
ell 531, elapsed: 0.0005190372467041016
ell 530, elapsed: 0.0004248619079589844
ell 529, elapsed: 0.0005078315734863281
ell 528, elapsed: 0.0004119873046875
ell 527, elapsed: 0.0004978179931640625
ell 526, elapsed: 0.00041294097900390625
ell 525, elapsed: 0.0005021095275878906
ell 524, elapsed: 0.00042510032653808594
ell 523, elapsed: 0.0005159378051757812
ell 522, elapsed: 0.0004181861877441406
ell 521, elapsed: 0.0004999637603759766
ell 520, elapsed: 0.0004200935363769531
ell 519, elapsed: 0.0004858970642089844
ell 518, elapsed: 0.00039696693420410156
ell 517, elapsed: 0.00047087669372558594
ell 516, elapsed: 0.00039196014404296875
ell 515, elapsed: 0.0005409717559814453
ell 514, elapsed: 0.0003948211669921875
ell 513, elapsed: 0.00047588348388671875
ell 512, elapsed: 0.0004029273986816406
ell 511, elapsed: 0.0004780292510986328
ell 510, elapsed: 0.0003981590270996094
ell 509, elapsed: 0.0004839897155761719
ell 508, elapsed: 0.0003960132598876953
ell 507, elapsed: 0.0004899501800537109
ell 506, elapsed: 0.0003941059112548828
ell 505, elapsed: 0.0004918575286865234
ell 504, elapsed: 0.00039505958557128906
ell 503, elapsed: 0.00048613548278808594
ell 502, elapsed: 0.0003879070281982422
ell 501, elapsed: 0.0004851818084716797
ell 500, elapsed: 0.00039696693420410156
ell 499, elapsed: 0.00047707557678222656
ell 498, elapsed: 0.0003981590270996094
ell 497, elapsed: 0.00047707557678222656
ell 496, elapsed: 0.00039315223693847656
ell 495, elapsed: 0.0004909038543701172
ell 494, elapsed: 0.00038886070251464844
ell 493, elapsed: 0.0004730224609375
ell 492, elapsed: 0.000392913818359375
ell 491, elapsed: 0.0004799365997314453
ell 490, elapsed: 0.00040793418884277344
ell 489, elapsed: 0.00047898292541503906
ell 488, elapsed: 0.00039386749267578125
ell 487, elapsed: 0.00047588348388671875
ell 486, elapsed: 0.0003910064697265625
ell 485, elapsed: 0.0004928112030029297
ell 484, elapsed: 0.00039887428283691406
ell 483, elapsed: 0.0004830360412597656
ell 482, elapsed: 0.00039005279541015625
ell 481, elapsed: 0.0005009174346923828
ell 480, elapsed: 0.0004010200500488281
ell 479, elapsed: 0.0004901885986328125
ell 478, elapsed: 0.00039315223693847656
ell 477, elapsed: 0.0004818439483642578
ell 476, elapsed: 0.0004031658172607422
ell 475, elapsed: 0.0004889965057373047
ell 474, elapsed: 0.0004000663757324219
ell 473, elapsed: 0.0004901885986328125
ell 472, elapsed: 0.0003941059112548828
ell 471, elapsed: 0.0004889965057373047
ell 470, elapsed: 0.0004000663757324219
ell 469, elapsed: 0.0004799365997314453
ell 468, elapsed: 0.00039005279541015625
ell 467, elapsed: 0.00047397613525390625
ell 466, elapsed: 0.0004050731658935547
ell 465, elapsed: 0.0005030632019042969
ell 464, elapsed: 0.00039887428283691406
ell 463, elapsed: 0.0004749298095703125
ell 462, elapsed: 0.00039696693420410156
ell 461, elapsed: 0.0004820823669433594
ell 460, elapsed: 0.0003848075866699219
ell 459, elapsed: 0.00048279762268066406
ell 458, elapsed: 0.00039696693420410156
ell 457, elapsed: 0.0004780292510986328
ell 456, elapsed: 0.0004138946533203125
ell 455, elapsed: 0.00048804283142089844
ell 454, elapsed: 0.00038886070251464844
ell 453, elapsed: 0.0006730556488037109
ell 452, elapsed: 0.00043702125549316406
ell 451, elapsed: 0.0004839897155761719
ell 450, elapsed: 0.00039696693420410156
ell 449, elapsed: 0.0004730224609375
ell 448, elapsed: 0.00040793418884277344
ell 447, elapsed: 0.0004849433898925781
ell 446, elapsed: 0.0005140304565429688
ell 445, elapsed: 0.0005860328674316406
ell 444, elapsed: 0.00039315223693847656
ell 443, elapsed: 0.0006449222564697266
ell 442, elapsed: 0.0005040168762207031
ell 441, elapsed: 0.0004901885986328125
ell 440, elapsed: 0.00039196014404296875
ell 439, elapsed: 0.00048804283142089844
ell 438, elapsed: 0.00039696693420410156
ell 437, elapsed: 0.0004899501800537109
ell 436, elapsed: 0.0004019737243652344
ell 435, elapsed: 0.0004849433898925781
ell 434, elapsed: 0.00039505958557128906
ell 433, elapsed: 0.0004990100860595703
ell 432, elapsed: 0.0003910064697265625
ell 431, elapsed: 0.0006618499755859375
ell 430, elapsed: 0.0005331039428710938
ell 429, elapsed: 0.00048804283142089844
ell 428, elapsed: 0.0004029273986816406
ell 427, elapsed: 0.00047588348388671875
ell 426, elapsed: 0.0004038810729980469
ell 425, elapsed: 0.0004949569702148438
ell 424, elapsed: 0.00038886070251464844
ell 423, elapsed: 0.0006260871887207031
ell 422, elapsed: 0.0004520416259765625
ell 421, elapsed: 0.00047206878662109375
ell 420, elapsed: 0.00039315223693847656
ell 419, elapsed: 0.0004849433898925781
ell 418, elapsed: 0.00039696693420410156
ell 417, elapsed: 0.0004990100860595703
ell 416, elapsed: 0.0004088878631591797
ell 415, elapsed: 0.0004889965057373047
ell 414, elapsed: 0.0003960132598876953
ell 413, elapsed: 0.000476837158203125
ell 412, elapsed: 0.0004029273986816406
ell 411, elapsed: 0.00048089027404785156
ell 410, elapsed: 0.00039696693420410156
ell 409, elapsed: 0.0004940032958984375
ell 408, elapsed: 0.00039386749267578125
ell 407, elapsed: 0.0004889965057373047
ell 406, elapsed: 0.0005190372467041016
ell 405, elapsed: 0.0006110668182373047
ell 404, elapsed: 0.00041103363037109375
ell 403, elapsed: 0.0004699230194091797
ell 402, elapsed: 0.0003838539123535156
ell 401, elapsed: 0.000492095947265625
ell 400, elapsed: 0.0003910064697265625
ell 399, elapsed: 0.00048804283142089844
ell 398, elapsed: 0.0003991127014160156
ell 397, elapsed: 0.00048089027404785156
ell 396, elapsed: 0.0003960132598876953
ell 395, elapsed: 0.00047516822814941406
ell 394, elapsed: 0.0003879070281982422
ell 393, elapsed: 0.000476837158203125
ell 392, elapsed: 0.0004138946533203125
ell 391, elapsed: 0.0004711151123046875
ell 390, elapsed: 0.0003829002380371094
ell 389, elapsed: 0.00047707557678222656
ell 388, elapsed: 0.00038909912109375
ell 387, elapsed: 0.0005960464477539062
ell 386, elapsed: 0.0005249977111816406
ell 385, elapsed: 0.0004818439483642578
ell 384, elapsed: 0.0004029273986816406
ell 383, elapsed: 0.00048613548278808594
ell 382, elapsed: 0.000392913818359375
ell 381, elapsed: 0.0004780292510986328
ell 380, elapsed: 0.0003910064697265625
ell 379, elapsed: 0.0004839897155761719
ell 378, elapsed: 0.00038695335388183594
ell 377, elapsed: 0.0004761219024658203
ell 376, elapsed: 0.000408172607421875
ell 375, elapsed: 0.0004699230194091797
ell 374, elapsed: 0.00038313865661621094
ell 373, elapsed: 0.0007071495056152344
ell 372, elapsed: 0.0005328655242919922
ell 371, elapsed: 0.0005819797515869141
ell 370, elapsed: 0.0006101131439208984
ell 369, elapsed: 0.0006501674652099609
ell 368, elapsed: 0.0003910064697265625
ell 367, elapsed: 0.0004780292510986328
ell 366, elapsed: 0.0003871917724609375
ell 365, elapsed: 0.0004811286926269531
ell 364, elapsed: 0.00039196014404296875
ell 363, elapsed: 0.00048089027404785156
ell 362, elapsed: 0.000392913818359375
ell 361, elapsed: 0.0004899501800537109
ell 360, elapsed: 0.0003910064697265625
ell 359, elapsed: 0.00047707557678222656
ell 358, elapsed: 0.0003948211669921875
ell 357, elapsed: 0.0004780292510986328
ell 356, elapsed: 0.00039005279541015625
ell 355, elapsed: 0.0004749298095703125
ell 354, elapsed: 0.0003941059112548828
ell 353, elapsed: 0.0005941390991210938
ell 352, elapsed: 0.0005040168762207031
ell 351, elapsed: 0.00047278404235839844
ell 350, elapsed: 0.0005590915679931641
ell 349, elapsed: 0.0005459785461425781
ell 348, elapsed: 0.0004119873046875
ell 347, elapsed: 0.0004940032958984375
ell 346, elapsed: 0.0005240440368652344
ell 345, elapsed: 0.0006401538848876953
ell 344, elapsed: 0.00039196014404296875
ell 343, elapsed: 0.00047516822814941406
ell 342, elapsed: 0.0003859996795654297
ell 341, elapsed: 0.00047087669372558594
ell 340, elapsed: 0.0005600452423095703
ell 339, elapsed: 0.0005660057067871094
ell 338, elapsed: 0.0004019737243652344
ell 337, elapsed: 0.0006358623504638672
ell 336, elapsed: 0.0006458759307861328
ell 335, elapsed: 0.0005710124969482422
ell 334, elapsed: 0.0003921985626220703
ell 333, elapsed: 0.00048804283142089844
ell 332, elapsed: 0.00039315223693847656
ell 331, elapsed: 0.0007078647613525391
ell 330, elapsed: 0.000514984130859375
ell 329, elapsed: 0.0004608631134033203
ell 328, elapsed: 0.0003910064697265625
ell 327, elapsed: 0.00047898292541503906
ell 326, elapsed: 0.00039005279541015625
ell 325, elapsed: 0.0004780292510986328
ell 324, elapsed: 0.00038695335388183594
ell 323, elapsed: 0.0004870891571044922
ell 322, elapsed: 0.0003910064697265625
ell 321, elapsed: 0.0004930496215820312
ell 320, elapsed: 0.00039386749267578125
ell 319, elapsed: 0.00047397613525390625
ell 318, elapsed: 0.00039696693420410156
ell 317, elapsed: 0.0004780292510986328
ell 316, elapsed: 0.00047779083251953125
ell 315, elapsed: 0.0006759166717529297
ell 314, elapsed: 0.00039505958557128906
ell 313, elapsed: 0.0004909038543701172
ell 312, elapsed: 0.0005729198455810547
ell 311, elapsed: 0.0005688667297363281
ell 310, elapsed: 0.00039005279541015625
ell 309, elapsed: 0.0004749298095703125
ell 308, elapsed: 0.000476837158203125
ell 307, elapsed: 0.0005640983581542969
ell 306, elapsed: 0.0004551410675048828
ell 305, elapsed: 0.0005559921264648438
ell 304, elapsed: 0.0005600452423095703
ell 303, elapsed: 0.0006449222564697266
ell 302, elapsed: 0.0005970001220703125
ell 301, elapsed: 0.0005710124969482422
ell 300, elapsed: 0.00045609474182128906
ell 299, elapsed: 0.0005381107330322266
ell 298, elapsed: 0.0005750656127929688
ell 297, elapsed: 0.0007679462432861328
ell 296, elapsed: 0.0004661083221435547
ell 295, elapsed: 0.0005359649658203125
ell 294, elapsed: 0.0004589557647705078
ell 293, elapsed: 0.0005838871002197266
ell 292, elapsed: 0.0004398822784423828
ell 291, elapsed: 0.000759124755859375
ell 290, elapsed: 0.0007319450378417969
ell 289, elapsed: 0.0005879402160644531
ell 288, elapsed: 0.0005719661712646484
ell 287, elapsed: 0.0008339881896972656
ell 286, elapsed: 0.0006229877471923828
ell 285, elapsed: 0.0007948875427246094
ell 284, elapsed: 0.0005540847778320312
ell 283, elapsed: 0.0006039142608642578
ell 282, elapsed: 0.0005190372467041016
ell 281, elapsed: 0.0007550716400146484
ell 280, elapsed: 0.0004889965057373047
ell 279, elapsed: 0.000782012939453125
ell 278, elapsed: 0.0005259513854980469
ell 277, elapsed: 0.0007531642913818359
ell 276, elapsed: 0.000698089599609375
ell 275, elapsed: 0.0007879734039306641
ell 274, elapsed: 0.0006740093231201172
ell 273, elapsed: 0.0007879734039306641
ell 272, elapsed: 0.0006589889526367188
ell 271, elapsed: 0.0008351802825927734
ell 270, elapsed: 0.0005631446838378906
ell 269, elapsed: 0.0006380081176757812
ell 268, elapsed: 0.0004570484161376953
ell 267, elapsed: 0.0006930828094482422
ell 266, elapsed: 0.0006830692291259766
ell 265, elapsed: 0.000614166259765625
ell 264, elapsed: 0.0005791187286376953
ell 263, elapsed: 0.0008370876312255859
ell 262, elapsed: 0.0006549358367919922
ell 261, elapsed: 0.0007078647613525391
ell 260, elapsed: 0.0006330013275146484
ell 259, elapsed: 0.0010590553283691406
ell 258, elapsed: 0.0005218982696533203
ell 257, elapsed: 0.0006120204925537109
ell 256, elapsed: 0.0007269382476806641
ell 255, elapsed: 0.0007991790771484375
ell 254, elapsed: 0.0004508495330810547
ell 253, elapsed: 0.0005478858947753906
ell 252, elapsed: 0.0006601810455322266
ell 251, elapsed: 0.0007891654968261719
ell 250, elapsed: 0.0006549358367919922
ell 249, elapsed: 0.0007879734039306641
ell 248, elapsed: 0.0006940364837646484
ell 247, elapsed: 0.0008208751678466797
ell 246, elapsed: 0.0006680488586425781
ell 245, elapsed: 0.0006239414215087891
ell 244, elapsed: 0.0006570816040039062
ell 243, elapsed: 0.0007500648498535156
ell 242, elapsed: 0.0006589889526367188
ell 241, elapsed: 0.0006098747253417969
ell 240, elapsed: 0.0005140304565429688
ell 239, elapsed: 0.0006439685821533203
ell 238, elapsed: 0.0005390644073486328
ell 237, elapsed: 0.0008418560028076172
ell 236, elapsed: 0.0006389617919921875
ell 235, elapsed: 0.0008220672607421875
ell 234, elapsed: 0.00055694580078125
ell 233, elapsed: 0.0005671977996826172
ell 232, elapsed: 0.0006890296936035156
ell 231, elapsed: 0.0005428791046142578
ell 230, elapsed: 0.0006129741668701172
ell 229, elapsed: 0.0007538795471191406
ell 228, elapsed: 0.00043487548828125
ell 227, elapsed: 0.0007851123809814453
ell 226, elapsed: 0.0006189346313476562
ell 225, elapsed: 0.0008502006530761719
ell 224, elapsed: 0.0006220340728759766
ell 223, elapsed: 0.0007870197296142578
ell 222, elapsed: 0.00046896934509277344
ell 221, elapsed: 0.0008111000061035156
ell 220, elapsed: 0.0006659030914306641
ell 219, elapsed: 0.0007290840148925781
ell 218, elapsed: 0.0006339550018310547
ell 217, elapsed: 0.0008349418640136719
ell 216, elapsed: 0.00045490264892578125
ell 215, elapsed: 0.0007750988006591797
ell 214, elapsed: 0.0006339550018310547
ell 213, elapsed: 0.0005669593811035156
ell 212, elapsed: 0.0006380081176757812
ell 211, elapsed: 0.0008101463317871094
ell 210, elapsed: 0.0005800724029541016
ell 209, elapsed: 0.0005772113800048828
ell 208, elapsed: 0.0006737709045410156
ell 207, elapsed: 0.000782012939453125
ell 206, elapsed: 0.000576019287109375
ell 205, elapsed: 0.0005688667297363281
ell 204, elapsed: 0.0004930496215820312
ell 203, elapsed: 0.0008599758148193359
ell 202, elapsed: 0.00067901611328125
ell 201, elapsed: 0.0008230209350585938
ell 200, elapsed: 0.0006601810455322266
ell 199, elapsed: 0.0006189346313476562
ell 198, elapsed: 0.0006308555603027344
ell 197, elapsed: 0.0008130073547363281
ell 196, elapsed: 0.0006649494171142578
ell 195, elapsed: 0.0006198883056640625
ell 194, elapsed: 0.00044083595275878906
ell 193, elapsed: 0.0008609294891357422
ell 192, elapsed: 0.0006649494171142578
ell 191, elapsed: 0.0007300376892089844
ell 190, elapsed: 0.0006210803985595703
ell 189, elapsed: 0.0005738735198974609
ell 188, elapsed: 0.0006759166717529297
ell 187, elapsed: 0.0007851123809814453
ell 186, elapsed: 0.0006000995635986328
ell 185, elapsed: 0.0008060932159423828
ell 184, elapsed: 0.00061798095703125
ell 183, elapsed: 0.0005741119384765625
ell 182, elapsed: 0.0007121562957763672
ell 181, elapsed: 0.0007429122924804688
ell 180, elapsed: 0.0006299018859863281
ell 179, elapsed: 0.0008001327514648438
ell 178, elapsed: 0.0006480216979980469
ell 177, elapsed: 0.0006859302520751953
ell 176, elapsed: 0.0004649162292480469
ell 175, elapsed: 0.0008192062377929688
ell 174, elapsed: 0.0005209445953369141
ell 173, elapsed: 0.0008869171142578125
ell 172, elapsed: 0.00046706199645996094
ell 171, elapsed: 0.0005340576171875
ell 170, elapsed: 0.0004990100860595703
ell 169, elapsed: 0.0008389949798583984
ell 168, elapsed: 0.0006430149078369141
ell 167, elapsed: 0.0008480548858642578
ell 166, elapsed: 0.00047397613525390625
ell 165, elapsed: 0.0005509853363037109
ell 164, elapsed: 0.0004639625549316406
ell 163, elapsed: 0.0005350112915039062
ell 162, elapsed: 0.0005619525909423828
ell 161, elapsed: 0.0006079673767089844
ell 160, elapsed: 0.000759124755859375
ell 159, elapsed: 0.0008361339569091797
ell 158, elapsed: 0.000614166259765625
ell 157, elapsed: 0.0008618831634521484
ell 156, elapsed: 0.00046896934509277344
ell 155, elapsed: 0.0005469322204589844
ell 154, elapsed: 0.00046896934509277344
ell 153, elapsed: 0.0005550384521484375
ell 152, elapsed: 0.00045490264892578125
ell 151, elapsed: 0.0005390644073486328
ell 150, elapsed: 0.00043702125549316406
ell 149, elapsed: 0.0005390644073486328
ell 148, elapsed: 0.0005369186401367188
ell 147, elapsed: 0.0006501674652099609
ell 146, elapsed: 0.0004680156707763672
ell 145, elapsed: 0.0005710124969482422
ell 144, elapsed: 0.0004811286926269531
ell 143, elapsed: 0.0005650520324707031
ell 142, elapsed: 0.0004730224609375
ell 141, elapsed: 0.0005748271942138672
ell 140, elapsed: 0.0004849433898925781
ell 139, elapsed: 0.0005638599395751953
ell 138, elapsed: 0.000492095947265625
ell 137, elapsed: 0.0005660057067871094
ell 136, elapsed: 0.0004680156707763672
ell 135, elapsed: 0.0005640983581542969
ell 134, elapsed: 0.0004699230194091797
ell 133, elapsed: 0.0005738735198974609
ell 132, elapsed: 0.00047707557678222656
ell 131, elapsed: 0.0006229877471923828
ell 130, elapsed: 0.00046896934509277344
ell 129, elapsed: 0.0005490779876708984
ell 128, elapsed: 0.0005559921264648438
ell 127, elapsed: 0.0006148815155029297
ell 126, elapsed: 0.0005199909210205078
ell 125, elapsed: 0.0008258819580078125
ell 124, elapsed: 0.0006139278411865234
ell 123, elapsed: 0.0008499622344970703
ell 122, elapsed: 0.0006518363952636719
ell 121, elapsed: 0.0005960464477539062
ell 120, elapsed: 0.0004990100860595703
ell 119, elapsed: 0.0007951259613037109
ell 118, elapsed: 0.0004940032958984375
ell 117, elapsed: 0.0008292198181152344
ell 116, elapsed: 0.0006070137023925781
ell 115, elapsed: 0.0006000995635986328
ell 114, elapsed: 0.0004639625549316406
ell 113, elapsed: 0.0007538795471191406
ell 112, elapsed: 0.0006799697875976562
ell 111, elapsed: 0.0005350112915039062
ell 110, elapsed: 0.0006430149078369141
ell 109, elapsed: 0.0007379055023193359
ell 108, elapsed: 0.0004470348358154297
ell 107, elapsed: 0.0005178451538085938
ell 106, elapsed: 0.0006549358367919922
ell 105, elapsed: 0.0007879734039306641
ell 104, elapsed: 0.0006198883056640625
ell 103, elapsed: 0.0005660057067871094
ell 102, elapsed: 0.0005898475646972656
ell 101, elapsed: 0.0007979869842529297
ell 100, elapsed: 0.0005660057067871094
ell 99, elapsed: 0.0006191730499267578
ell 98, elapsed: 0.0005850791931152344
ell 97, elapsed: 0.0006110668182373047
ell 96, elapsed: 0.0006499290466308594
ell 95, elapsed: 0.0007739067077636719
ell 94, elapsed: 0.0006451606750488281
ell 93, elapsed: 0.0007510185241699219
ell 92, elapsed: 0.0006110668182373047
ell 91, elapsed: 0.000820159912109375
ell 90, elapsed: 0.0005879402160644531
ell 89, elapsed: 0.0008440017700195312
ell 88, elapsed: 0.0006270408630371094
ell 87, elapsed: 0.0007719993591308594
ell 86, elapsed: 0.0005710124969482422
ell 85, elapsed: 0.00078582763671875
ell 84, elapsed: 0.0006549358367919922
ell 83, elapsed: 0.0007109642028808594
ell 82, elapsed: 0.00047397613525390625
ell 81, elapsed: 0.0007021427154541016
ell 80, elapsed: 0.0006639957427978516
ell 79, elapsed: 0.0005939006805419922
ell 78, elapsed: 0.0006048679351806641
ell 77, elapsed: 0.0006430149078369141
ell 76, elapsed: 0.0005440711975097656
ell 75, elapsed: 0.0006139278411865234
ell 74, elapsed: 0.0006320476531982422
ell 73, elapsed: 0.0004961490631103516
ell 72, elapsed: 0.0005528926849365234
ell 71, elapsed: 0.0007531642913818359
ell 70, elapsed: 0.0005130767822265625
ell 69, elapsed: 0.0004780292510986328
ell 68, elapsed: 0.0006430149078369141
ell 67, elapsed: 0.0006477832794189453
ell 66, elapsed: 0.0005080699920654297
ell 65, elapsed: 0.0005500316619873047
ell 64, elapsed: 0.0003058910369873047
ell 63, elapsed: 0.00035500526428222656
ell 62, elapsed: 0.0003941059112548828
ell 61, elapsed: 0.0006520748138427734
ell 60, elapsed: 0.0004990100860595703
ell 59, elapsed: 0.00036978721618652344
ell 58, elapsed: 0.00034308433532714844
ell 57, elapsed: 0.0004858970642089844
ell 56, elapsed: 0.0005779266357421875
ell 55, elapsed: 0.0005640983581542969
ell 54, elapsed: 0.000576019287109375
ell 53, elapsed: 0.000659942626953125
ell 52, elapsed: 0.0004649162292480469
ell 51, elapsed: 0.0007381439208984375
ell 50, elapsed: 0.0004858970642089844
ell 49, elapsed: 0.0006420612335205078
ell 48, elapsed: 0.0006389617919921875
ell 47, elapsed: 0.0005571842193603516
ell 46, elapsed: 0.0005619525909423828
ell 45, elapsed: 0.0007410049438476562
ell 44, elapsed: 0.0005137920379638672
ell 43, elapsed: 0.000492095947265625
ell 42, elapsed: 0.0005939006805419922
ell 41, elapsed: 0.0006949901580810547
ell 40, elapsed: 0.0006220340728759766
ell 39, elapsed: 0.0005919933319091797
ell 38, elapsed: 0.0005159378051757812
ell 37, elapsed: 0.0005159378051757812
ell 36, elapsed: 0.0006000995635986328
ell 35, elapsed: 0.0007479190826416016
ell 34, elapsed: 0.0006399154663085938
ell 33, elapsed: 0.0006330013275146484
ell 32, elapsed: 0.0005710124969482422
ell 31, elapsed: 0.0007529258728027344
ell 30, elapsed: 0.0005409717559814453
ell 29, elapsed: 0.0004749298095703125
ell 28, elapsed: 0.0004968643188476562
ell 27, elapsed: 0.0007300376892089844
ell 26, elapsed: 0.0004520416259765625
ell 25, elapsed: 0.0004849433898925781
ell 24, elapsed: 0.0005519390106201172
ell 23, elapsed: 0.0006008148193359375
ell 22, elapsed: 0.0005521774291992188
ell 21, elapsed: 0.0005860328674316406
ell 20, elapsed: 0.0005199909210205078
ell 19, elapsed: 0.00074005126953125
ell 18, elapsed: 0.0006229877471923828
ell 17, elapsed: 0.0006339550018310547
ell 16, elapsed: 0.0005700588226318359
ell 15, elapsed: 0.0005669593811035156
ell 14, elapsed: 0.0005970001220703125
ell 13, elapsed: 0.0006840229034423828
ell 12, elapsed: 0.000514984130859375
ell 11, elapsed: 0.0008118152618408203
ell 10, elapsed: 0.0004699230194091797
ell 9, elapsed: 0.0006139278411865234
ell 8, elapsed: 0.0005400180816650391
ell 7, elapsed: 0.0006990432739257812
ell 6, elapsed: 0.0005691051483154297
ell 5, elapsed: 0.0007760524749755859
ell 4, elapsed: 0.0005350112915039062
ell 3, elapsed: 0.0006780624389648438
ell 2, elapsed: 0.0004029273986816406
ell 1, elapsed: 0.0004911422729492188
ell 0, elapsed: 0.0005130767822265625
  0.828769 seconds (41.19 k allocations: 2.939 MiB, 3.21% gc time)
elapsed: 0.0009150505065917969
step:          0.067374 sec (0 allocations: 0 byte, 0.0% gc time)
swapping:      0.001 sec (0 allocations: 0 byte, 0.0% gc time)
calc_Mellell!: 0.012263 sec (0 allocations: 0 byte, 0.0% gc time)
  t0 :  0.002613 sec (0 allocations: 0 byte, 0.0% gc time)
  tm2 : 0.104274 sec (0 allocations: 0 byte, 0.0% gc time)
  tm2s: 0.002148 sec (0 allocations: 0 byte, 0.0% gc time)
  tm4 : 0.265294 sec (0 allocations: 0 byte, 0.0% gc time)
  tp2 : 0.0 sec (0 allocations: 0 byte, 0.0% gc time)
  tp2s: 0.0 sec (0 allocations: 0 byte, 0.0% gc time)
  tp4 : 0.0 sec (0 allocations: 0 byte, 0.0% gc time)
calc_wtdll!:   0.395417 sec (9.87 k allocations: 1.043 MB, 0.0% gc time)
calc_wljj!:    0.043194 sec (689 allocations: 10.766 KB, 0.0% gc time)
mult_prefac!:  0.0 sec (0 allocations: 0 byte, 0.0% gc time)
convert:       0.0 sec (0 allocations: 0 byte, 0.0% gc time)
write:         0.062276 sec (0 allocations: 0 byte, 0.0% gc time)
test_rand_2f1: 0.0 sec (0 allocations: 0 byte, 0.0% gc time)
Closing outfile out/Ml21-cache.bin...   0.022149 seconds
  0.000615 seconds (52 allocations: 28.297 KiB)
make_phi():   0.002712 seconds (8.20 k allocations: 238.016 KiB)
  0.181643 seconds (146.69 k allocations: 3.629 MiB)
tskip:       0.00123 sec (0 allocations: 0 byte, 0.0% gc time)
tread:       0.02407 sec (19 allocations: 10.688 KB, 0.0% gc time)
tmultphi:    0.012771 sec (0 allocations: 0 byte, 0.0% gc time)
tbrfft:      0.045503 sec (9.592 k allocations: 449.625 KB, 0.0% gc time)
tmultprefac: 0.036006 sec (0 allocations: 0 byte, 0.0% gc time)
toutfunc:    0.060352 sec (129.905 k allocations: 2.421 MB, 0.0% gc time)
Testing R=1.0 ... passed
Calculating fmax: 
  dlrec    = 4
  dlrecRg1 = -4
  q=1.1, R=0.9:	  0.491034 seconds (116.47 k allocations: 15.614 MiB)

  0.491360 seconds (116.50 k allocations: 15.647 MiB)
ℓ = 1202
Δℓ = 4
ΔℓRg1 = -4
N = 1600
q = 1.1
kmin = 1.0e-5
kmax = 100000.00000000004
χ0 = 0.023029999999999995
RR = RR.tsv
ℓmax = ℓmax.bin
f21 = f21.bin
kmin = 1.0e-5
kmax = 100000.0
dlrec    = 4
dlrecRg1 = -4
Output size: 5741568 bytes = 0.005347251892089844 GiB
Output size: 51264 bytes = 4.774332046508789e-5 GiB
Reading 'out/F21EllCache'...   0.001376 seconds (267 allocations: 84.656 KiB)
ellmax: 1202
lmaxcache: 1202
fell[:,1,1] = Complex{Float64}[1.3482014726274674e-57 - 3.302141236118086e-73im, 1.357860004724329e-57 - 3.3257978169518355e-73im]
ell 1202, elapsed: 5.1021575927734375e-5
ell 1201, elapsed: 0.0005140304565429688
ell 1200, elapsed: 0.0004811286926269531
ell 1199, elapsed: 0.0004780292510986328
ell 1198, elapsed: 0.0004899501800537109
ell 1002, elapsed: 0.010416984558105469
ell 1001, elapsed: 0.0004420280456542969
ell 1000, elapsed: 0.00041794776916503906
ell 999, elapsed: 0.00041484832763671875
ell 998, elapsed: 0.00041103363037109375
ell 902, elapsed: 0.005939960479736328
ell 901, elapsed: 0.0003991127014160156
ell 900, elapsed: 0.00039315223693847656
ell 899, elapsed: 0.00038695335388183594
ell 898, elapsed: 0.0003838539123535156
ell 802, elapsed: 0.005918025970458984
ell 801, elapsed: 0.000514984130859375
ell 800, elapsed: 0.00038695335388183594
ell 799, elapsed: 0.0003821849822998047
ell 798, elapsed: 0.0003840923309326172
ell 702, elapsed: 0.005725860595703125
ell 701, elapsed: 0.002023935317993164
ell 700, elapsed: 0.00038909912109375
ell 699, elapsed: 0.0003910064697265625
ell 698, elapsed: 0.000392913818359375
ell 602, elapsed: 0.006014108657836914
ell 601, elapsed: 0.0004138946533203125
ell 600, elapsed: 0.0003941059112548828
ell 599, elapsed: 0.0003991127014160156
ell 598, elapsed: 0.00039196014404296875
ell 502, elapsed: 0.006138801574707031
ell 501, elapsed: 0.00047397613525390625
ell 500, elapsed: 0.0004031658172607422
ell 499, elapsed: 0.0003960132598876953
ell 498, elapsed: 0.0004341602325439453
ell 402, elapsed: 0.005936861038208008
ell 401, elapsed: 0.00043892860412597656
ell 400, elapsed: 0.00045609474182128906
ell 399, elapsed: 0.00043201446533203125
ell 398, elapsed: 0.00045490264892578125
ell 302, elapsed: 0.005789995193481445
ell 301, elapsed: 0.0004367828369140625
ell 300, elapsed: 0.0004382133483886719
ell 299, elapsed: 0.00043702125549316406
ell 298, elapsed: 0.0004401206970214844
ell 202, elapsed: 0.005876064300537109
ell 201, elapsed: 0.00039196014404296875
ell 200, elapsed: 0.0003838539123535156
ell 199, elapsed: 0.000392913818359375
ell 198, elapsed: 0.00038695335388183594
ell 152, elapsed: 0.0029358863830566406
ell 151, elapsed: 0.0003848075866699219
ell 150, elapsed: 0.0003979206085205078
ell 149, elapsed: 0.0003829002380371094
ell 148, elapsed: 0.0003829002380371094
ell 127, elapsed: 0.001653909683227539
ell 126, elapsed: 0.00038814544677734375
ell 125, elapsed: 0.0003859996795654297
ell 124, elapsed: 0.0003948211669921875
ell 123, elapsed: 0.0003859996795654297
ell 114, elapsed: 0.0008687973022460938
ell 113, elapsed: 0.0003840923309326172
ell 112, elapsed: 0.0003838539123535156
ell 111, elapsed: 0.0003829002380371094
ell 110, elapsed: 0.00038504600524902344
ell 102, elapsed: 0.0009560585021972656
ell 101, elapsed: 0.00038504600524902344
ell 100, elapsed: 0.00038504600524902344
ell 99, elapsed: 0.0003838539123535156
ell 98, elapsed: 0.00038504600524902344
ell 97, elapsed: 0.0004258155822753906
ell 96, elapsed: 0.0005118846893310547
ell 95, elapsed: 0.00042319297790527344
ell 94, elapsed: 0.0005030632019042969
ell 93, elapsed: 0.00043511390686035156
ell 92, elapsed: 0.0004990100860595703
ell 91, elapsed: 0.0004208087921142578
ell 90, elapsed: 0.0004987716674804688
ell 89, elapsed: 0.0004220008850097656
ell 88, elapsed: 0.0005018711090087891
ell 87, elapsed: 0.0004220008850097656
ell 86, elapsed: 0.0005009174346923828
ell 85, elapsed: 0.00043320655822753906
ell 84, elapsed: 0.0005080699920654297
ell 83, elapsed: 0.0004229545593261719
ell 82, elapsed: 0.0004940032958984375
ell 81, elapsed: 0.0004229545593261719
ell 80, elapsed: 0.0005030632019042969
ell 79, elapsed: 0.00042700767517089844
ell 78, elapsed: 0.0005030632019042969
ell 77, elapsed: 0.000514984130859375
ell 76, elapsed: 0.0005650520324707031
ell 75, elapsed: 0.0005228519439697266
ell 74, elapsed: 0.0005679130554199219
ell 73, elapsed: 0.0004718303680419922
ell 72, elapsed: 0.0005810260772705078
ell 71, elapsed: 0.0005049705505371094
ell 70, elapsed: 0.0005748271942138672
ell 69, elapsed: 0.0004889965057373047
ell 68, elapsed: 0.0005648136138916016
ell 67, elapsed: 0.00047588348388671875
ell 66, elapsed: 0.0005431175231933594
ell 65, elapsed: 0.0004630088806152344
ell 64, elapsed: 0.0005369186401367188
ell 63, elapsed: 0.00045013427734375
ell 62, elapsed: 0.0005309581756591797
ell 61, elapsed: 0.00044989585876464844
ell 60, elapsed: 0.0005409717559814453
ell 59, elapsed: 0.0004489421844482422
ell 58, elapsed: 0.0005571842193603516
ell 57, elapsed: 0.00044989585876464844
ell 56, elapsed: 0.0005390644073486328
ell 55, elapsed: 0.0004520416259765625
ell 54, elapsed: 0.0005359649658203125
ell 53, elapsed: 0.00045108795166015625
ell 52, elapsed: 0.0005350112915039062
ell 51, elapsed: 0.0004839897155761719
ell 50, elapsed: 0.0005970001220703125
ell 49, elapsed: 0.00049591064453125
ell 48, elapsed: 0.0005879402160644531
ell 47, elapsed: 0.0004940032958984375
ell 46, elapsed: 0.0005898475646972656
ell 45, elapsed: 0.0004911422729492188
ell 44, elapsed: 0.0006728172302246094
ell 43, elapsed: 0.0005090236663818359
ell 42, elapsed: 0.0005919933319091797
ell 41, elapsed: 0.0004999637603759766
ell 40, elapsed: 0.0006151199340820312
ell 39, elapsed: 0.00046896934509277344
ell 38, elapsed: 0.0005731582641601562
ell 37, elapsed: 0.00046896934509277344
ell 36, elapsed: 0.0005559921264648438
ell 35, elapsed: 0.0004630088806152344
ell 34, elapsed: 0.0005540847778320312
ell 33, elapsed: 0.0004620552062988281
ell 32, elapsed: 0.00055694580078125
ell 31, elapsed: 0.0004780292510986328
ell 30, elapsed: 0.0005609989166259766
ell 29, elapsed: 0.00046896934509277344
ell 28, elapsed: 0.000553131103515625
ell 27, elapsed: 0.0004649162292480469
ell 26, elapsed: 0.0005490779876708984
ell 25, elapsed: 0.0004620552062988281
ell 24, elapsed: 0.0005710124969482422
ell 23, elapsed: 0.0005090236663818359
ell 22, elapsed: 0.0005681514739990234
ell 21, elapsed: 0.00046896934509277344
ell 20, elapsed: 0.0005550384521484375
ell 19, elapsed: 0.0004661083221435547
ell 18, elapsed: 0.0005497932434082031
ell 17, elapsed: 0.00047898292541503906
ell 16, elapsed: 0.0005528926849365234
ell 15, elapsed: 0.0004639625549316406
ell 14, elapsed: 0.0006620883941650391
ell 13, elapsed: 0.0005090236663818359
ell 12, elapsed: 0.0007410049438476562
ell 11, elapsed: 0.0006139278411865234
ell 10, elapsed: 0.0006961822509765625
ell 9, elapsed: 0.0006160736083984375
ell 8, elapsed: 0.0005719661712646484
ell 7, elapsed: 0.0005190372467041016
ell 6, elapsed: 0.0006558895111083984
ell 5, elapsed: 0.0006530284881591797
ell 4, elapsed: 0.0006949901580810547
ell 3, elapsed: 0.0006151199340820312
ell 2, elapsed: 0.0006830692291259766
ell 1, elapsed: 0.0005781650543212891
ell 0, elapsed: 0.0006690025329589844
  0.152732 seconds (10.83 k allocations: 697.938 KiB)
elapsed: 0.0005779266357421875
step:          0.064862 sec (0 allocations: 0 byte, 0.0% gc time)
swapping:      0.000608 sec (0 allocations: 0 byte, 0.0% gc time)
calc_Mellell!: 0.001801 sec (0 allocations: 0 byte, 0.0% gc time)
  t0 :  0.000494 sec (0 allocations: 0 byte, 0.0% gc time)
  tm2 : 0.015313 sec (0 allocations: 0 byte, 0.0% gc time)
  tm2s: 0.000362 sec (0 allocations: 0 byte, 0.0% gc time)
  tm4 : 0.040257 sec (0 allocations: 0 byte, 0.0% gc time)
  tp2 : 0.0 sec (0 allocations: 0 byte, 0.0% gc time)
  tp2s: 0.0 sec (0 allocations: 0 byte, 0.0% gc time)
  tp4 : 0.0 sec (0 allocations: 0 byte, 0.0% gc time)
calc_wtdll!:   0.056994 sec (1.344 k allocations: 147.0 KB, 0.0% gc time)
calc_wljj!:    0.004128 sec (6 allocations: 96 byte, 0.0% gc time)
mult_prefac!:  0.0 sec (0 allocations: 0 byte, 0.0% gc time)
convert:       0.0 sec (0 allocations: 0 byte, 0.0% gc time)
write:         0.005506 sec (0 allocations: 0 byte, 0.0% gc time)
test_rand_2f1: 0.0 sec (0 allocations: 0 byte, 0.0% gc time)
Closing outfile out/Ml21-cache.bin...   0.002921 seconds
  0.000272 seconds (52 allocations: 28.297 KiB)
make_phi():   0.002446 seconds (8.20 k allocations: 238.016 KiB)
  0.018274 seconds (12.10 k allocations: 322.000 KiB)
tskip:       2.2e-5 sec (0 allocations: 0 byte, 0.0% gc time)
tread:       0.002422 sec (19 allocations: 2.172 KB, 0.0% gc time)
tmultphi:    0.001526 sec (0 allocations: 0 byte, 0.0% gc time)
tbrfft:      0.004753 sec (896 allocations: 42.0 KB, 0.0% gc time)
tmultprefac: 0.003712 sec (0 allocations: 0 byte, 0.0% gc time)
toutfunc:    0.00584 sec (10.528 k allocations: 206.5 KB, 0.0% gc time)
Testing R=0.9 ... passed
Calculating fmax: 
  dlrec    = 4
  dlrecRg1 = -4
  q=1.1, R=0.8:	  0.391842 seconds (113.61 k allocations: 15.166 MiB)

  0.392119 seconds (113.65 k allocations: 15.200 MiB)
ℓ = 1202
Δℓ = 4
ΔℓRg1 = -4
N = 1600
q = 1.1
kmin = 1.0e-5
kmax = 100000.00000000004
χ0 = 0.023029999999999995
RR = RR.tsv
ℓmax = ℓmax.bin
f21 = f21.bin
kmin = 1.0e-5
kmax = 100000.0
dlrec    = 4
dlrecRg1 = -4
Output size: 5741568 bytes = 0.005347251892089844 GiB
Output size: 51264 bytes = 4.774332046508789e-5 GiB
Reading 'out/F21EllCache'...   0.001086 seconds (267 allocations: 84.656 KiB)
ellmax: 1202
lmaxcache: 1202
fell[:,1,1] = Complex{Float64}[7.519068145690986e-120 - 1.8416405474382574e-135im, 7.541664537386155e-120 - 1.847175067190611e-135im]
ell 1202, elapsed: 0.0001289844512939453
ell 1201, elapsed: 0.0005650520324707031
ell 1200, elapsed: 0.0007288455963134766
ell 1199, elapsed: 0.0005259513854980469
ell 1198, elapsed: 0.0007739067077636719
ell 1002, elapsed: 0.011324882507324219
ell 1001, elapsed: 0.0006761550903320312
ell 1000, elapsed: 0.0005848407745361328
ell 999, elapsed: 0.001010894775390625
ell 998, elapsed: 0.0005810260772705078
ell 902, elapsed: 0.005558013916015625
ell 901, elapsed: 0.00048089027404785156
ell 900, elapsed: 0.00046896934509277344
ell 899, elapsed: 0.0004820823669433594
ell 898, elapsed: 0.0004730224609375
ell 802, elapsed: 0.005036115646362305
ell 801, elapsed: 0.0005171298980712891
ell 800, elapsed: 0.0004911422729492188
ell 799, elapsed: 0.0006909370422363281
ell 798, elapsed: 0.0004630088806152344
ell 702, elapsed: 0.005434989929199219
ell 701, elapsed: 0.0006690025329589844
ell 700, elapsed: 0.0005509853363037109
ell 699, elapsed: 0.0004360675811767578
ell 698, elapsed: 0.00037097930908203125
ell 602, elapsed: 0.004898786544799805
ell 601, elapsed: 0.0005290508270263672
ell 600, elapsed: 0.00045299530029296875
ell 599, elapsed: 0.0004839897155761719
ell 598, elapsed: 0.0005090236663818359
ell 502, elapsed: 0.00495600700378418
ell 501, elapsed: 0.0004031658172607422
ell 500, elapsed: 0.0003619194030761719
ell 499, elapsed: 0.0003571510314941406
ell 498, elapsed: 0.0004379749298095703
ell 402, elapsed: 0.005279064178466797
ell 401, elapsed: 0.0004940032958984375
ell 400, elapsed: 0.0006761550903320312
ell 399, elapsed: 0.0006630420684814453
ell 398, elapsed: 0.00044798851013183594
ell 302, elapsed: 0.0052988529205322266
ell 301, elapsed: 0.0004591941833496094
ell 300, elapsed: 0.0005960464477539062
ell 299, elapsed: 0.0005729198455810547
ell 298, elapsed: 0.0005810260772705078
ell 202, elapsed: 0.005856990814208984
ell 201, elapsed: 0.0005371570587158203
ell 200, elapsed: 0.0005590915679931641
ell 199, elapsed: 0.00055694580078125
ell 198, elapsed: 0.0005660057067871094
ell 152, elapsed: 0.003092050552368164
ell 151, elapsed: 0.0004749298095703125
ell 150, elapsed: 0.0005710124969482422
ell 149, elapsed: 0.0005471706390380859
ell 148, elapsed: 0.0004730224609375
ell 127, elapsed: 0.0015790462493896484
ell 126, elapsed: 0.0003619194030761719
ell 125, elapsed: 0.0004611015319824219
ell 124, elapsed: 0.0005109310150146484
ell 123, elapsed: 0.0004680156707763672
ell 114, elapsed: 0.0012521743774414062
ell 113, elapsed: 0.0004661083221435547
ell 112, elapsed: 0.00043487548828125
ell 111, elapsed: 0.0005059242248535156
ell 110, elapsed: 0.0004668235778808594
ell 102, elapsed: 0.001171112060546875
ell 101, elapsed: 0.00043702125549316406
ell 100, elapsed: 0.00034999847412109375
ell 99, elapsed: 0.0004639625549316406
ell 98, elapsed: 0.0005528926849365234
ell 97, elapsed: 0.0006270408630371094
ell 96, elapsed: 0.0007770061492919922
ell 95, elapsed: 0.0004291534423828125
ell 94, elapsed: 0.0007040500640869141
ell 93, elapsed: 0.00057220458984375
ell 92, elapsed: 0.0006802082061767578
ell 91, elapsed: 0.0006399154663085938
ell 90, elapsed: 0.0008029937744140625
ell 89, elapsed: 0.0005350112915039062
ell 88, elapsed: 0.0007350444793701172
ell 87, elapsed: 0.0006849765777587891
ell 86, elapsed: 0.0008139610290527344
ell 85, elapsed: 0.000640869140625
ell 84, elapsed: 0.000782012939453125
ell 83, elapsed: 0.0006399154663085938
ell 82, elapsed: 0.0007259845733642578
ell 81, elapsed: 0.0006120204925537109
ell 80, elapsed: 0.0007488727569580078
ell 79, elapsed: 0.0006570816040039062
ell 78, elapsed: 0.0005807876586914062
ell 77, elapsed: 0.0006339550018310547
ell 76, elapsed: 0.0007698535919189453
ell 75, elapsed: 0.0006470680236816406
ell 74, elapsed: 0.0008158683776855469
ell 73, elapsed: 0.0006740093231201172
ell 72, elapsed: 0.0008130073547363281
ell 71, elapsed: 0.0006208419799804688
ell 70, elapsed: 0.0008070468902587891
ell 69, elapsed: 0.00047898292541503906
ell 68, elapsed: 0.0005578994750976562
ell 67, elapsed: 0.000637054443359375
ell 66, elapsed: 0.0007958412170410156
ell 65, elapsed: 0.0005829334259033203
ell 64, elapsed: 0.0006220340728759766
ell 63, elapsed: 0.0006310939788818359
ell 62, elapsed: 0.0007460117340087891
ell 61, elapsed: 0.0006208419799804688
ell 60, elapsed: 0.0007178783416748047
ell 59, elapsed: 0.0006589889526367188
ell 58, elapsed: 0.0004990100860595703
ell 57, elapsed: 0.00040602684020996094
ell 56, elapsed: 0.0006978511810302734
ell 55, elapsed: 0.0005898475646972656
ell 54, elapsed: 0.0007219314575195312
ell 53, elapsed: 0.0004360675811767578
ell 52, elapsed: 0.0004971027374267578
ell 51, elapsed: 0.0006699562072753906
ell 50, elapsed: 0.0006251335144042969
ell 49, elapsed: 0.0006520748138427734
ell 48, elapsed: 0.0007529258728027344
ell 47, elapsed: 0.0005559921264648438
ell 46, elapsed: 0.0007288455963134766
ell 45, elapsed: 0.0004949569702148438
ell 44, elapsed: 0.0005211830139160156
ell 43, elapsed: 0.0004208087921142578
ell 42, elapsed: 0.0005130767822265625
ell 41, elapsed: 0.0004410743713378906
ell 40, elapsed: 0.0006668567657470703
ell 39, elapsed: 0.0006589889526367188
ell 38, elapsed: 0.0006740093231201172
ell 37, elapsed: 0.00049591064453125
ell 36, elapsed: 0.0007879734039306641
ell 35, elapsed: 0.0004968643188476562
ell 34, elapsed: 0.0007839202880859375
ell 33, elapsed: 0.0006711483001708984
ell 32, elapsed: 0.0008838176727294922
ell 31, elapsed: 0.0006508827209472656
ell 30, elapsed: 0.0006489753723144531
ell 29, elapsed: 0.0006608963012695312
ell 28, elapsed: 0.0005748271942138672
ell 27, elapsed: 0.0005638599395751953
ell 26, elapsed: 0.0008151531219482422
ell 25, elapsed: 0.0006709098815917969
ell 24, elapsed: 0.0005991458892822266
ell 23, elapsed: 0.0006098747253417969
ell 22, elapsed: 0.0007848739624023438
ell 21, elapsed: 0.0006809234619140625
ell 20, elapsed: 0.0006330013275146484
ell 19, elapsed: 0.0006749629974365234
ell 18, elapsed: 0.0008318424224853516
ell 17, elapsed: 0.0006940364837646484
ell 16, elapsed: 0.0005781650543212891
ell 15, elapsed: 0.0004839897155761719
[...]
ell 788, elapsed: 0.0008180141448974609
ell 782, elapsed: 0.0016360282897949219
ell 781, elapsed: 0.0010809898376464844
ell 780, elapsed: 0.0007798671722412109
ell 779, elapsed: 0.0010640621185302734
ell 778, elapsed: 0.000823974609375
ell 772, elapsed: 0.001806020736694336
ell 771, elapsed: 0.0008420944213867188
ell 770, elapsed: 0.0011420249938964844
ell 769, elapsed: 0.0007979869842529297
ell 768, elapsed: 0.0008528232574462891
ell 762, elapsed: 0.0018699169158935547
ell 761, elapsed: 0.000843048095703125
ell 760, elapsed: 0.0008449554443359375
ell 759, elapsed: 0.0008399486541748047
ell 758, elapsed: 0.0008509159088134766
ell 752, elapsed: 0.0019388198852539062
ell 751, elapsed: 0.0008139610290527344
ell 750, elapsed: 0.0008449554443359375
ell 749, elapsed: 0.0009279251098632812
ell 748, elapsed: 0.0008490085601806641
ell 742, elapsed: 0.0018470287322998047
ell 741, elapsed: 0.0008490085601806641
ell 740, elapsed: 0.0009019374847412109
ell 739, elapsed: 0.0008449554443359375
ell 738, elapsed: 0.0008440017700195312
ell 732, elapsed: 0.0019378662109375
ell 731, elapsed: 0.0008089542388916016
ell 730, elapsed: 0.0008530616760253906
ell 729, elapsed: 0.0008428096771240234
ell 728, elapsed: 0.0009181499481201172
ell 722, elapsed: 0.0018589496612548828
ell 721, elapsed: 0.0007898807525634766
ell 720, elapsed: 0.0008308887481689453
ell 719, elapsed: 0.0008599758148193359
ell 718, elapsed: 0.0008420944213867188
ell 712, elapsed: 0.0018661022186279297
ell 711, elapsed: 0.0008299350738525391
ell 710, elapsed: 0.0008530616760253906
ell 709, elapsed: 0.0008211135864257812
ell 708, elapsed: 0.0008220672607421875
ell 702, elapsed: 0.0016160011291503906
ell 701, elapsed: 0.0008099079132080078
ell 700, elapsed: 0.0008099079132080078
ell 699, elapsed: 0.0008111000061035156
ell 698, elapsed: 0.000820159912109375
ell 692, elapsed: 0.0018651485443115234
ell 691, elapsed: 0.0011529922485351562
ell 690, elapsed: 0.0008039474487304688
ell 689, elapsed: 0.0008780956268310547
ell 688, elapsed: 0.0007839202880859375
ell 682, elapsed: 0.0015571117401123047
ell 681, elapsed: 0.0008869171142578125
ell 680, elapsed: 0.001110076904296875
ell 679, elapsed: 0.0010960102081298828
ell 678, elapsed: 0.0008199214935302734
ell 672, elapsed: 0.0020699501037597656
ell 671, elapsed: 0.0008389949798583984
ell 670, elapsed: 0.0012040138244628906
ell 669, elapsed: 0.0008931159973144531
ell 668, elapsed: 0.0008537769317626953
ell 662, elapsed: 0.0018939971923828125
ell 661, elapsed: 0.0010259151458740234
ell 660, elapsed: 0.0009839534759521484
ell 659, elapsed: 0.0009779930114746094
ell 658, elapsed: 0.0009768009185791016
ell 652, elapsed: 0.0021920204162597656
ell 651, elapsed: 0.0008349418640136719
ell 650, elapsed: 0.0011470317840576172
ell 649, elapsed: 0.0009520053863525391
ell 648, elapsed: 0.001046895980834961
ell 642, elapsed: 0.0018460750579833984
ell 641, elapsed: 0.001096963882446289
ell 640, elapsed: 0.0012021064758300781
ell 639, elapsed: 0.0011870861053466797
ell 638, elapsed: 0.0009541511535644531
ell 632, elapsed: 0.0015459060668945312
ell 631, elapsed: 0.0008320808410644531
ell 630, elapsed: 0.000823974609375
ell 629, elapsed: 0.0008661746978759766
ell 628, elapsed: 0.0008230209350585938
ell 622, elapsed: 0.0016071796417236328
ell 621, elapsed: 0.0008158683776855469
ell 620, elapsed: 0.0008409023284912109
ell 619, elapsed: 0.0008220672607421875
ell 618, elapsed: 0.0008118152618408203
ell 612, elapsed: 0.0018100738525390625
ell 611, elapsed: 0.0008060932159423828
ell 610, elapsed: 0.0008311271667480469
ell 609, elapsed: 0.0008380413055419922
ell 608, elapsed: 0.0008409023284912109
ell 602, elapsed: 0.0018301010131835938
ell 601, elapsed: 0.0008540153503417969
ell 600, elapsed: 0.0008108615875244141
ell 599, elapsed: 0.0008509159088134766
ell 598, elapsed: 0.0008351802825927734
ell 592, elapsed: 0.0017771720886230469
ell 591, elapsed: 0.0007841587066650391
ell 590, elapsed: 0.0008590221405029297
ell 589, elapsed: 0.0008308887481689453
ell 588, elapsed: 0.0008211135864257812
ell 582, elapsed: 0.0015869140625
ell 581, elapsed: 0.0009171962738037109
ell 580, elapsed: 0.0008258819580078125
ell 579, elapsed: 0.0008211135864257812
ell 578, elapsed: 0.0008208751678466797
ell 572, elapsed: 0.005906820297241211
ell 571, elapsed: 0.0007967948913574219
ell 570, elapsed: 0.0008380413055419922
ell 569, elapsed: 0.0008380413055419922
ell 568, elapsed: 0.0008299350738525391
ell 562, elapsed: 0.0016078948974609375
ell 561, elapsed: 0.0008480548858642578
ell 560, elapsed: 0.0008599758148193359
ell 559, elapsed: 0.0008571147918701172
ell 558, elapsed: 0.0008270740509033203
ell 552, elapsed: 0.0015850067138671875
ell 551, elapsed: 0.0008690357208251953
ell 550, elapsed: 0.0008318424224853516
ell 549, elapsed: 0.0008280277252197266
ell 548, elapsed: 0.0008270740509033203
ell 542, elapsed: 0.002791166305541992
ell 541, elapsed: 0.0007669925689697266
ell 540, elapsed: 0.0008349418640136719
ell 539, elapsed: 0.0008499622344970703
ell 538, elapsed: 0.0012230873107910156
ell 532, elapsed: 0.0020198822021484375
ell 531, elapsed: 0.0008971691131591797
ell 530, elapsed: 0.0008370876312255859
ell 529, elapsed: 0.0008561611175537109
ell 528, elapsed: 0.0008540153503417969
ell 522, elapsed: 0.002012968063354492
ell 521, elapsed: 0.0008080005645751953
ell 520, elapsed: 0.0008559226989746094
ell 519, elapsed: 0.0008530616760253906
ell 518, elapsed: 0.0008561611175537109
ell 512, elapsed: 0.0018050670623779297
ell 511, elapsed: 0.0008058547973632812
ell 510, elapsed: 0.0008950233459472656
ell 509, elapsed: 0.0008609294891357422
ell 508, elapsed: 0.0008571147918701172
ell 502, elapsed: 0.0018079280853271484
ell 501, elapsed: 0.0008008480072021484
ell 500, elapsed: 0.0008320808410644531
ell 499, elapsed: 0.0008490085601806641
ell 498, elapsed: 0.0008730888366699219
ell 492, elapsed: 0.0018239021301269531
ell 491, elapsed: 0.0008130073547363281
ell 490, elapsed: 0.0008609294891357422
ell 489, elapsed: 0.0008578300476074219
ell 488, elapsed: 0.0008599758148193359
ell 482, elapsed: 0.0018579959869384766
ell 481, elapsed: 0.0007729530334472656
ell 480, elapsed: 0.0008749961853027344
ell 479, elapsed: 0.0008349418640136719
ell 478, elapsed: 0.0008327960968017578
ell 472, elapsed: 0.0018329620361328125
ell 471, elapsed: 0.0008459091186523438
ell 470, elapsed: 0.0011467933654785156
ell 469, elapsed: 0.0008459091186523438
ell 468, elapsed: 0.0009338855743408203
ell 462, elapsed: 0.0017888545989990234
ell 461, elapsed: 0.0008380413055419922
ell 460, elapsed: 0.0008370876312255859
ell 459, elapsed: 0.0009179115295410156
ell 458, elapsed: 0.0008559226989746094
ell 452, elapsed: 0.0017971992492675781
ell 451, elapsed: 0.0009069442749023438
ell 450, elapsed: 0.0008549690246582031
ell 449, elapsed: 0.0008459091186523438
ell 448, elapsed: 0.0008368492126464844
ell 442, elapsed: 0.0019659996032714844
ell 441, elapsed: 0.0008308887481689453
ell 440, elapsed: 0.0008280277252197266
ell 439, elapsed: 0.0008289813995361328
ell 438, elapsed: 0.0009398460388183594
ell 432, elapsed: 0.0019519329071044922
ell 431, elapsed: 0.0007660388946533203
ell 430, elapsed: 0.0008451938629150391
ell 429, elapsed: 0.0008318424224853516
ell 428, elapsed: 0.0008311271667480469
ell 422, elapsed: 0.0017919540405273438
ell 421, elapsed: 0.0008878707885742188
ell 420, elapsed: 0.0008449554443359375
ell 419, elapsed: 0.0008411407470703125
ell 418, elapsed: 0.0008680820465087891
ell 412, elapsed: 0.0016379356384277344
ell 411, elapsed: 0.0008411407470703125
ell 410, elapsed: 0.0008530616760253906
ell 409, elapsed: 0.0008270740509033203
ell 408, elapsed: 0.000949859619140625
ell 402, elapsed: 0.0016238689422607422
ell 401, elapsed: 0.0008409023284912109
ell 400, elapsed: 0.0008599758148193359
ell 399, elapsed: 0.0008370876312255859
ell 398, elapsed: 0.0008699893951416016
ell 392, elapsed: 0.001766204833984375
ell 391, elapsed: 0.0007750988006591797
ell 390, elapsed: 0.0008270740509033203
ell 389, elapsed: 0.0008270740509033203
ell 388, elapsed: 0.0008320808410644531
ell 382, elapsed: 0.0016319751739501953
ell 381, elapsed: 0.0008420944213867188
ell 380, elapsed: 0.0008559226989746094
ell 379, elapsed: 0.000843048095703125
ell 378, elapsed: 0.0008611679077148438
ell 372, elapsed: 0.0018188953399658203
ell 371, elapsed: 0.0007920265197753906
ell 370, elapsed: 0.0008440017700195312
ell 369, elapsed: 0.0008478164672851562
ell 368, elapsed: 0.0008480548858642578
ell 362, elapsed: 0.0016160011291503906
ell 361, elapsed: 0.0008552074432373047
ell 360, elapsed: 0.0008320808410644531
ell 359, elapsed: 0.0008330345153808594
ell 358, elapsed: 0.0008409023284912109
ell 352, elapsed: 0.0018308162689208984
ell 351, elapsed: 0.0007970333099365234
ell 350, elapsed: 0.0008320808410644531
ell 349, elapsed: 0.0008389949798583984
ell 348, elapsed: 0.0009441375732421875
ell 342, elapsed: 0.001795053482055664
ell 341, elapsed: 0.0007939338684082031
ell 340, elapsed: 0.0012128353118896484
ell 339, elapsed: 0.0008711814880371094
ell 338, elapsed: 0.0008590221405029297
ell 332, elapsed: 0.0016770362854003906
ell 331, elapsed: 0.0009679794311523438
ell 330, elapsed: 0.0008571147918701172
ell 329, elapsed: 0.0008609294891357422
ell 328, elapsed: 0.0008299350738525391
ell 322, elapsed: 0.0019481182098388672
ell 321, elapsed: 0.0007860660552978516
ell 320, elapsed: 0.0008440017700195312
ell 319, elapsed: 0.0008409023284912109
ell 318, elapsed: 0.0009479522705078125
ell 312, elapsed: 0.0018138885498046875
ell 311, elapsed: 0.0007998943328857422
ell 310, elapsed: 0.0009541511535644531
ell 309, elapsed: 0.0008490085601806641
ell 308, elapsed: 0.0008568763732910156
ell 302, elapsed: 0.0016379356384277344
ell 301, elapsed: 0.0008380413055419922
ell 300, elapsed: 0.0010960102081298828
ell 299, elapsed: 0.0007901191711425781
ell 298, elapsed: 0.0008361339569091797
ell 292, elapsed: 0.0013039112091064453
ell 291, elapsed: 0.00080108642578125
ell 290, elapsed: 0.0008358955383300781
ell 289, elapsed: 0.0006849765777587891
ell 288, elapsed: 0.0007021427154541016
ell 282, elapsed: 0.0018830299377441406
ell 281, elapsed: 0.0008320808410644531
ell 280, elapsed: 0.0008380413055419922
ell 279, elapsed: 0.0008809566497802734
ell 278, elapsed: 0.000865936279296875
ell 272, elapsed: 0.0016710758209228516
ell 271, elapsed: 0.0008668899536132812
ell 270, elapsed: 0.0008549690246582031
ell 269, elapsed: 0.0008511543273925781
ell 268, elapsed: 0.0008351802825927734
ell 262, elapsed: 0.0017969608306884766
ell 261, elapsed: 0.0007829666137695312
ell 260, elapsed: 0.0008180141448974609
ell 259, elapsed: 0.0008339881896972656
ell 258, elapsed: 0.0008451938629150391
ell 252, elapsed: 0.0018939971923828125
ell 251, elapsed: 0.0008318424224853516
ell 250, elapsed: 0.0008289813995361328
ell 249, elapsed: 0.0008518695831298828
ell 248, elapsed: 0.0011010169982910156
ell 242, elapsed: 0.001486063003540039
ell 241, elapsed: 0.002604961395263672
ell 240, elapsed: 0.0007801055908203125
ell 239, elapsed: 0.0006630420684814453
ell 238, elapsed: 0.0007197856903076172
ell 232, elapsed: 0.0012421607971191406
ell 231, elapsed: 0.00061798095703125
ell 230, elapsed: 0.0007829666137695312
ell 229, elapsed: 0.0008351802825927734
ell 228, elapsed: 0.0008909702301025391
ell 222, elapsed: 0.001605987548828125
ell 221, elapsed: 0.0008139610290527344
ell 220, elapsed: 0.0008318424224853516
ell 219, elapsed: 0.0008230209350585938
ell 218, elapsed: 0.0008289813995361328
ell 212, elapsed: 0.0016200542449951172
ell 211, elapsed: 0.0009570121765136719
ell 210, elapsed: 0.0008370876312255859
ell 209, elapsed: 0.0008199214935302734
ell 208, elapsed: 0.0008170604705810547
ell 202, elapsed: 0.0018248558044433594
ell 201, elapsed: 0.0008289813995361328
ell 200, elapsed: 0.0008280277252197266
ell 199, elapsed: 0.0008242130279541016
ell 198, elapsed: 0.0009219646453857422
ell 192, elapsed: 0.002246856689453125
ell 191, elapsed: 0.0009169578552246094
ell 190, elapsed: 0.0009307861328125
ell 189, elapsed: 0.0013020038604736328
ell 188, elapsed: 0.0009770393371582031
ell 182, elapsed: 0.0019359588623046875
ell 181, elapsed: 0.0009179115295410156
ell 180, elapsed: 0.0009081363677978516
ell 179, elapsed: 0.0009100437164306641
ell 178, elapsed: 0.004478931427001953
ell 172, elapsed: 0.0019259452819824219
ell 171, elapsed: 0.0009980201721191406
ell 170, elapsed: 0.0009341239929199219
ell 169, elapsed: 0.0007920265197753906
ell 168, elapsed: 0.0007951259613037109
ell 162, elapsed: 0.0015628337860107422
ell 161, elapsed: 0.0009388923645019531
ell 160, elapsed: 0.0009770393371582031
ell 159, elapsed: 0.0009839534759521484
ell 158, elapsed: 0.0009799003601074219
ell 152, elapsed: 0.0017590522766113281
ell 151, elapsed: 0.0008199214935302734
ell 150, elapsed: 0.000823974609375
ell 149, elapsed: 0.0008459091186523438
ell 148, elapsed: 0.0009839534759521484
ell 142, elapsed: 0.0018591880798339844
ell 141, elapsed: 0.0009450912475585938
ell 140, elapsed: 0.0008449554443359375
ell 139, elapsed: 0.0008089542388916016
ell 138, elapsed: 0.0008370876312255859
ell 132, elapsed: 0.0016400814056396484
ell 131, elapsed: 0.0009849071502685547
ell 130, elapsed: 0.0009810924530029297
ell 129, elapsed: 0.0009810924530029297
ell 128, elapsed: 0.005077838897705078
ell 122, elapsed: 0.0019190311431884766
ell 121, elapsed: 0.0009958744049072266
ell 120, elapsed: 0.005003929138183594
ell 119, elapsed: 0.0009999275207519531
ell 118, elapsed: 0.0009889602661132812
ell 112, elapsed: 0.005941867828369141
ell 111, elapsed: 0.0008511543273925781
ell 110, elapsed: 0.0008308887481689453
ell 109, elapsed: 0.0008089542388916016
ell 108, elapsed: 0.0008218288421630859
ell 102, elapsed: 0.001672983169555664
ell 101, elapsed: 0.003223896026611328
ell 100, elapsed: 0.0031630992889404297
ell 99, elapsed: 0.0031418800354003906
ell 98, elapsed: 0.0032269954681396484
ell 92, elapsed: 0.005837917327880859
ell 91, elapsed: 0.0030908584594726562
ell 90, elapsed: 0.0032520294189453125
ell 89, elapsed: 0.0032050609588623047
ell 88, elapsed: 0.0031430721282958984
ell 82, elapsed: 0.005702972412109375
ell 81, elapsed: 0.003406047821044922
ell 80, elapsed: 0.0032510757446289062
ell 79, elapsed: 0.003305196762084961
ell 78, elapsed: 0.003309965133666992
ell 72, elapsed: 0.005797863006591797
ell 71, elapsed: 0.003192901611328125
ell 70, elapsed: 0.003270864486694336
ell 69, elapsed: 0.0032329559326171875
ell 68, elapsed: 0.003125905990600586
ell 62, elapsed: 0.006043910980224609
ell 61, elapsed: 0.0032320022583007812
ell 60, elapsed: 0.003192901611328125
ell 59, elapsed: 0.0031538009643554688
ell 58, elapsed: 0.0032329559326171875
ell 52, elapsed: 0.006033182144165039
ell 51, elapsed: 0.003515958786010742
ell 50, elapsed: 0.00386810302734375
ell 49, elapsed: 0.003301858901977539
ell 48, elapsed: 0.003262042999267578
ell 42, elapsed: 0.005883932113647461
ell 41, elapsed: 0.0032072067260742188
ell 40, elapsed: 0.003200054168701172
ell 39, elapsed: 0.00360107421875
ell 38, elapsed: 0.003358125686645508
ell 32, elapsed: 0.006033897399902344
ell 31, elapsed: 0.0031218528747558594
ell 30, elapsed: 0.00333404541015625
ell 29, elapsed: 0.003319978713989258
ell 28, elapsed: 0.003325939178466797
ell 22, elapsed: 0.0058629512786865234
ell 21, elapsed: 0.003720998764038086
ell 20, elapsed: 0.0032379627227783203
ell 19, elapsed: 0.0033071041107177734
ell 18, elapsed: 0.003304004669189453
ell 12, elapsed: 0.005875110626220703
ell 11, elapsed: 0.0032279491424560547
ell 10, elapsed: 0.0032660961151123047
ell 9, elapsed: 0.0033249855041503906
ell 8, elapsed: 0.0033102035522460938
  0.843120 seconds (66.75 k allocations: 12.139 MiB)
elapsed: 0.0039730072021484375
step:          0.076483 sec (0 allocations: 0 byte, 0.0% gc time)
swapping:      0.000823 sec (0 allocations: 0 byte, 0.0% gc time)
calc_Mellell!: 0.039394 sec (0 allocations: 0 byte, 0.0% gc time)
  t0 :  0.02263 sec (0 allocations: 0 byte, 0.0% gc time)
  tm2 : 0.077845 sec (0 allocations: 0 byte, 0.0% gc time)
  tm2s: 0.00945 sec (0 allocations: 0 byte, 0.0% gc time)
  tm4 : 0.192366 sec (0 allocations: 0 byte, 0.0% gc time)
  tp2 : 0.0 sec (0 allocations: 0 byte, 0.0% gc time)
  tp2s: 0.0 sec (0 allocations: 0 byte, 0.0% gc time)
  tp4 : 0.0 sec (0 allocations: 0 byte, 0.0% gc time)
calc_wtdll!:   0.582578 sec (49.2 k allocations: 11.133 MB, 0.0% gc time)
calc_wljj!:    0.047732 sec (69 allocations: 1.078 KB, 0.0% gc time)
mult_prefac!:  0.0 sec (0 allocations: 0 byte, 0.0% gc time)
convert:       0.0 sec (0 allocations: 0 byte, 0.0% gc time)
write:         0.045965 sec (0 allocations: 0 byte, 0.0% gc time)
test_rand_2f1: 0.0 sec (0 allocations: 0 byte, 0.0% gc time)
Closing outfile out/MlCache/MlCache.bin...   0.000011 seconds
xi, l=0, nu=0:   0.520041 seconds (551.85 k allocations: 26.842 MiB)
xi, l=0, nu=-2:  0.002887 seconds (144 allocations: 149.562 KiB)
Created 'out/xi.tsv'.
  q=1.1, R=0.6:	  0.852874 seconds (291.08 k allocations: 38.895 MiB, 3.08% gc time)
  q=1.1, R=0.7:	  0.884466 seconds (304.75 k allocations: 40.996 MiB, 1.14% gc time)
  q=1.1, R=0.8:	  0.897885 seconds (299.14 k allocations: 40.132 MiB, 1.05% gc time)
  q=1.1, R=0.9:	  0.999200 seconds (293.57 k allocations: 39.286 MiB, 0.71% gc time)
  q=1.1, R=0.998:	 22.027632 seconds (10.67 M allocations: 823.453 MiB, 0.63% gc time)
  q=1.1, R=1.0:	  0.008538 seconds (10.24 k allocations: 768.375 KiB)

ℓ = 1000
Δℓ = 4
ΔℓRg1 = -4
N = 4096
q = 1.1
kmin = 1.0e-5
kmax = 1000.0
χ0 = 0.001
RR = RR.tsv
ℓmax = ℓmax.bin
f21 = f21.bin
kmin = 1.0e-5
kmax = 1000.0
dlrec    = 4
dlrecRg1 = -4
Output size: 1573632 bytes = 0.0014655590057373047 GiB
Output size: 786816 bytes = 0.0007327795028686523 GiB
Reading 'out/F21EllCache'...   0.001593 seconds (268 allocations: 533.531 KiB)
ellmax: 1002
lmaxcache: 1000
fell[:,1,1] = Complex{Float64}[1.7262928128202118e-224 - 4.2281979352226944e-240im, 1.7282693092099662e-224 - 4.233038955177176e-240im]
ell 1002, elapsed: 2.8133392333984375e-5
ell 1001, elapsed: 0.0015990734100341797
ell 1000, elapsed: 0.0012140274047851562
ell 999, elapsed: 0.006394863128662109
ell 998, elapsed: 0.007420063018798828
ell 44, elapsed: 0.6629328727722168
ell 43, elapsed: 0.006726980209350586
ell 42, elapsed: 0.006894826889038086
ell 41, elapsed: 0.0068280696868896484
ell 40, elapsed: 0.016019821166992188
  0.724828 seconds (4.55 k allocations: 320.031 KiB)
elapsed: 0.00751495361328125
step:          0.658427 sec (0 allocations: 0 byte, 0.0% gc time)
swapping:      0.000613 sec (0 allocations: 0 byte, 0.0% gc time)
calc_Mellell!: 0.001639 sec (0 allocations: 0 byte, 0.0% gc time)
  t0 :  0.000901 sec (0 allocations: 0 byte, 0.0% gc time)
  tm2 : 0.011372 sec (0 allocations: 0 byte, 0.0% gc time)
  tm2s: 0.000777 sec (0 allocations: 0 byte, 0.0% gc time)
  tm4 : 0.042745 sec (0 allocations: 0 byte, 0.0% gc time)
  tp2 : 0.0 sec (0 allocations: 0 byte, 0.0% gc time)
  tp2s: 0.0 sec (0 allocations: 0 byte, 0.0% gc time)
  tp4 : 0.0 sec (0 allocations: 0 byte, 0.0% gc time)
calc_wtdll!:   0.056054 sec (480 allocations: 52.5 KB, 0.0% gc time)
calc_wljj!:    0.001592 sec (1 allocations: 16 byte, 0.0% gc time)
mult_prefac!:  0.0 sec (0 allocations: 0 byte, 0.0% gc time)
convert:       0.0 sec (0 allocations: 0 byte, 0.0% gc time)
write:         0.001023 sec (0 allocations: 0 byte, 0.0% gc time)
test_rand_2f1: 0.0 sec (0 allocations: 0 byte, 0.0% gc time)
Closing outfile out/MlCache/MlCache.bin...   0.001362 seconds
  0.498467 seconds (54 allocations: 67.203 KiB)
make_phi():   0.009420 seconds (80 allocations: 276.297 KiB)
  0.003728 seconds (108 allocations: 5.812 KiB)
tskip:       1.0e-6 sec (0 allocations: 0 byte, 0.0% gc time)
tread:       0.000668 sec (19 allocations: 1.312 KB, 0.0% gc time)
tmultphi:    0.000362 sec (0 allocations: 0 byte, 0.0% gc time)
tbrfft:      0.001291 sec (96 allocations: 4.5 KB, 0.0% gc time)
tmultprefac: 0.001238 sec (0 allocations: 0 byte, 0.0% gc time)
toutfunc:    0.000287 sec (0 allocations: 0 byte, 0.0% gc time)
Created 'out/wl42_jj00.tsv'.
Created 'out/wl42_jj02.tsv'.
   Testing TwoFAST tests passed 
