Julia Version 1.4.3-pre.0
Commit b5f13c3a1a (2020-05-25 19:42 UTC)
Platform Info:
  OS: Linux (x86_64-linux-gnu)
  CPU: Intel(R) Xeon(R) Silver 4114 CPU @ 2.20GHz
  WORD_SIZE: 64
  LIBM: libopenlibm
  LLVM: libLLVM-8.0.1 (ORCJIT, skylake)
Environment:
  JULIA_DEPOT_PATH = ::/usr/local/share/julia
  JULIA_NUM_THREADS = 2

  Resolving package versions...
  Installed MKL_jll ────────────────────── v2019.0.117+2
  Installed FFTW_jll ───────────────────── v3.3.9+5
  Installed IntelOpenMP_jll ────────────── v2018.0.3+0
  Installed LoadFlint ──────────────────── v0.1.3
  Installed SpecialFunctions ───────────── v0.10.3
  Installed FFTW ───────────────────────── v1.2.1
  Installed BinaryProvider ─────────────── v0.5.10
  Installed OpenSpecFun_jll ────────────── v0.5.3+3
  Installed CompilerSupportLibraries_jll ─ v0.3.3+0
  Installed Reexport ───────────────────── v0.2.0
  Installed AbstractFFTs ───────────────── v0.5.0
  Installed AbstractAlgebra ────────────── v0.9.2
  Installed Nemo ───────────────────────── v0.17.5
  Installed TwoFAST ────────────────────── v0.1.1
   Updating `~/.julia/environments/v1.4/Project.toml`
  [0dd23c3e] + TwoFAST v0.1.1
   Updating `~/.julia/environments/v1.4/Manifest.toml`
  [c3fe647b] + AbstractAlgebra v0.9.2
  [621f4979] + AbstractFFTs v0.5.0
  [b99e7846] + BinaryProvider v0.5.10
  [e66e0078] + CompilerSupportLibraries_jll v0.3.3+0
  [7a1cc6ca] + FFTW v1.2.1
  [f5851436] + FFTW_jll v3.3.9+5
  [1d5cc7b8] + IntelOpenMP_jll v2018.0.3+0
  [472f376f] + LoadFlint v0.1.3
  [856f044c] + MKL_jll v2019.0.117+2
  [2edaba10] + Nemo v0.17.5
  [efe28fd5] + OpenSpecFun_jll v0.5.3+3
  [189a3867] + Reexport v0.2.0
  [276daf66] + SpecialFunctions v0.10.3
  [0dd23c3e] + TwoFAST v0.1.1
  [2a0f44e3] + Base64 
  [ade2ca70] + Dates 
  [8bb1440f] + DelimitedFiles 
  [8ba89e20] + Distributed 
  [b77e0a4c] + InteractiveUtils 
  [76f85450] + LibGit2 
  [8f399da3] + Libdl 
  [37e2e46d] + LinearAlgebra 
  [56ddb016] + Logging 
  [d6f4376e] + Markdown 
  [a63ad114] + Mmap 
  [44cfe95a] + Pkg 
  [de0858da] + Printf 
  [3fa0cd96] + REPL 
  [9a3f8284] + Random 
  [ea8e919c] + SHA 
  [9e88b42a] + Serialization 
  [6462fe0b] + Sockets 
  [2f01184e] + SparseArrays 
  [8dfed614] + Test 
  [cf7118a7] + UUIDs 
  [4ec0a83e] + Unicode 
   Building FFTW ─────→ `~/.julia/packages/FFTW/5DZuu/deps/build.log`
   Building LoadFlint → `~/.julia/packages/LoadFlint/42zpR/deps/build.log`
   Building Nemo ─────→ `~/.julia/packages/Nemo/Pc5ui/deps/build.log`
    Testing TwoFAST
Status `/tmp/jl_g6De1u/Manifest.toml`
  [c3fe647b] AbstractAlgebra v0.9.2
  [621f4979] AbstractFFTs v0.5.0
  [b99e7846] BinaryProvider v0.5.10
  [e66e0078] CompilerSupportLibraries_jll v0.3.3+0
  [39dd38d3] Dierckx v0.4.1
  [7a1cc6ca] FFTW v1.2.1
  [f5851436] FFTW_jll v3.3.9+5
  [1d5cc7b8] IntelOpenMP_jll v2018.0.3+0
  [472f376f] LoadFlint v0.1.3
  [856f044c] MKL_jll v2019.0.117+2
  [2edaba10] Nemo v0.17.5
  [efe28fd5] OpenSpecFun_jll v0.5.3+3
  [189a3867] Reexport v0.2.0
  [276daf66] SpecialFunctions v0.10.3
  [0dd23c3e] TwoFAST v0.1.1
  [2a0f44e3] Base64 
  [ade2ca70] Dates 
  [8bb1440f] DelimitedFiles 
  [8ba89e20] Distributed 
  [b77e0a4c] InteractiveUtils 
  [76f85450] LibGit2 
  [8f399da3] Libdl 
  [37e2e46d] LinearAlgebra 
  [56ddb016] Logging 
  [d6f4376e] Markdown 
  [a63ad114] Mmap 
  [44cfe95a] Pkg 
  [de0858da] Printf 
  [3fa0cd96] REPL 
  [9a3f8284] Random 
  [ea8e919c] SHA 
  [9e88b42a] Serialization 
  [6462fe0b] Sockets 
  [2f01184e] SparseArrays 
  [8dfed614] Test 
  [cf7118a7] UUIDs 
  [4ec0a83e] Unicode 
Testing ξ(r), ℓ=0, ν=-1 ... passed
Testing ξ(r), ℓ=0, ν=0 ... passed
Testing ξ(r), ℓ=0, ν=1 ... passed
Testing ξ(r), ℓ=0, ν=2 ... passed
Testing ξ(r), ℓ=0, ν=3 ... passed
Testing ξ(r), ℓ=1, ν=0 ... passed
Testing ξ(r), ℓ=1, ν=1 ... passed
Testing ξ(r), ℓ=1, ν=2 ... passed
Testing ξ(r), ℓ=1, ν=3 ... passed
Testing ξ(r), ℓ=2, ν=-1 ... passed
Testing ξ(r), ℓ=2, ν=0 ... passed
Testing ξ(r), ℓ=2, ν=1 ... passed
Testing ξ(r), ℓ=2, ν=2 ... passed
Testing ξ(r), ℓ=2, ν=3 ... passed
Testing ξ(r), ℓ=3, ν=-1 ... passed
Testing ξ(r), ℓ=3, ν=0 ... passed
Testing ξ(r), ℓ=3, ν=1 ... passed
Testing ξ(r), ℓ=3, ν=2 ... passed
Testing ξ(r), ℓ=3, ν=3 ... passed
Testing ξ(r), ℓ=4, ν=-1 ... passed
Testing ξ(r), ℓ=4, ν=0 ... passed
Testing ξ(r), ℓ=4, ν=1 ... passed
Testing ξ(r), ℓ=4, ν=2 ... passed
Testing ξ(r), ℓ=4, ν=3 ... passed
Testing ξ(r) ... passed
Testing ξ′(r) ... passed
Testing ξ″(r) ... passed
Calculating fmax: 
  dlrec    = 4
  dlrecRg1 = -4
  q=1.1, R=1.1:	  4.785353 seconds (1.39 M allocations: 76.348 MiB, 2.12% gc time)

  4.827782 seconds (1.41 M allocations: 77.458 MiB, 2.10% gc time)
ℓ = 1202
Δℓ = 4
ΔℓRg1 = -4
N = 1600
q = 1.1
kmin = 1.0e-5
kmax = 100000.00000000004
χ0 = 0.023029999999999995
RR = RR.tsv
ℓmax = ℓmax.bin
f21 = f21.bin
kmin = 1.0e-5
kmax = 100000.0
dlrec    = 4
dlrecRg1 = -4
Output size: 5741568 bytes = 0.005347251892089844 GiB
Output size: 51264 bytes = 4.774332046508789e-5 GiB
Reading 'out/F21EllCache'...   0.682984 seconds (320.89 k allocations: 16.472 MiB, 10.69% gc time)
ellmax: 1202
lmaxcache: 1202
fell[:,1,1] = Complex{Float64}[3.9583795592771634e-52 - 9.695233714158177e-68im, 3.990121772925759e-52 - 9.772979714843386e-68im]
ell 1202, elapsed: 0.00017595291137695312
ell 1201, elapsed: 2.4610249996185303
ell 1200, elapsed: 0.0005080699920654297
ell 1199, elapsed: 0.00046515464782714844
ell 1198, elapsed: 0.0004658699035644531
ell 1002, elapsed: 0.00917506217956543
ell 1001, elapsed: 0.0005021095275878906
ell 1000, elapsed: 0.0004930496215820312
ell 999, elapsed: 0.00047779083251953125
ell 998, elapsed: 0.00047397613525390625
ell 902, elapsed: 0.0048449039459228516
ell 901, elapsed: 0.0004899501800537109
ell 900, elapsed: 0.00047588348388671875
ell 899, elapsed: 0.00047779083251953125
ell 898, elapsed: 0.0004889965057373047
ell 802, elapsed: 0.00479888916015625
ell 801, elapsed: 0.0004730224609375
ell 800, elapsed: 0.00046181678771972656
ell 799, elapsed: 0.0004699230194091797
ell 798, elapsed: 0.0004639625549316406
ell 702, elapsed: 0.0047550201416015625
ell 701, elapsed: 0.0005052089691162109
ell 700, elapsed: 0.0004718303680419922
ell 699, elapsed: 0.0004820823669433594
ell 698, elapsed: 0.000476837158203125
ell 602, elapsed: 0.004879951477050781
ell 601, elapsed: 0.0004930496215820312
ell 600, elapsed: 0.0004799365997314453
ell 599, elapsed: 0.0004930496215820312
ell 598, elapsed: 0.0004818439483642578
ell 502, elapsed: 0.0048367977142333984
ell 501, elapsed: 0.0004980564117431641
ell 500, elapsed: 0.0004868507385253906
ell 499, elapsed: 0.0004999637603759766
ell 498, elapsed: 0.0005538463592529297
ell 402, elapsed: 0.00496220588684082
ell 401, elapsed: 0.0004949569702148438
ell 400, elapsed: 0.00047588348388671875
ell 399, elapsed: 0.00047898292541503906
ell 398, elapsed: 0.0004868507385253906
ell 302, elapsed: 0.008980989456176758
ell 301, elapsed: 0.0005021095275878906
ell 300, elapsed: 0.0004799365997314453
ell 299, elapsed: 0.0004870891571044922
ell 298, elapsed: 0.0005021095275878906
ell 202, elapsed: 0.00504302978515625
ell 201, elapsed: 0.0005040168762207031
ell 200, elapsed: 0.00049591064453125
ell 199, elapsed: 0.0004601478576660156
ell 198, elapsed: 0.0004718303680419922
ell 152, elapsed: 0.0026378631591796875
ell 151, elapsed: 0.0005009174346923828
ell 150, elapsed: 0.0004730224609375
ell 149, elapsed: 0.00047707557678222656
ell 148, elapsed: 0.00048089027404785156
ell 127, elapsed: 0.0014958381652832031
ell 126, elapsed: 0.0004999637603759766
ell 125, elapsed: 0.0004742145538330078
ell 124, elapsed: 0.0004730224609375
ell 123, elapsed: 0.00047588348388671875
ell 114, elapsed: 0.0008828639984130859
ell 113, elapsed: 0.0004820823669433594
ell 112, elapsed: 0.0004820823669433594
ell 111, elapsed: 0.00047707557678222656
ell 110, elapsed: 0.0004792213439941406
ell 102, elapsed: 0.0009179115295410156
ell 101, elapsed: 0.0004830360412597656
ell 100, elapsed: 0.0004780292510986328
ell 99, elapsed: 0.0004749298095703125
ell 98, elapsed: 0.0004937648773193359
ell 97, elapsed: 0.0005559921264648438
ell 96, elapsed: 0.0006608963012695312
ell 95, elapsed: 0.0005021095275878906
ell 94, elapsed: 0.0005869865417480469
ell 93, elapsed: 0.0005230903625488281
ell 92, elapsed: 0.0005838871002197266
ell 91, elapsed: 0.0004909038543701172
ell 90, elapsed: 0.0005891323089599609
ell 89, elapsed: 0.0005168914794921875
ell 88, elapsed: 0.0005698204040527344
ell 87, elapsed: 0.0004911422729492188
ell 86, elapsed: 0.0005729198455810547
ell 85, elapsed: 0.0005061626434326172
ell 84, elapsed: 0.0005829334259033203
ell 83, elapsed: 0.0005269050598144531
ell 82, elapsed: 0.0005841255187988281
ell 81, elapsed: 0.0005159378051757812
ell 80, elapsed: 0.0005550384521484375
ell 79, elapsed: 0.0005052089691162109
ell 78, elapsed: 0.0005710124969482422
ell 77, elapsed: 0.0005118846893310547
ell 76, elapsed: 0.0005960464477539062
ell 75, elapsed: 0.0005140304565429688
ell 74, elapsed: 0.0006060600280761719
ell 73, elapsed: 0.0005748271942138672
ell 72, elapsed: 0.0005750656127929688
ell 71, elapsed: 0.0005102157592773438
ell 70, elapsed: 0.0006330013275146484
ell 69, elapsed: 0.0006520748138427734
ell 68, elapsed: 0.0005681514739990234
ell 67, elapsed: 0.00049591064453125
ell 66, elapsed: 0.0005629062652587891
ell 65, elapsed: 0.0005419254302978516
ell 64, elapsed: 0.0006248950958251953
ell 63, elapsed: 0.0005919933319091797
ell 62, elapsed: 0.0005869865417480469
ell 61, elapsed: 0.0005118846893310547
ell 60, elapsed: 0.0005669593811035156
ell 59, elapsed: 0.0005128383636474609
ell 58, elapsed: 0.0005769729614257812
ell 57, elapsed: 0.0004971027374267578
ell 56, elapsed: 0.0006520748138427734
ell 55, elapsed: 0.0005090236663818359
ell 54, elapsed: 0.0005800724029541016
ell 53, elapsed: 0.0005130767822265625
ell 52, elapsed: 0.0006718635559082031
ell 51, elapsed: 0.0005171298980712891
ell 50, elapsed: 0.0005850791931152344
ell 49, elapsed: 0.0006258487701416016
ell 48, elapsed: 0.0005891323089599609
ell 47, elapsed: 0.0005178451538085938
ell 46, elapsed: 0.0005819797515869141
ell 45, elapsed: 0.0005090236663818359
ell 44, elapsed: 0.0005769729614257812
ell 43, elapsed: 0.0005118846893310547
ell 42, elapsed: 0.0006649494171142578
ell 41, elapsed: 0.0005121231079101562
ell 40, elapsed: 0.0005741119384765625
ell 39, elapsed: 0.000514984130859375
ell 38, elapsed: 0.0005660057067871094
ell 37, elapsed: 0.0005171298980712891
ell 36, elapsed: 0.0006020069122314453
ell 35, elapsed: 0.0005171298980712891
ell 34, elapsed: 0.0005879402160644531
ell 33, elapsed: 0.0005030632019042969
ell 32, elapsed: 0.000576019287109375
ell 31, elapsed: 0.0005218982696533203
ell 30, elapsed: 0.0006530284881591797
ell 29, elapsed: 0.0005259513854980469
ell 28, elapsed: 0.0006170272827148438
ell 27, elapsed: 0.0005681514739990234
ell 26, elapsed: 0.0005669593811035156
ell 25, elapsed: 0.0004999637603759766
ell 24, elapsed: 0.0005750656127929688
ell 23, elapsed: 0.0005130767822265625
ell 22, elapsed: 0.0005810260772705078
ell 21, elapsed: 0.0004930496215820312
ell 20, elapsed: 0.0005819797515869141
ell 19, elapsed: 0.0005078315734863281
ell 18, elapsed: 0.0005719661712646484
ell 17, elapsed: 0.000514984130859375
ell 16, elapsed: 0.0005788803100585938
ell 15, elapsed: 0.0005280971527099609
ell 14, elapsed: 0.0005769729614257812
ell 13, elapsed: 0.0005140304565429688
ell 12, elapsed: 0.0005650520324707031
ell 11, elapsed: 0.0004980564117431641
ell 10, elapsed: 0.0005769729614257812
ell 9, elapsed: 0.0005118846893310547
ell 8, elapsed: 0.0006339550018310547
ell 7, elapsed: 0.0005059242248535156
ell 6, elapsed: 0.0005860328674316406
ell 5, elapsed: 0.0005099773406982422
ell 4, elapsed: 0.0005800724029541016
ell 3, elapsed: 0.0005300045013427734
ell 2, elapsed: 0.0006539821624755859
ell 1, elapsed: 0.0006148815155029297
ell 0, elapsed: 0.0005710124969482422
  3.373394 seconds (2.03 M allocations: 98.017 MiB, 2.24% gc time)
elapsed: 0.0006108283996582031
step:          0.768176 sec (593.763 k allocations: 28.702 MB, 0.0% gc time)
swapping:      0.000553 sec (0 allocations: 0 byte, 0.0% gc time)
calc_Mellell!: 0.663399 sec (389.769 k allocations: 19.053 MB, 0.0% gc time)
  t0 :  0.0 sec (0 allocations: 0 byte, 0.0% gc time)
  tm2 : 0.0 sec (0 allocations: 0 byte, 0.0% gc time)
  tm2s: 0.0 sec (0 allocations: 0 byte, 0.0% gc time)
  tm4 : 0.0 sec (0 allocations: 0 byte, 0.0% gc time)
  tp2 : 0.0 sec (0 allocations: 0 byte, 0.0% gc time)
  tp2s: 0.0 sec (0 allocations: 0 byte, 0.0% gc time)
  tp4 : 0.0 sec (0 allocations: 0 byte, 0.0% gc time)
calc_wtdll!:   1.151039 sec (526.101 k allocations: 26.389 MB, 4.17% gc time)
calc_wljj!:    0.003196 sec (6 allocations: 96 byte, 0.0% gc time)
mult_prefac!:  0.0 sec (0 allocations: 0 byte, 0.0% gc time)
convert:       0.0 sec (0 allocations: 0 byte, 0.0% gc time)
write:         0.00436 sec (0 allocations: 0 byte, 0.0% gc time)
test_rand_2f1: 0.0 sec (0 allocations: 0 byte, 0.0% gc time)
Closing outfile out/Ml21-cache.bin...   0.000087 seconds
  3.480409 seconds (856.45 k allocations: 81.693 MiB, 0.93% gc time)
make_phi():   0.043722 seconds (8.33 k allocations: 250.531 KiB)
  0.339186 seconds (179.04 k allocations: 11.507 MiB)
tskip:       2.6e-5 sec (0 allocations: 0 byte, 0.0% gc time)
tread:       0.00288 sec (19 allocations: 2.172 KB, 0.0% gc time)
tmultphi:    0.053589 sec (26.022 k allocations: 1.338 MB, 0.0% gc time)
tbrfft:      0.104399 sec (58.223 k allocations: 5.646 MB, 0.0% gc time)
tmultprefac: 0.003584 sec (0 allocations: 0 byte, 0.0% gc time)
toutfunc:    0.174567 sec (94.126 k allocations: 4.451 MB, 0.0% gc time)
Testing R=1.1 ... passed
Calculating fmax: 
  dlrec    = 4
  dlrecRg1 = -4
  q=1.1, R=1.0:	  0.001663 seconds (4.00 k allocations: 300.375 KiB)

  0.004690 seconds (4.04 k allocations: 335.062 KiB)
ℓ = 1202
Δℓ = 4
ΔℓRg1 = -4
N = 1600
q = 1.1
kmin = 1.0e-5
kmax = 100000.00000000004
χ0 = 0.023029999999999995
RR = RR.tsv
ℓmax = ℓmax.bin
f21 = f21.bin
kmin = 1.0e-5
kmax = 100000.0
dlrec    = 4
dlrecRg1 = -4
Output size: 61465536 bytes = 0.05724424123764038 GiB
Output size: 51264 bytes = 4.774332046508789e-5 GiB
Reading 'out/F21EllCache'...   0.001106 seconds (267 allocations: 84.656 KiB)
ellmax: 1202
lmaxcache: 1202
fell[:,1,1] = Complex{Float64}[809.6031528389767 - 1.9829558194077161e-13im, 0.0 + 0.0im]
ell 1202, elapsed: 0.0002760887145996094
ell 1201, elapsed: 0.015285015106201172
ell 1200, elapsed: 0.0006709098815917969
ell 1199, elapsed: 0.0008242130279541016
ell 1198, elapsed: 0.0009229183197021484
ell 1197, elapsed: 0.0006759166717529297
ell 1196, elapsed: 0.0006990432739257812
ell 1195, elapsed: 0.0007460117340087891
ell 1194, elapsed: 0.0006937980651855469
ell 1193, elapsed: 0.0007951259613037109
ell 1192, elapsed: 0.0008301734924316406
ell 1191, elapsed: 0.0009069442749023438
ell 1190, elapsed: 0.0004949569702148438
ell 1189, elapsed: 0.0007460117340087891
ell 1188, elapsed: 0.0007121562957763672
ell 1187, elapsed: 0.0005640983581542969
ell 1186, elapsed: 0.00049591064453125
ell 1185, elapsed: 0.0005521774291992188
ell 1184, elapsed: 0.0004951953887939453
ell 1183, elapsed: 0.0005350112915039062
ell 1182, elapsed: 0.00047707557678222656
ell 1181, elapsed: 0.0005471706390380859
ell 1180, elapsed: 0.0005030632019042969
ell 1179, elapsed: 0.0005540847778320312
ell 1178, elapsed: 0.0004980564117431641
ell 1177, elapsed: 0.0005309581756591797
ell 1176, elapsed: 0.0004930496215820312
ell 1175, elapsed: 0.0007030963897705078
ell 1174, elapsed: 0.0004811286926269531
ell 1173, elapsed: 0.0005249977111816406
ell 1172, elapsed: 0.0005040168762207031
ell 1171, elapsed: 0.0005729198455810547
ell 1170, elapsed: 0.000469207763671875
ell 1169, elapsed: 0.0005459785461425781
ell 1168, elapsed: 0.0004839897155761719
ell 1167, elapsed: 0.0005359649658203125
ell 1166, elapsed: 0.0004978179931640625
ell 1165, elapsed: 0.0005500316619873047
ell 1164, elapsed: 0.0004661083221435547
ell 1163, elapsed: 0.0005450248718261719
ell 1162, elapsed: 0.0004620552062988281
ell 1161, elapsed: 0.0005400180816650391
ell 1160, elapsed: 0.0004830360412597656
ell 1159, elapsed: 0.0005369186401367188
ell 1158, elapsed: 0.00047397613525390625
ell 1157, elapsed: 0.0007569789886474609
ell 1156, elapsed: 0.0005199909210205078
ell 1155, elapsed: 0.0005259513854980469
ell 1154, elapsed: 0.0004820823669433594
ell 1153, elapsed: 0.0005459785461425781
ell 1152, elapsed: 0.0004630088806152344
ell 1151, elapsed: 0.0005290508270263672
ell 1150, elapsed: 0.00049591064453125
ell 1149, elapsed: 0.0005500316619873047
ell 1148, elapsed: 0.0004849433898925781
ell 1147, elapsed: 0.00055694580078125
ell 1146, elapsed: 0.0004858970642089844
ell 1145, elapsed: 0.0005371570587158203
ell 1144, elapsed: 0.0004909038543701172
ell 1143, elapsed: 0.0005629062652587891
ell 1142, elapsed: 0.00048089027404785156
ell 1141, elapsed: 0.0006639957427978516
ell 1140, elapsed: 0.00046896934509277344
ell 1139, elapsed: 0.0005550384521484375
ell 1138, elapsed: 0.0004608631134033203
ell 1137, elapsed: 0.0005438327789306641
ell 1136, elapsed: 0.00047588348388671875
ell 1135, elapsed: 0.0005929470062255859
ell 1134, elapsed: 0.0005707740783691406
ell 1133, elapsed: 0.0006330013275146484
ell 1132, elapsed: 0.0005731582641601562
ell 1131, elapsed: 0.0006999969482421875
ell 1130, elapsed: 0.0006160736083984375
ell 1129, elapsed: 0.0006079673767089844
ell 1128, elapsed: 0.00047898292541503906
ell 1127, elapsed: 0.0007200241088867188
ell 1126, elapsed: 0.0006220340728759766
ell 1125, elapsed: 0.0007140636444091797
ell 1124, elapsed: 0.0006170272827148438
ell 1123, elapsed: 0.0007150173187255859
ell 1122, elapsed: 0.0006451606750488281
ell 1121, elapsed: 0.0006949901580810547
ell 1120, elapsed: 0.0006251335144042969
ell 1119, elapsed: 0.0007150173187255859
ell 1118, elapsed: 0.0006289482116699219
ell 1117, elapsed: 0.0005800724029541016
ell 1116, elapsed: 0.00040984153747558594
ell 1115, elapsed: 0.0004630088806152344
ell 1114, elapsed: 0.00039196014404296875
ell 1113, elapsed: 0.00045800209045410156
ell 1112, elapsed: 0.0003941059112548828
ell 1111, elapsed: 0.00044989585876464844
ell 1110, elapsed: 0.00038504600524902344
ell 1109, elapsed: 0.00045299530029296875
ell 1108, elapsed: 0.00039315223693847656
ell 1107, elapsed: 0.00046896934509277344
ell 1106, elapsed: 0.0004010200500488281
ell 1105, elapsed: 0.0005750656127929688
ell 1104, elapsed: 0.000518798828125
ell 1103, elapsed: 0.00045680999755859375
ell 1102, elapsed: 0.000392913818359375
ell 1101, elapsed: 0.00045013427734375
ell 1100, elapsed: 0.00039696693420410156
ell 1099, elapsed: 0.0004820823669433594
ell 1098, elapsed: 0.00039887428283691406
ell 1097, elapsed: 0.00045800209045410156
ell 1096, elapsed: 0.0003960132598876953
ell 1095, elapsed: 0.00045490264892578125
ell 1094, elapsed: 0.0003998279571533203
ell 1093, elapsed: 0.0004611015319824219
ell 1092, elapsed: 0.00039505958557128906
ell 1091, elapsed: 0.0004620552062988281
ell 1090, elapsed: 0.00041794776916503906
ell 1089, elapsed: 0.0005869865417480469
ell 1088, elapsed: 0.0004839897155761719
ell 1087, elapsed: 0.0004470348358154297
ell 1086, elapsed: 0.00038909912109375
ell 1085, elapsed: 0.00045609474182128906
ell 1084, elapsed: 0.0006160736083984375
ell 1083, elapsed: 0.0005841255187988281
ell 1082, elapsed: 0.0005211830139160156
ell 1081, elapsed: 0.0007140636444091797
ell 1080, elapsed: 0.0006279945373535156
ell 1079, elapsed: 0.0007050037384033203
ell 1078, elapsed: 0.0006210803985595703
ell 1077, elapsed: 0.0007338523864746094
ell 1076, elapsed: 0.0006279945373535156
ell 1075, elapsed: 0.0007081031799316406
ell 1074, elapsed: 0.0006470680236816406
ell 1073, elapsed: 0.0005850791931152344
ell 1072, elapsed: 0.0004189014434814453
ell 1071, elapsed: 0.0004928112030029297
ell 1070, elapsed: 0.0004119873046875
ell 1069, elapsed: 0.0005030632019042969
ell 1068, elapsed: 0.00041604042053222656
ell 1067, elapsed: 0.00046896934509277344
ell 1066, elapsed: 0.0004200935363769531
ell 1065, elapsed: 0.0004839897155761719
ell 1064, elapsed: 0.0004191398620605469
ell 1063, elapsed: 0.0006678104400634766
ell 1062, elapsed: 0.0004839897155761719
ell 1061, elapsed: 0.0004870891571044922
ell 1060, elapsed: 0.0004210472106933594
ell 1059, elapsed: 0.0004868507385253906
ell 1058, elapsed: 0.0004200935363769531
ell 1057, elapsed: 0.0004868507385253906
ell 1056, elapsed: 0.0004200935363769531
ell 1055, elapsed: 0.0004971027374267578
ell 1054, elapsed: 0.00041484832763671875
ell 1053, elapsed: 0.0004858970642089844
ell 1052, elapsed: 0.0004210472106933594
ell 1051, elapsed: 0.00048089027404785156
ell 1050, elapsed: 0.0004150867462158203
ell 1049, elapsed: 0.00047397613525390625
ell 1048, elapsed: 0.0004119873046875
ell 1047, elapsed: 0.00046181678771972656
ell 1046, elapsed: 0.00040602684020996094
ell 1045, elapsed: 0.00045299530029296875
ell 1044, elapsed: 0.0004189014434814453
ell 1043, elapsed: 0.00045299530029296875
ell 1042, elapsed: 0.00039315223693847656
ell 1041, elapsed: 0.00045299530029296875
ell 1040, elapsed: 0.0003991127014160156
ell 1039, elapsed: 0.0004589557647705078
ell 1038, elapsed: 0.0004150867462158203
ell 1037, elapsed: 0.0005459785461425781
ell 1036, elapsed: 0.0006189346313476562
ell 1035, elapsed: 0.0006299018859863281
ell 1034, elapsed: 0.0004038810729980469
ell 1033, elapsed: 0.0004811286926269531
ell 1032, elapsed: 0.00041103363037109375
ell 1031, elapsed: 0.0004730224609375
ell 1030, elapsed: 0.0004520416259765625
ell 1029, elapsed: 0.0004570484161376953
ell 1028, elapsed: 0.0004010200500488281
ell 1027, elapsed: 0.0004620552062988281
ell 1026, elapsed: 0.00039196014404296875
ell 1025, elapsed: 0.0004611015319824219
ell 1024, elapsed: 0.00038695335388183594
ell 1023, elapsed: 0.0004520416259765625
ell 1022, elapsed: 0.00041103363037109375
ell 1021, elapsed: 0.00045299530029296875
ell 1020, elapsed: 0.00044798851013183594
ell 1019, elapsed: 0.0006389617919921875
ell 1018, elapsed: 0.0005729198455810547
ell 1017, elapsed: 0.0005271434783935547
ell 1016, elapsed: 0.0005030632019042969
ell 1015, elapsed: 0.000598907470703125
ell 1014, elapsed: 0.000392913818359375
ell 1013, elapsed: 0.0004649162292480469
ell 1012, elapsed: 0.0005240440368652344
ell 1011, elapsed: 0.0005650520324707031
ell 1010, elapsed: 0.00039887428283691406
ell 1009, elapsed: 0.00045299530029296875
ell 1008, elapsed: 0.0005109310150146484
ell 1007, elapsed: 0.0005948543548583984
ell 1006, elapsed: 0.0005078315734863281
ell 1005, elapsed: 0.0007061958312988281
ell 1004, elapsed: 0.00045609474182128906
ell 1003, elapsed: 0.0004451274871826172
ell 1002, elapsed: 0.0005171298980712891
ell 1001, elapsed: 0.0005800724029541016
ell 1000, elapsed: 0.0004839897155761719
ell 999, elapsed: 0.0006480216979980469
ell 998, elapsed: 0.00039315223693847656
ell 997, elapsed: 0.0004551410675048828
ell 996, elapsed: 0.00038909912109375
ell 995, elapsed: 0.0006060600280761719
ell 994, elapsed: 0.0004699230194091797
ell 993, elapsed: 0.00046515464782714844
ell 992, elapsed: 0.0005600452423095703
ell 991, elapsed: 0.0006451606750488281
ell 990, elapsed: 0.0005719661712646484
ell 989, elapsed: 0.0005309581756591797
ell 988, elapsed: 0.0005300045013427734
ell 987, elapsed: 0.0005750656127929688
ell 986, elapsed: 0.0005509853363037109
ell 985, elapsed: 0.0006239414215087891
ell 984, elapsed: 0.0006721019744873047
ell 983, elapsed: 0.0005269050598144531
ell 982, elapsed: 0.0004489421844482422
ell 981, elapsed: 0.0007579326629638672
ell 980, elapsed: 0.0004429817199707031
ell 979, elapsed: 0.0005128383636474609
ell 978, elapsed: 0.00045013427734375
ell 977, elapsed: 0.0005240440368652344
ell 976, elapsed: 0.00044798851013183594
ell 975, elapsed: 0.0005130767822265625
ell 974, elapsed: 0.0004570484161376953
ell 973, elapsed: 0.0006990432739257812
ell 972, elapsed: 0.0006248950958251953
ell 971, elapsed: 0.0005240440368652344
ell 970, elapsed: 0.00045299530029296875
ell 969, elapsed: 0.0005130767822265625
ell 968, elapsed: 0.00045609474182128906
ell 967, elapsed: 0.0005190372467041016
ell 966, elapsed: 0.00047397613525390625
ell 965, elapsed: 0.0005199909210205078
ell 964, elapsed: 0.000453948974609375
ell 963, elapsed: 0.0005211830139160156
ell 962, elapsed: 0.00045609474182128906
ell 961, elapsed: 0.0005180835723876953
ell 960, elapsed: 0.0006680488586425781
ell 959, elapsed: 0.0005359649658203125
ell 958, elapsed: 0.00067901611328125
ell 957, elapsed: 0.0005278587341308594
ell 956, elapsed: 0.0006859302520751953
ell 955, elapsed: 0.0005440711975097656
ell 954, elapsed: 0.0004470348358154297
ell 953, elapsed: 0.0005249977111816406
ell 952, elapsed: 0.0006101131439208984
ell 951, elapsed: 0.0007109642028808594
ell 950, elapsed: 0.0004909038543701172
ell 949, elapsed: 0.0006668567657470703
ell 948, elapsed: 0.0006918907165527344
ell 947, elapsed: 0.0007610321044921875
ell 946, elapsed: 0.0004830360412597656
ell 945, elapsed: 0.0006909370422363281
ell 944, elapsed: 0.0004839897155761719
ell 943, elapsed: 0.0005369186401367188
ell 942, elapsed: 0.0006430149078369141
ell 941, elapsed: 0.0005340576171875
ell 940, elapsed: 0.00045609474182128906
ell 939, elapsed: 0.0005171298980712891
ell 938, elapsed: 0.0004718303680419922
ell 937, elapsed: 0.0005109310150146484
ell 936, elapsed: 0.00046706199645996094
ell 935, elapsed: 0.0005271434783935547
ell 934, elapsed: 0.00045990943908691406
ell 933, elapsed: 0.0007078647613525391
ell 932, elapsed: 0.0004780292510986328
ell 931, elapsed: 0.0005178451538085938
ell 930, elapsed: 0.000453948974609375
ell 929, elapsed: 0.0005159378051757812
ell 928, elapsed: 0.0004520416259765625
ell 927, elapsed: 0.0005199909210205078
ell 926, elapsed: 0.00045990943908691406
ell 925, elapsed: 0.0005371570587158203
ell 924, elapsed: 0.0004401206970214844
ell 923, elapsed: 0.0005178451538085938
ell 922, elapsed: 0.0004360675811767578
ell 921, elapsed: 0.0007090568542480469
ell 920, elapsed: 0.00045990943908691406
ell 919, elapsed: 0.0004990100860595703
ell 918, elapsed: 0.0004470348358154297
ell 917, elapsed: 0.0006780624389648438
ell 916, elapsed: 0.0006330013275146484
ell 915, elapsed: 0.0007429122924804688
ell 914, elapsed: 0.0006461143493652344
ell 913, elapsed: 0.0005209445953369141
ell 912, elapsed: 0.0004439353942871094
ell 911, elapsed: 0.0007150173187255859
ell 910, elapsed: 0.0004649162292480469
ell 909, elapsed: 0.0006799697875976562
ell 908, elapsed: 0.00045299530029296875
ell 907, elapsed: 0.0006701946258544922
ell 906, elapsed: 0.0006361007690429688
ell 905, elapsed: 0.0005109310150146484
ell 904, elapsed: 0.0004360675811767578
ell 903, elapsed: 0.0007319450378417969
ell 902, elapsed: 0.0005650520324707031
ell 901, elapsed: 0.0007610321044921875
ell 900, elapsed: 0.00045800209045410156
ell 899, elapsed: 0.0005209445953369141
ell 898, elapsed: 0.0005650520324707031
ell 897, elapsed: 0.0005669593811035156
ell 896, elapsed: 0.00045108795166015625
ell 895, elapsed: 0.0007150173187255859
ell 894, elapsed: 0.0004630088806152344
ell 893, elapsed: 0.0007059574127197266
ell 892, elapsed: 0.0004601478576660156
ell 891, elapsed: 0.0006380081176757812
ell 890, elapsed: 0.0004909038543701172
ell 889, elapsed: 0.0005350112915039062
ell 888, elapsed: 0.0006389617919921875
ell 887, elapsed: 0.0006680488586425781
ell 886, elapsed: 0.0004608631134033203
ell 885, elapsed: 0.0005178451538085938
ell 884, elapsed: 0.00045418739318847656
ell 883, elapsed: 0.0005261898040771484
ell 882, elapsed: 0.0005979537963867188
ell 881, elapsed: 0.0007410049438476562
ell 880, elapsed: 0.0006258487701416016
ell 879, elapsed: 0.0005590915679931641
ell 878, elapsed: 0.0006480216979980469
ell 877, elapsed: 0.0007369518280029297
ell 876, elapsed: 0.0006420612335205078
ell 875, elapsed: 0.0005779266357421875
ell 874, elapsed: 0.0006349086761474609
ell 873, elapsed: 0.0005819797515869141
ell 872, elapsed: 0.0005998611450195312
ell 871, elapsed: 0.0005669593811035156
ell 870, elapsed: 0.0006461143493652344
ell 869, elapsed: 0.0005090236663818359
ell 868, elapsed: 0.0005850791931152344
ell 867, elapsed: 0.00057220458984375
ell 866, elapsed: 0.0004360675811767578
ell 865, elapsed: 0.0004868507385253906
ell 864, elapsed: 0.0004830360412597656
ell 863, elapsed: 0.0007350444793701172
ell 862, elapsed: 0.0006151199340820312
ell 861, elapsed: 0.0007457733154296875
ell 860, elapsed: 0.0005970001220703125
ell 859, elapsed: 0.0005660057067871094
ell 858, elapsed: 0.00045609474182128906
ell 857, elapsed: 0.000553131103515625
ell 856, elapsed: 0.0006229877471923828
ell 855, elapsed: 0.000514984130859375
ell 854, elapsed: 0.0006349086761474609
ell 853, elapsed: 0.0007569789886474609
ell 852, elapsed: 0.0004558563232421875
ell 851, elapsed: 0.0007369518280029297
ell 850, elapsed: 0.0005848407745361328
ell 849, elapsed: 0.0005559921264648438
ell 848, elapsed: 0.0004520416259765625
ell 847, elapsed: 0.0004889965057373047
ell 846, elapsed: 0.00047206878662109375
ell 845, elapsed: 0.0004949569702148438
ell 844, elapsed: 0.00045299530029296875
ell 843, elapsed: 0.0005030632019042969
ell 842, elapsed: 0.0006458759307861328
ell 841, elapsed: 0.00074005126953125
ell 840, elapsed: 0.0006539821624755859
ell 839, elapsed: 0.0007939338684082031
ell 838, elapsed: 0.0004980564117431641
ell 837, elapsed: 0.0005290508270263672
ell 836, elapsed: 0.00045609474182128906
ell 835, elapsed: 0.0005300045013427734
ell 834, elapsed: 0.00045990943908691406
ell 833, elapsed: 0.0005528926849365234
ell 832, elapsed: 0.0004611015319824219
ell 831, elapsed: 0.000537872314453125
ell 830, elapsed: 0.0004520416259765625
ell 829, elapsed: 0.0005240440368652344
ell 828, elapsed: 0.00044989585876464844
ell 827, elapsed: 0.0005421638488769531
ell 826, elapsed: 0.00044798851013183594
ell 825, elapsed: 0.0005230903625488281
ell 824, elapsed: 0.00044989585876464844
ell 823, elapsed: 0.0005290508270263672
ell 822, elapsed: 0.0004608631134033203
ell 821, elapsed: 0.0005431175231933594
ell 820, elapsed: 0.0004520416259765625
ell 819, elapsed: 0.0005171298980712891
ell 818, elapsed: 0.00045299530029296875
ell 817, elapsed: 0.0005338191986083984
ell 816, elapsed: 0.0004551410675048828
ell 815, elapsed: 0.0005440711975097656
ell 814, elapsed: 0.0004589557647705078
ell 813, elapsed: 0.0005240440368652344
ell 812, elapsed: 0.00046181678771972656
ell 811, elapsed: 0.0005230903625488281
ell 810, elapsed: 0.0004470348358154297
ell 809, elapsed: 0.0005629062652587891
ell 808, elapsed: 0.0004508495330810547
ell 807, elapsed: 0.0005269050598144531
ell 806, elapsed: 0.00045180320739746094
ell 805, elapsed: 0.0005240440368652344
ell 804, elapsed: 0.0004570484161376953
ell 803, elapsed: 0.0005431175231933594
ell 802, elapsed: 0.00045013427734375
ell 801, elapsed: 0.0005259513854980469
ell 800, elapsed: 0.00045680999755859375
ell 799, elapsed: 0.0005290508270263672
ell 798, elapsed: 0.0005700588226318359
ell 797, elapsed: 0.0005311965942382812
ell 796, elapsed: 0.0004520416259765625
ell 795, elapsed: 0.0005230903625488281
ell 794, elapsed: 0.00045013427734375
ell 793, elapsed: 0.0005240440368652344
ell 792, elapsed: 0.00045299530029296875
ell 791, elapsed: 0.0005259513854980469
ell 790, elapsed: 0.00045609474182128906
ell 789, elapsed: 0.0005218982696533203
ell 788, elapsed: 0.00045490264892578125
ell 787, elapsed: 0.0005259513854980469
ell 786, elapsed: 0.0006258487701416016
ell 785, elapsed: 0.0005340576171875
ell 784, elapsed: 0.00044798851013183594
ell 783, elapsed: 0.0007290840148925781
ell 782, elapsed: 0.00045800209045410156
ell 781, elapsed: 0.0005249977111816406
ell 780, elapsed: 0.0004799365997314453
ell 779, elapsed: 0.0005261898040771484
ell 778, elapsed: 0.0006411075592041016
ell 777, elapsed: 0.0005469322204589844
ell 776, elapsed: 0.0004611015319824219
ell 775, elapsed: 0.0005340576171875
ell 774, elapsed: 0.00045299530029296875
ell 773, elapsed: 0.0005099773406982422
ell 772, elapsed: 0.0005891323089599609
ell 771, elapsed: 0.0005397796630859375
ell 770, elapsed: 0.0004448890686035156
ell 769, elapsed: 0.0005331039428710938
ell 768, elapsed: 0.00045490264892578125
ell 767, elapsed: 0.0005137920379638672
ell 766, elapsed: 0.0004570484161376953
ell 765, elapsed: 0.0005290508270263672
ell 764, elapsed: 0.00045013427734375
ell 763, elapsed: 0.0005359649658203125
ell 762, elapsed: 0.0006499290466308594
ell 761, elapsed: 0.0005300045013427734
ell 760, elapsed: 0.00043702125549316406
ell 759, elapsed: 0.0005238056182861328
ell 758, elapsed: 0.0004570484161376953
ell 757, elapsed: 0.0005209445953369141
ell 756, elapsed: 0.00045990943908691406
ell 755, elapsed: 0.0005338191986083984
ell 754, elapsed: 0.0004601478576660156
ell 753, elapsed: 0.0007469654083251953
ell 752, elapsed: 0.0006709098815917969
ell 751, elapsed: 0.0005249977111816406
ell 750, elapsed: 0.0004489421844482422
ell 749, elapsed: 0.0007359981536865234
ell 748, elapsed: 0.0004761219024658203
ell 747, elapsed: 0.0005190372467041016
ell 746, elapsed: 0.00045800209045410156
ell 745, elapsed: 0.0005199909210205078
ell 744, elapsed: 0.0004608631134033203
ell 743, elapsed: 0.0005218982696533203
ell 742, elapsed: 0.0005869865417480469
ell 741, elapsed: 0.0005631446838378906
ell 740, elapsed: 0.0004448890686035156
ell 739, elapsed: 0.0006320476531982422
ell 738, elapsed: 0.0004839897155761719
ell 737, elapsed: 0.0005180835723876953
ell 736, elapsed: 0.00045299530029296875
ell 735, elapsed: 0.0005321502685546875
ell 734, elapsed: 0.0004570484161376953
ell 733, elapsed: 0.0005199909210205078
ell 732, elapsed: 0.0006151199340820312
ell 731, elapsed: 0.0005400180816650391
ell 730, elapsed: 0.00045490264892578125
ell 729, elapsed: 0.0005190372467041016
ell 728, elapsed: 0.00045800209045410156
ell 727, elapsed: 0.000514984130859375
ell 726, elapsed: 0.00045299530029296875
ell 725, elapsed: 0.0005218982696533203
ell 724, elapsed: 0.0006868839263916016
ell 723, elapsed: 0.0005178451538085938
ell 722, elapsed: 0.00044989585876464844
ell 721, elapsed: 0.0006401538848876953
ell 720, elapsed: 0.00047898292541503906
ell 719, elapsed: 0.0005290508270263672
ell 718, elapsed: 0.00047087669372558594
ell 717, elapsed: 0.0005218982696533203
ell 716, elapsed: 0.0004601478576660156
ell 715, elapsed: 0.0005180835723876953
ell 714, elapsed: 0.0004520416259765625
ell 713, elapsed: 0.0005190372467041016
ell 712, elapsed: 0.00047206878662109375
ell 711, elapsed: 0.0006959438323974609
ell 710, elapsed: 0.0004668235778808594
ell 709, elapsed: 0.00055694580078125
ell 708, elapsed: 0.0004551410675048828
ell 707, elapsed: 0.0005249977111816406
ell 706, elapsed: 0.00045800209045410156
ell 705, elapsed: 0.0005300045013427734
ell 704, elapsed: 0.00046896934509277344
ell 703, elapsed: 0.0005118846893310547
ell 702, elapsed: 0.00044989585876464844
ell 701, elapsed: 0.0005140304565429688
ell 700, elapsed: 0.0004508495330810547
ell 699, elapsed: 0.0005109310150146484
ell 698, elapsed: 0.0004458427429199219
ell 697, elapsed: 0.0005118846893310547
ell 696, elapsed: 0.0004470348358154297
ell 695, elapsed: 0.0005180835723876953
ell 694, elapsed: 0.0006139278411865234
ell 693, elapsed: 0.0006430149078369141
ell 692, elapsed: 0.0004668235778808594
ell 691, elapsed: 0.00061798095703125
ell 690, elapsed: 0.0006461143493652344
ell 689, elapsed: 0.0006999969482421875
ell 688, elapsed: 0.0006601810455322266
ell 687, elapsed: 0.0007469654083251953
ell 686, elapsed: 0.00046181678771972656
ell 685, elapsed: 0.0005350112915039062
ell 684, elapsed: 0.0004620552062988281
ell 683, elapsed: 0.0005199909210205078
ell 682, elapsed: 0.000453948974609375
ell 681, elapsed: 0.0005259513854980469
ell 680, elapsed: 0.0004508495330810547
ell 679, elapsed: 0.0005350112915039062
ell 678, elapsed: 0.0004508495330810547
ell 677, elapsed: 0.0005078315734863281
ell 676, elapsed: 0.0004520416259765625
ell 675, elapsed: 0.0005321502685546875
ell 674, elapsed: 0.00045990943908691406
ell 673, elapsed: 0.0005319118499755859
ell 672, elapsed: 0.0004448890686035156
ell 671, elapsed: 0.0005121231079101562
ell 670, elapsed: 0.0004589557647705078
ell 669, elapsed: 0.0007238388061523438
ell 668, elapsed: 0.0006461143493652344
ell 667, elapsed: 0.0005338191986083984
ell 666, elapsed: 0.0004470348358154297
ell 665, elapsed: 0.0006749629974365234
ell 664, elapsed: 0.0006229877471923828
ell 663, elapsed: 0.0007410049438476562
ell 662, elapsed: 0.0006160736083984375
ell 661, elapsed: 0.0007181167602539062
ell 660, elapsed: 0.0005857944488525391
ell 659, elapsed: 0.0005390644073486328
ell 658, elapsed: 0.0005900859832763672
ell 657, elapsed: 0.0005497932434082031
ell 656, elapsed: 0.0004448890686035156
ell 655, elapsed: 0.0006990432739257812
ell 654, elapsed: 0.0005979537963867188
ell 653, elapsed: 0.0008139610290527344
ell 652, elapsed: 0.0004620552062988281
ell 651, elapsed: 0.0007281303405761719
ell 650, elapsed: 0.0005638599395751953
ell 649, elapsed: 0.0007939338684082031
ell 648, elapsed: 0.0004620552062988281
ell 647, elapsed: 0.0007369518280029297
ell 646, elapsed: 0.0004639625549316406
ell 645, elapsed: 0.0007271766662597656
ell 644, elapsed: 0.00044083595275878906
ell 643, elapsed: 0.0005390644073486328
ell 642, elapsed: 0.0004470348358154297
ell 641, elapsed: 0.0005140304565429688
ell 640, elapsed: 0.00043582916259765625
ell 639, elapsed: 0.0007238388061523438
ell 638, elapsed: 0.0004570484161376953
ell 637, elapsed: 0.0005199909210205078
ell 636, elapsed: 0.0006020069122314453
ell 635, elapsed: 0.0005209445953369141
ell 634, elapsed: 0.0003921985626220703
ell 633, elapsed: 0.0004611015319824219
ell 632, elapsed: 0.0003981590270996094
ell 631, elapsed: 0.00047397613525390625
ell 630, elapsed: 0.0003960132598876953
ell 629, elapsed: 0.000453948974609375
ell 628, elapsed: 0.0003979206085205078
ell 627, elapsed: 0.0004570484161376953
ell 626, elapsed: 0.00039577484130859375
ell 625, elapsed: 0.0004508495330810547
ell 624, elapsed: 0.0003859996795654297
ell 623, elapsed: 0.0004620552062988281
ell 622, elapsed: 0.0004699230194091797
ell 621, elapsed: 0.0007250308990478516
ell 620, elapsed: 0.0004990100860595703
ell 619, elapsed: 0.0005629062652587891
ell 618, elapsed: 0.00041484832763671875
ell 617, elapsed: 0.0004749298095703125
ell 616, elapsed: 0.0005769729614257812
ell 615, elapsed: 0.0006399154663085938
ell 614, elapsed: 0.0005011558532714844
ell 613, elapsed: 0.0006029605865478516
ell 612, elapsed: 0.0005319118499755859
ell 611, elapsed: 0.0004889965057373047
ell 610, elapsed: 0.0004069805145263672
ell 609, elapsed: 0.0005121231079101562
ell 608, elapsed: 0.0004088878631591797
ell 607, elapsed: 0.0004520416259765625
ell 606, elapsed: 0.00041794776916503906
ell 605, elapsed: 0.0004761219024658203
ell 604, elapsed: 0.0004248619079589844
ell 603, elapsed: 0.0004801750183105469
ell 602, elapsed: 0.00041413307189941406
ell 601, elapsed: 0.00046181678771972656
ell 600, elapsed: 0.0003979206085205078
ell 599, elapsed: 0.0004608631134033203
ell 598, elapsed: 0.0004119873046875
ell 597, elapsed: 0.0005400180816650391
ell 596, elapsed: 0.00046896934509277344
ell 595, elapsed: 0.0005431175231933594
ell 594, elapsed: 0.0004439353942871094
ell 593, elapsed: 0.0005431175231933594
ell 592, elapsed: 0.0004839897155761719
ell 591, elapsed: 0.0005660057067871094
ell 590, elapsed: 0.00048804283142089844
ell 589, elapsed: 0.0006690025329589844
ell 588, elapsed: 0.0005750656127929688
ell 587, elapsed: 0.0005900859832763672
ell 586, elapsed: 0.0006320476531982422
ell 585, elapsed: 0.0005278587341308594
ell 584, elapsed: 0.0004761219024658203
ell 583, elapsed: 0.0005419254302978516
ell 582, elapsed: 0.0005688667297363281
ell 581, elapsed: 0.0005400180816650391
ell 580, elapsed: 0.00040602684020996094
ell 579, elapsed: 0.0004830360412597656
ell 578, elapsed: 0.0006959438323974609
ell 577, elapsed: 0.0005109310150146484
ell 576, elapsed: 0.0005049705505371094
ell 575, elapsed: 0.0005931854248046875
ell 574, elapsed: 0.0007569789886474609
ell 573, elapsed: 0.0006341934204101562
ell 572, elapsed: 0.0007560253143310547
ell 571, elapsed: 0.000865936279296875
ell 570, elapsed: 0.0007219314575195312
ell 569, elapsed: 0.0006260871887207031
ell 568, elapsed: 0.0005538463592529297
ell 567, elapsed: 0.0006201267242431641
ell 566, elapsed: 0.0007379055023193359
ell 565, elapsed: 0.00061798095703125
ell 564, elapsed: 0.0007441043853759766
ell 563, elapsed: 0.0006098747253417969
ell 562, elapsed: 0.0007410049438476562
ell 561, elapsed: 0.0008838176727294922
ell 560, elapsed: 0.0005650520324707031
ell 559, elapsed: 0.0006220340728759766
ell 558, elapsed: 0.0004930496215820312
ell 557, elapsed: 0.0005249977111816406
ell 556, elapsed: 0.0005140304565429688
ell 555, elapsed: 0.0006198883056640625
ell 554, elapsed: 0.0005500316619873047
ell 553, elapsed: 0.0005819797515869141
ell 552, elapsed: 0.0005381107330322266
ell 551, elapsed: 0.0005309581756591797
ell 550, elapsed: 0.0006761550903320312
ell 549, elapsed: 0.0006229877471923828
ell 548, elapsed: 0.0007669925689697266
ell 547, elapsed: 0.0005979537963867188
ell 546, elapsed: 0.0005078315734863281
ell 545, elapsed: 0.0008158683776855469
ell 544, elapsed: 0.0005080699920654297
ell 543, elapsed: 0.0006170272827148438
ell 542, elapsed: 0.0005540847778320312
ell 541, elapsed: 0.0005688667297363281
ell 540, elapsed: 0.0004851818084716797
ell 539, elapsed: 0.0005991458892822266
ell 538, elapsed: 0.0005879402160644531
ell 537, elapsed: 0.0006268024444580078
ell 536, elapsed: 0.000720977783203125
ell 535, elapsed: 0.0005640983581542969
ell 534, elapsed: 0.0006651878356933594
ell 533, elapsed: 0.0005660057067871094
ell 532, elapsed: 0.0006861686706542969
ell 531, elapsed: 0.0008039474487304688
ell 530, elapsed: 0.0005278587341308594
ell 529, elapsed: 0.0005381107330322266
ell 528, elapsed: 0.0005269050598144531
ell 527, elapsed: 0.0008769035339355469
ell 526, elapsed: 0.0006020069122314453
ell 525, elapsed: 0.0007600784301757812
ell 524, elapsed: 0.0007901191711425781
ell 523, elapsed: 0.0005550384521484375
ell 522, elapsed: 0.0007889270782470703
ell 521, elapsed: 0.0008699893951416016
ell 520, elapsed: 0.0007479190826416016
ell 519, elapsed: 0.0009081363677978516
ell 518, elapsed: 0.0005769729614257812
ell 517, elapsed: 0.0008549690246582031
ell 516, elapsed: 0.0005650520324707031
ell 515, elapsed: 0.0006430149078369141
ell 514, elapsed: 0.0005609989166259766
ell 513, elapsed: 0.000659942626953125
ell 512, elapsed: 0.0005638599395751953
ell 511, elapsed: 0.0006508827209472656
ell 510, elapsed: 0.0005710124969482422
ell 509, elapsed: 0.0006568431854248047
ell 508, elapsed: 0.0005679130554199219
ell 507, elapsed: 0.0006308555603027344
ell 506, elapsed: 0.0005619525909423828
ell 505, elapsed: 0.0006721019744873047
ell 504, elapsed: 0.0005509853363037109
ell 503, elapsed: 0.0006361007690429688
ell 502, elapsed: 0.0007050037384033203
ell 501, elapsed: 0.0006480216979980469
ell 500, elapsed: 0.0007841587066650391
ell 499, elapsed: 0.0006239414215087891
ell 498, elapsed: 0.0005478858947753906
ell 497, elapsed: 0.0005140304565429688
ell 496, elapsed: 0.0004401206970214844
ell 495, elapsed: 0.0006289482116699219
ell 494, elapsed: 0.0005087852478027344
ell 493, elapsed: 0.00047588348388671875
ell 492, elapsed: 0.0004019737243652344
ell 491, elapsed: 0.0005381107330322266
ell 490, elapsed: 0.00045990943908691406
ell 489, elapsed: 0.0005998611450195312
ell 488, elapsed: 0.0005209445953369141
ell 487, elapsed: 0.0005578994750976562
ell 486, elapsed: 0.0005249977111816406
ell 485, elapsed: 0.0005929470062255859
ell 484, elapsed: 0.0005190372467041016
ell 483, elapsed: 0.0005548000335693359
ell 482, elapsed: 0.0007250308990478516
ell 481, elapsed: 0.0006501674652099609
ell 480, elapsed: 0.0004570484161376953
ell 479, elapsed: 0.0005819797515869141
ell 478, elapsed: 0.00047707557678222656
ell 477, elapsed: 0.0007948875427246094
ell 476, elapsed: 0.0005052089691162109
ell 475, elapsed: 0.0007660388946533203
ell 474, elapsed: 0.0005340576171875
ell 473, elapsed: 0.0008192062377929688
ell 472, elapsed: 0.0007479190826416016
ell 471, elapsed: 0.0008118152618408203
ell 470, elapsed: 0.0005259513854980469
ell 469, elapsed: 0.0005400180816650391
ell 468, elapsed: 0.0006859302520751953
ell 467, elapsed: 0.0005979537963867188
ell 466, elapsed: 0.0005331039428710938
ell 465, elapsed: 0.0008080005645751953
ell 464, elapsed: 0.0006988048553466797
ell 463, elapsed: 0.0008318424224853516
ell 462, elapsed: 0.0006690025329589844
ell 461, elapsed: 0.0008230209350585938
ell 460, elapsed: 0.0005350112915039062
ell 459, elapsed: 0.0008699893951416016
ell 458, elapsed: 0.0007719993591308594
ell 457, elapsed: 0.0005438327789306641
ell 456, elapsed: 0.0005178451538085938
ell 455, elapsed: 0.0007910728454589844
ell 454, elapsed: 0.0005390644073486328
ell 453, elapsed: 0.000843048095703125
ell 452, elapsed: 0.000514984130859375
ell 451, elapsed: 0.0007510185241699219
ell 450, elapsed: 0.0006761550903320312
ell 449, elapsed: 0.0006480216979980469
ell 448, elapsed: 0.0005278587341308594
ell 447, elapsed: 0.0005459785461425781
ell 446, elapsed: 0.0007791519165039062
ell 445, elapsed: 0.0008649826049804688
ell 444, elapsed: 0.0007588863372802734
ell 443, elapsed: 0.0008280277252197266
ell 442, elapsed: 0.000698089599609375
ell 441, elapsed: 0.0008001327514648438
ell 440, elapsed: 0.0007891654968261719
ell 439, elapsed: 0.0006279945373535156
ell 438, elapsed: 0.0007128715515136719
ell 437, elapsed: 0.0008440017700195312
ell 436, elapsed: 0.0005109310150146484
ell 435, elapsed: 0.0007929801940917969
ell 434, elapsed: 0.0005218982696533203
ell 433, elapsed: 0.0006010532379150391
ell 432, elapsed: 0.0006940364837646484
ell 431, elapsed: 0.0006189346313476562
ell 430, elapsed: 0.0007090568542480469
ell 429, elapsed: 0.0007739067077636719
ell 428, elapsed: 0.0005218982696533203
ell 427, elapsed: 0.0008640289306640625
ell 426, elapsed: 0.0007150173187255859
ell 425, elapsed: 0.0008511543273925781
ell 424, elapsed: 0.0007491111755371094
ell 423, elapsed: 0.0008020401000976562
ell 422, elapsed: 0.0007109642028808594
ell 421, elapsed: 0.0008490085601806641
ell 420, elapsed: 0.0007140636444091797
ell 419, elapsed: 0.0005970001220703125
ell 418, elapsed: 0.0005152225494384766
ell 417, elapsed: 0.0008330345153808594
ell 416, elapsed: 0.0005249977111816406
ell 415, elapsed: 0.0005359649658203125
ell 414, elapsed: 0.0006840229034423828
ell 413, elapsed: 0.0008101463317871094
ell 412, elapsed: 0.0005209445953369141
ell 411, elapsed: 0.0005769729614257812
ell 410, elapsed: 0.0007319450378417969
ell 409, elapsed: 0.0005428791046142578
ell 408, elapsed: 0.00045490264892578125
ell 407, elapsed: 0.0005729198455810547
ell 406, elapsed: 0.0004019737243652344
ell 405, elapsed: 0.0005240440368652344
ell 404, elapsed: 0.0004520416259765625
ell 403, elapsed: 0.0005390644073486328
ell 402, elapsed: 0.000514984130859375
ell 401, elapsed: 0.0006561279296875
ell 400, elapsed: 0.00040793418884277344
ell 399, elapsed: 0.0005290508270263672
ell 398, elapsed: 0.00045418739318847656
ell 397, elapsed: 0.0005228519439697266
ell 396, elapsed: 0.00045013427734375
ell 395, elapsed: 0.0005261898040771484
ell 394, elapsed: 0.00045990943908691406
ell 393, elapsed: 0.0005140304565429688
ell 392, elapsed: 0.00045108795166015625
ell 391, elapsed: 0.0005068778991699219
ell 390, elapsed: 0.0005259513854980469
ell 389, elapsed: 0.0006988048553466797
ell 388, elapsed: 0.0005290508270263672
ell 387, elapsed: 0.00047779083251953125
ell 386, elapsed: 0.0004570484161376953
ell 385, elapsed: 0.0007920265197753906
ell 384, elapsed: 0.0004570484161376953
ell 383, elapsed: 0.0005381107330322266
ell 382, elapsed: 0.00044918060302734375
ell 381, elapsed: 0.0005080699920654297
ell 380, elapsed: 0.00045299530029296875
ell 379, elapsed: 0.0006060600280761719
ell 378, elapsed: 0.0006971359252929688
ell 377, elapsed: 0.0009520053863525391
ell 376, elapsed: 0.0006511211395263672
ell 375, elapsed: 0.0005888938903808594
ell 374, elapsed: 0.0005159378051757812
ell 373, elapsed: 0.0006041526794433594
ell 372, elapsed: 0.0005581378936767578
ell 371, elapsed: 0.0008769035339355469
ell 370, elapsed: 0.0005240440368652344
ell 369, elapsed: 0.0007610321044921875
ell 368, elapsed: 0.0007140636444091797
ell 367, elapsed: 0.0006139278411865234
ell 366, elapsed: 0.0005140304565429688
ell 365, elapsed: 0.0007810592651367188
ell 364, elapsed: 0.0005128383636474609
ell 363, elapsed: 0.0006289482116699219
ell 362, elapsed: 0.0005180835723876953
ell 361, elapsed: 0.0005919933319091797
ell 360, elapsed: 0.0005159378051757812
ell 359, elapsed: 0.0005409717559814453
ell 358, elapsed: 0.000698089599609375
ell 357, elapsed: 0.0006501674652099609
ell 356, elapsed: 0.0005481243133544922
ell 355, elapsed: 0.0006911754608154297
ell 354, elapsed: 0.0005168914794921875
ell 353, elapsed: 0.0005991458892822266
ell 352, elapsed: 0.0005421638488769531
ell 351, elapsed: 0.0008671283721923828
ell 350, elapsed: 0.0005450248718261719
ell 349, elapsed: 0.000576019287109375
ell 348, elapsed: 0.0007691383361816406
ell 347, elapsed: 0.0004858970642089844
ell 346, elapsed: 0.0006279945373535156
ell 345, elapsed: 0.0008630752563476562
ell 344, elapsed: 0.0007748603820800781
ell 343, elapsed: 0.0006098747253417969
ell 342, elapsed: 0.0005509853363037109
ell 341, elapsed: 0.0005779266357421875
ell 340, elapsed: 0.0004870891571044922
ell 339, elapsed: 0.0005462169647216797
ell 338, elapsed: 0.0005478858947753906
ell 337, elapsed: 0.0005657672882080078
ell 336, elapsed: 0.0007581710815429688
ell 335, elapsed: 0.0005369186401367188
ell 334, elapsed: 0.00047516822814941406
ell 333, elapsed: 0.000579833984375
ell 332, elapsed: 0.00047397613525390625
ell 331, elapsed: 0.0008449554443359375
ell 330, elapsed: 0.0005309581756591797
ell 329, elapsed: 0.0005719661712646484
ell 328, elapsed: 0.0007510185241699219
ell 327, elapsed: 0.0006239414215087891
ell 326, elapsed: 0.0005362033843994141
ell 325, elapsed: 0.0006189346313476562
ell 324, elapsed: 0.0005419254302978516
ell 323, elapsed: 0.0008380413055419922
ell 322, elapsed: 0.0006480216979980469
ell 321, elapsed: 0.0006189346313476562
ell 320, elapsed: 0.0007560253143310547
ell 319, elapsed: 0.0008568763732910156
ell 318, elapsed: 0.0005450248718261719
ell 317, elapsed: 0.0006241798400878906
ell 316, elapsed: 0.0006718635559082031
ell 315, elapsed: 0.000637054443359375
ell 314, elapsed: 0.0005600452423095703
ell 313, elapsed: 0.0006120204925537109
ell 312, elapsed: 0.0005412101745605469
ell 311, elapsed: 0.0008578300476074219
ell 310, elapsed: 0.0007250308990478516
ell 309, elapsed: 0.0006411075592041016
ell 308, elapsed: 0.0008039474487304688
ell 307, elapsed: 0.0006411075592041016
ell 306, elapsed: 0.0005919933319091797
ell 305, elapsed: 0.0006811618804931641
ell 304, elapsed: 0.00045609474182128906
ell 303, elapsed: 0.0006608963012695312
ell 302, elapsed: 0.0006289482116699219
ell 301, elapsed: 0.0007231235504150391
ell 300, elapsed: 0.0006449222564697266
ell 299, elapsed: 0.0005707740783691406
ell 298, elapsed: 0.0003750324249267578
ell 297, elapsed: 0.000659942626953125
ell 296, elapsed: 0.0006208419799804688
ell 295, elapsed: 0.0006937980651855469
ell 294, elapsed: 0.0004909038543701172
ell 293, elapsed: 0.00045800209045410156
ell 292, elapsed: 0.0003859996795654297
ell 291, elapsed: 0.0006270408630371094
ell 290, elapsed: 0.0005321502685546875
ell 289, elapsed: 0.0005731582641601562
ell 288, elapsed: 0.0005319118499755859
ell 287, elapsed: 0.0006730556488037109
ell 286, elapsed: 0.0005679130554199219
ell 285, elapsed: 0.0005769729614257812
ell 284, elapsed: 0.0003941059112548828
ell 283, elapsed: 0.00045609474182128906
ell 282, elapsed: 0.00039196014404296875
ell 281, elapsed: 0.0004649162292480469
ell 280, elapsed: 0.0003910064697265625
ell 279, elapsed: 0.0004780292510986328
ell 278, elapsed: 0.0005130767822265625
ell 277, elapsed: 0.0006799697875976562
ell 276, elapsed: 0.0005459785461425781
ell 275, elapsed: 0.0006549358367919922
ell 274, elapsed: 0.0006220340728759766
ell 273, elapsed: 0.0005779266357421875
ell 272, elapsed: 0.00038695335388183594
ell 271, elapsed: 0.0004611015319824219
ell 270, elapsed: 0.0005121231079101562
ell 269, elapsed: 0.0005979537963867188
ell 268, elapsed: 0.00038695335388183594
ell 267, elapsed: 0.0006349086761474609
ell 266, elapsed: 0.0004611015319824219
ell 265, elapsed: 0.0005750656127929688
ell 264, elapsed: 0.0006210803985595703
ell 263, elapsed: 0.0006351470947265625
ell 262, elapsed: 0.0006420612335205078
ell 261, elapsed: 0.0007648468017578125
ell 260, elapsed: 0.0004761219024658203
ell 259, elapsed: 0.0005280971527099609
ell 258, elapsed: 0.0006010532379150391
ell 257, elapsed: 0.0008091926574707031
ell 256, elapsed: 0.0006110668182373047
ell 255, elapsed: 0.0007910728454589844
ell 254, elapsed: 0.0005800724029541016
ell 253, elapsed: 0.0005910396575927734
ell 252, elapsed: 0.00045299530029296875
ell 251, elapsed: 0.0005428791046142578
ell 250, elapsed: 0.0006620883941650391
ell 249, elapsed: 0.0007829666137695312
ell 248, elapsed: 0.0004649162292480469
ell 247, elapsed: 0.0005059242248535156
ell 246, elapsed: 0.0004520416259765625
ell 245, elapsed: 0.0005249977111816406
ell 244, elapsed: 0.0004398822784423828
ell 243, elapsed: 0.0005340576171875
ell 242, elapsed: 0.0004811286926269531
ell 241, elapsed: 0.0005729198455810547
ell 240, elapsed: 0.0004949569702148438
ell 239, elapsed: 0.0005478858947753906
ell 238, elapsed: 0.000637054443359375
ell 237, elapsed: 0.0005679130554199219
ell 236, elapsed: 0.000476837158203125
ell 235, elapsed: 0.0005490779876708984
ell 234, elapsed: 0.0004661083221435547
ell 233, elapsed: 0.0005540847778320312
ell 232, elapsed: 0.0004820823669433594
ell 231, elapsed: 0.0005259513854980469
ell 230, elapsed: 0.0004711151123046875
ell 229, elapsed: 0.0005400180816650391
ell 228, elapsed: 0.0004749298095703125
ell 227, elapsed: 0.0005500316619873047
ell 226, elapsed: 0.0004799365997314453
ell 225, elapsed: 0.0005710124969482422
ell 224, elapsed: 0.00048089027404785156
ell 223, elapsed: 0.0007390975952148438
ell 222, elapsed: 0.00047588348388671875
ell 221, elapsed: 0.0008268356323242188
ell 220, elapsed: 0.0005161762237548828
ell 219, elapsed: 0.0005350112915039062
ell 218, elapsed: 0.0004711151123046875
ell 217, elapsed: 0.0008001327514648438
ell 216, elapsed: 0.0005109310150146484
ell 215, elapsed: 0.0005509853363037109
ell 214, elapsed: 0.0006389617919921875
ell 213, elapsed: 0.000537872314453125
ell 212, elapsed: 0.00045990943908691406
ell 211, elapsed: 0.0005481243133544922
ell 210, elapsed: 0.0004830360412597656
ell 209, elapsed: 0.0007500648498535156
ell 208, elapsed: 0.0004589557647705078
ell 207, elapsed: 0.00078582763671875
ell 206, elapsed: 0.0007410049438476562
ell 205, elapsed: 0.0007619857788085938
ell 204, elapsed: 0.0004818439483642578
ell 203, elapsed: 0.0007309913635253906
ell 202, elapsed: 0.0004639625549316406
ell 201, elapsed: 0.0007719993591308594
ell 200, elapsed: 0.0004639625549316406
ell 199, elapsed: 0.0005497932434082031
ell 198, elapsed: 0.0006840229034423828
ell 197, elapsed: 0.0005519390106201172
ell 196, elapsed: 0.0007269382476806641
ell 195, elapsed: 0.0008268356323242188
ell 194, elapsed: 0.0006310939788818359
ell 193, elapsed: 0.0008580684661865234
ell 192, elapsed: 0.0005018711090087891
ell 191, elapsed: 0.0008192062377929688
ell 190, elapsed: 0.0004971027374267578
ell 189, elapsed: 0.0005309581756591797
ell 188, elapsed: 0.0004870891571044922
ell 187, elapsed: 0.0005478858947753906
ell 186, elapsed: 0.0007290840148925781
ell 185, elapsed: 0.0008120536804199219
ell 184, elapsed: 0.0004889965057373047
ell 183, elapsed: 0.000804901123046875
ell 182, elapsed: 0.0007250308990478516
ell 181, elapsed: 0.0007500648498535156
ell 180, elapsed: 0.0006539821624755859
ell 179, elapsed: 0.0005359649658203125
ell 178, elapsed: 0.00031304359436035156
ell 177, elapsed: 0.0003619194030761719
ell 176, elapsed: 0.00030493736267089844
ell 175, elapsed: 0.00035691261291503906
ell 174, elapsed: 0.0002970695495605469
ell 173, elapsed: 0.00035190582275390625
ell 172, elapsed: 0.0002970695495605469
ell 171, elapsed: 0.0003581047058105469
ell 170, elapsed: 0.00030112266540527344
ell 169, elapsed: 0.0003528594970703125
ell 168, elapsed: 0.0002970695495605469
ell 167, elapsed: 0.0003440380096435547
ell 166, elapsed: 0.0002961158752441406
ell 165, elapsed: 0.00035190582275390625
ell 164, elapsed: 0.0002970695495605469
ell 163, elapsed: 0.00035190582275390625
ell 162, elapsed: 0.0002968311309814453
ell 161, elapsed: 0.00035691261291503906
ell 160, elapsed: 0.0002968311309814453
ell 159, elapsed: 0.0003509521484375
ell 158, elapsed: 0.00030994415283203125
ell 157, elapsed: 0.0003509521484375
ell 156, elapsed: 0.0002949237823486328
ell 155, elapsed: 0.0003418922424316406
ell 154, elapsed: 0.0002930164337158203
ell 153, elapsed: 0.00034999847412109375
ell 152, elapsed: 0.00029587745666503906
ell 151, elapsed: 0.00035500526428222656
ell 150, elapsed: 0.0002949237823486328
ell 149, elapsed: 0.00035309791564941406
ell 148, elapsed: 0.0002961158752441406
ell 147, elapsed: 0.0004100799560546875
ell 146, elapsed: 0.0004019737243652344
ell 145, elapsed: 0.0005328655242919922
ell 144, elapsed: 0.00047898292541503906
ell 143, elapsed: 0.0005540847778320312
ell 142, elapsed: 0.0005381107330322266
ell 141, elapsed: 0.0007290840148925781
ell 140, elapsed: 0.00047397613525390625
ell 139, elapsed: 0.0007441043853759766
ell 138, elapsed: 0.0006740093231201172
ell 137, elapsed: 0.000759124755859375
ell 136, elapsed: 0.0005450248718261719
ell 135, elapsed: 0.0004639625549316406
ell 134, elapsed: 0.00041413307189941406
ell 133, elapsed: 0.0004658699035644531
ell 132, elapsed: 0.0003991127014160156
ell 131, elapsed: 0.0004680156707763672
ell 130, elapsed: 0.00039505958557128906
ell 129, elapsed: 0.0004630088806152344
ell 128, elapsed: 0.0004019737243652344
ell 127, elapsed: 0.0004658699035644531
ell 126, elapsed: 0.00039696693420410156
ell 125, elapsed: 0.00047397613525390625
ell 124, elapsed: 0.0003972053527832031
ell 123, elapsed: 0.0004551410675048828
ell 122, elapsed: 0.0004069805145263672
ell 121, elapsed: 0.00046896934509277344
ell 120, elapsed: 0.0004019737243652344
ell 119, elapsed: 0.00045800209045410156
ell 118, elapsed: 0.0003981590270996094
ell 117, elapsed: 0.0004591941833496094
ell 116, elapsed: 0.00041103363037109375
ell 115, elapsed: 0.0004589557647705078
ell 114, elapsed: 0.0003981590270996094
ell 113, elapsed: 0.000453948974609375
ell 112, elapsed: 0.00039696693420410156
ell 111, elapsed: 0.0004649162292480469
ell 110, elapsed: 0.0004019737243652344
ell 109, elapsed: 0.00046706199645996094
ell 108, elapsed: 0.00041604042053222656
ell 107, elapsed: 0.00046515464782714844
ell 106, elapsed: 0.00039887428283691406
ell 105, elapsed: 0.0004630088806152344
ell 104, elapsed: 0.0004019737243652344
ell 103, elapsed: 0.00045299530029296875
ell 102, elapsed: 0.0003981590270996094
ell 101, elapsed: 0.0004591941833496094
ell 100, elapsed: 0.0003991127014160156
ell 99, elapsed: 0.00047016143798828125
ell 98, elapsed: 0.0003998279571533203
ell 97, elapsed: 0.0004591941833496094
ell 96, elapsed: 0.0003998279571533203
ell 95, elapsed: 0.0004661083221435547
ell 94, elapsed: 0.0004038810729980469
ell 93, elapsed: 0.00046515464782714844
ell 92, elapsed: 0.00041294097900390625
ell 91, elapsed: 0.00046896934509277344
ell 90, elapsed: 0.00040411949157714844
ell 89, elapsed: 0.0004642009735107422
ell 88, elapsed: 0.0004591941833496094
ell 87, elapsed: 0.000579833984375
ell 86, elapsed: 0.0004849433898925781
ell 85, elapsed: 0.0005621910095214844
ell 84, elapsed: 0.0004889965057373047
ell 83, elapsed: 0.0005688667297363281
ell 82, elapsed: 0.0004830360412597656
ell 81, elapsed: 0.0005550384521484375
ell 80, elapsed: 0.0004830360412597656
ell 79, elapsed: 0.0005660057067871094
ell 78, elapsed: 0.0004889965057373047
ell 77, elapsed: 0.0005631446838378906
ell 76, elapsed: 0.0004990100860595703
ell 75, elapsed: 0.0005660057067871094
ell 74, elapsed: 0.00048279762268066406
ell 73, elapsed: 0.0006210803985595703
ell 72, elapsed: 0.0006530284881591797
ell 71, elapsed: 0.0005619525909423828
ell 70, elapsed: 0.0004839897155761719
ell 69, elapsed: 0.000576019287109375
ell 68, elapsed: 0.0004839897155761719
ell 67, elapsed: 0.00055694580078125
ell 66, elapsed: 0.0004799365997314453
ell 65, elapsed: 0.0005559921264648438
ell 64, elapsed: 0.00048089027404785156
ell 63, elapsed: 0.0005581378936767578
ell 62, elapsed: 0.0005018711090087891
ell 61, elapsed: 0.0005578994750976562
ell 60, elapsed: 0.0004820823669433594
ell 59, elapsed: 0.0005540847778320312
ell 58, elapsed: 0.00048279762268066406
ell 57, elapsed: 0.0005621910095214844
ell 56, elapsed: 0.0004878044128417969
ell 55, elapsed: 0.0005841255187988281
ell 54, elapsed: 0.00040411949157714844
ell 53, elapsed: 0.0004620552062988281
ell 52, elapsed: 0.0003859996795654297
ell 51, elapsed: 0.000453948974609375
ell 50, elapsed: 0.0003941059112548828
ell 49, elapsed: 0.0004429817199707031
ell 48, elapsed: 0.0003910064697265625
ell 47, elapsed: 0.0004589557647705078
ell 46, elapsed: 0.00040411949157714844
ell 45, elapsed: 0.0004489421844482422
ell 44, elapsed: 0.00039196014404296875
ell 43, elapsed: 0.0004589557647705078
ell 42, elapsed: 0.0004229545593261719
ell 41, elapsed: 0.0005600452423095703
ell 40, elapsed: 0.00048089027404785156
ell 39, elapsed: 0.0005550384521484375
ell 38, elapsed: 0.0005500316619873047
ell 37, elapsed: 0.0006110668182373047
ell 36, elapsed: 0.0004010200500488281
ell 35, elapsed: 0.0004680156707763672
ell 34, elapsed: 0.0004050731658935547
ell 33, elapsed: 0.0004630088806152344
ell 32, elapsed: 0.0004048347473144531
ell 31, elapsed: 0.0004711151123046875
ell 30, elapsed: 0.0004229545593261719
ell 29, elapsed: 0.00046896934509277344
ell 28, elapsed: 0.00040411949157714844
ell 27, elapsed: 0.0004611015319824219
ell 26, elapsed: 0.0004088878631591797
ell 25, elapsed: 0.0004658699035644531
ell 24, elapsed: 0.0004050731658935547
ell 23, elapsed: 0.00046706199645996094
ell 22, elapsed: 0.00041794776916503906
ell 21, elapsed: 0.00046706199645996094
ell 20, elapsed: 0.0004031658172607422
ell 19, elapsed: 0.00046896934509277344
ell 18, elapsed: 0.00040602684020996094
ell 17, elapsed: 0.0004642009735107422
ell 16, elapsed: 0.0004048347473144531
ell 15, elapsed: 0.00046706199645996094
ell 14, elapsed: 0.00040602684020996094
ell 13, elapsed: 0.00048089027404785156
ell 12, elapsed: 0.0004019737243652344
ell 11, elapsed: 0.00046181678771972656
ell 10, elapsed: 0.0004050731658935547
ell 9, elapsed: 0.00047087669372558594
ell 8, elapsed: 0.0004100799560546875
ell 7, elapsed: 0.00046706199645996094
ell 6, elapsed: 0.00040793418884277344
ell 5, elapsed: 0.0004830360412597656
ell 4, elapsed: 0.000408172607421875
ell 3, elapsed: 0.0004658699035644531
ell 2, elapsed: 0.0004069805145263672
ell 1, elapsed: 0.0004630088806152344
ell 0, elapsed: 0.0004069805145263672
  0.891653 seconds (41.19 k allocations: 2.940 MiB)
elapsed: 0.0006041526794433594
step:          0.068571 sec (0 allocations: 0 byte, 0.0% gc time)
swapping:      0.000975 sec (0 allocations: 0 byte, 0.0% gc time)
calc_Mellell!: 0.013379 sec (0 allocations: 0 byte, 0.0% gc time)
  t0 :  0.003069 sec (0 allocations: 0 byte, 0.0% gc time)
  tm2 : 0.101087 sec (0 allocations: 0 byte, 0.0% gc time)
  tm2s: 0.002109 sec (0 allocations: 0 byte, 0.0% gc time)
  tm4 : 0.261769 sec (0 allocations: 0 byte, 0.0% gc time)
  tp2 : 0.0 sec (0 allocations: 0 byte, 0.0% gc time)
  tp2s: 0.0 sec (0 allocations: 0 byte, 0.0% gc time)
  tp4 : 0.0 sec (0 allocations: 0 byte, 0.0% gc time)
calc_wtdll!:   0.387119 sec (9.874 k allocations: 1.043 MB, 0.0% gc time)
calc_wljj!:    0.043579 sec (689 allocations: 10.766 KB, 0.0% gc time)
mult_prefac!:  0.0 sec (0 allocations: 0 byte, 0.0% gc time)
convert:       0.0 sec (0 allocations: 0 byte, 0.0% gc time)
write:         0.049898 sec (0 allocations: 0 byte, 0.0% gc time)
test_rand_2f1: 0.0 sec (0 allocations: 0 byte, 0.0% gc time)
Closing outfile out/Ml21-cache.bin...   0.000056 seconds
  0.000609 seconds (52 allocations: 28.297 KiB)
make_phi():   0.011281 seconds (8.33 k allocations: 250.531 KiB)
  0.932287 seconds (742.67 k allocations: 63.364 MiB, 2.43% gc time)
tskip:       0.001106 sec (0 allocations: 0 byte, 0.0% gc time)
tread:       0.042286 sec (19 allocations: 10.688 KB, 0.0% gc time)
tmultphi:    0.014589 sec (0 allocations: 0 byte, 0.0% gc time)
tbrfft:      0.747406 sec (605.569 k allocations: 60.174 MB, 3.03% gc time)
tmultprefac: 0.049602 sec (0 allocations: 0 byte, 0.0% gc time)
toutfunc:    0.074277 sec (129.905 k allocations: 2.421 MB, 0.0% gc time)
Testing R=1.0 ... passed
Calculating fmax: 
  dlrec    = 4
  dlrecRg1 = -4
  q=1.1, R=0.9:	  0.467154 seconds (116.47 k allocations: 15.614 MiB)

  0.469400 seconds (116.50 k allocations: 15.647 MiB)
ℓ = 1202
Δℓ = 4
ΔℓRg1 = -4
N = 1600
q = 1.1
kmin = 1.0e-5
kmax = 100000.00000000004
χ0 = 0.023029999999999995
RR = RR.tsv
ℓmax = ℓmax.bin
f21 = f21.bin
kmin = 1.0e-5
kmax = 100000.0
dlrec    = 4
dlrecRg1 = -4
Output size: 5741568 bytes = 0.005347251892089844 GiB
Output size: 51264 bytes = 4.774332046508789e-5 GiB
Reading 'out/F21EllCache'...   0.001152 seconds (267 allocations: 84.656 KiB)
ellmax: 1202
lmaxcache: 1202
fell[:,1,1] = Complex{Float64}[1.3482014726274674e-57 - 3.302141236118086e-73im, 1.357860004724329e-57 - 3.3257978169518355e-73im]
ell 1202, elapsed: 0.00017404556274414062
ell 1201, elapsed: 0.0006628036499023438
ell 1200, elapsed: 0.0007719993591308594
ell 1199, elapsed: 0.0007610321044921875
ell 1198, elapsed: 0.0008449554443359375
ell 1002, elapsed: 0.009882211685180664
ell 1001, elapsed: 0.0008020401000976562
ell 1000, elapsed: 0.0005819797515869141
ell 999, elapsed: 0.0005638599395751953
ell 998, elapsed: 0.0007619857788085938
ell 902, elapsed: 0.00561213493347168
ell 901, elapsed: 0.0008418560028076172
ell 900, elapsed: 0.000598907470703125
ell 899, elapsed: 0.0007660388946533203
ell 898, elapsed: 0.0006029605865478516
ell 802, elapsed: 0.005970954895019531
ell 801, elapsed: 0.0006189346313476562
ell 800, elapsed: 0.0007491111755371094
ell 799, elapsed: 0.0007951259613037109
ell 798, elapsed: 0.0008080005645751953
ell 702, elapsed: 0.005602121353149414
ell 701, elapsed: 0.0008330345153808594
ell 700, elapsed: 0.0006029605865478516
ell 699, elapsed: 0.0008089542388916016
ell 698, elapsed: 0.0005800724029541016
ell 602, elapsed: 0.005705833435058594
ell 601, elapsed: 0.0006020069122314453
ell 600, elapsed: 0.0005679130554199219
ell 599, elapsed: 0.0007660388946533203
ell 598, elapsed: 0.0005671977996826172
ell 502, elapsed: 0.0053730010986328125
ell 501, elapsed: 0.0008101463317871094
ell 500, elapsed: 0.0007610321044921875
ell 499, elapsed: 0.0008099079132080078
ell 498, elapsed: 0.0005738735198974609
ell 402, elapsed: 0.005438089370727539
ell 401, elapsed: 0.000885009765625
ell 400, elapsed: 0.0005970001220703125
ell 399, elapsed: 0.0005879402160644531
ell 398, elapsed: 0.0006940364837646484
ell 302, elapsed: 0.005290031433105469
ell 301, elapsed: 0.0007650852203369141
ell 300, elapsed: 0.0005919933319091797
ell 299, elapsed: 0.0007808208465576172
ell 298, elapsed: 0.0007419586181640625
ell 202, elapsed: 0.0055348873138427734
ell 201, elapsed: 0.0008580684661865234
ell 200, elapsed: 0.0007600784301757812
ell 199, elapsed: 0.0008230209350585938
ell 198, elapsed: 0.0007550716400146484
ell 152, elapsed: 0.0029921531677246094
ell 151, elapsed: 0.0005900859832763672
ell 150, elapsed: 0.0005757808685302734
ell 149, elapsed: 0.0006978511810302734
ell 148, elapsed: 0.0005788803100585938
ell 127, elapsed: 0.0017919540405273438
ell 126, elapsed: 0.0005860328674316406
ell 125, elapsed: 0.00043392181396484375
ell 124, elapsed: 0.00047707557678222656
ell 123, elapsed: 0.0004591941833496094
ell 114, elapsed: 0.0009920597076416016
ell 113, elapsed: 0.00045299530029296875
ell 112, elapsed: 0.00045490264892578125
ell 111, elapsed: 0.0005159378051757812
ell 110, elapsed: 0.00044918060302734375
ell 102, elapsed: 0.0009529590606689453
ell 101, elapsed: 0.0004489421844482422
ell 100, elapsed: 0.0004458427429199219
ell 99, elapsed: 0.0004489421844482422
ell 98, elapsed: 0.0004658699035644531
ell 97, elapsed: 0.0005769729614257812
ell 96, elapsed: 0.0005958080291748047
ell 95, elapsed: 0.0005729198455810547
ell 94, elapsed: 0.0005970001220703125
ell 93, elapsed: 0.0007898807525634766
ell 92, elapsed: 0.0008890628814697266
ell 91, elapsed: 0.0005950927734375
ell 90, elapsed: 0.0006539821624755859
ell 89, elapsed: 0.0005769729614257812
ell 88, elapsed: 0.0006699562072753906
ell 87, elapsed: 0.0005450248718261719
ell 86, elapsed: 0.0006220340728759766
ell 85, elapsed: 0.0005891323089599609
ell 84, elapsed: 0.0006618499755859375
ell 83, elapsed: 0.0005748271942138672
ell 82, elapsed: 0.0006511211395263672
ell 81, elapsed: 0.0005729198455810547
ell 80, elapsed: 0.0006577968597412109
ell 79, elapsed: 0.0005710124969482422
ell 78, elapsed: 0.0008728504180908203
ell 77, elapsed: 0.0004980564117431641
ell 76, elapsed: 0.0005619525909423828
ell 75, elapsed: 0.0005090236663818359
ell 74, elapsed: 0.0005900859832763672
ell 73, elapsed: 0.0005040168762207031
ell 72, elapsed: 0.0005521774291992188
ell 71, elapsed: 0.0007660388946533203
ell 70, elapsed: 0.0008800029754638672
ell 69, elapsed: 0.0007569789886474609
ell 68, elapsed: 0.0005590915679931641
ell 67, elapsed: 0.00047588348388671875
ell 66, elapsed: 0.0005528926849365234
ell 65, elapsed: 0.0007882118225097656
ell 64, elapsed: 0.0005970001220703125
ell 63, elapsed: 0.00048279762268066406
ell 62, elapsed: 0.0006229877471923828
ell 61, elapsed: 0.0004858970642089844
ell 60, elapsed: 0.0005729198455810547
ell 59, elapsed: 0.0005548000335693359
ell 58, elapsed: 0.0005609989166259766
ell 57, elapsed: 0.0004990100860595703
ell 56, elapsed: 0.0006320476531982422
ell 55, elapsed: 0.0007460117340087891
ell 54, elapsed: 0.0005750656127929688
ell 53, elapsed: 0.0007069110870361328
ell 52, elapsed: 0.0006501674652099609
ell 51, elapsed: 0.0005619525909423828
ell 50, elapsed: 0.0005688667297363281
ell 49, elapsed: 0.0005409717559814453
ell 48, elapsed: 0.0008158683776855469
ell 47, elapsed: 0.0007529258728027344
ell 46, elapsed: 0.0009050369262695312
ell 45, elapsed: 0.0005638599395751953
ell 44, elapsed: 0.0006299018859863281
ell 43, elapsed: 0.0004949569702148438
ell 42, elapsed: 0.0006258487701416016
ell 41, elapsed: 0.0005490779876708984
ell 40, elapsed: 0.0005741119384765625
ell 39, elapsed: 0.0005481243133544922
ell 38, elapsed: 0.0006449222564697266
ell 37, elapsed: 0.0004980564117431641
ell 36, elapsed: 0.0005660057067871094
ell 35, elapsed: 0.0005490779876708984
ell 34, elapsed: 0.000576019287109375
ell 33, elapsed: 0.0004820823669433594
ell 32, elapsed: 0.0005419254302978516
ell 31, elapsed: 0.00047898292541503906
ell 30, elapsed: 0.0005450248718261719
ell 29, elapsed: 0.0004889965057373047
ell 28, elapsed: 0.0005481243133544922
ell 27, elapsed: 0.00047397613525390625
ell 26, elapsed: 0.0005381107330322266
ell 25, elapsed: 0.00067901611328125
ell 24, elapsed: 0.000659942626953125
ell 23, elapsed: 0.0004830360412597656
ell 22, elapsed: 0.0005519390106201172
ell 21, elapsed: 0.0004801750183105469
ell 20, elapsed: 0.0006718635559082031
ell 19, elapsed: 0.0004780292510986328
ell 18, elapsed: 0.0005650520324707031
ell 17, elapsed: 0.0004909038543701172
ell 16, elapsed: 0.0006878376007080078
ell 15, elapsed: 0.0004940032958984375
ell 14, elapsed: 0.000537872314453125
ell 13, elapsed: 0.00048613548278808594
ell 12, elapsed: 0.0005469322204589844
ell 11, elapsed: 0.0005562305450439453
ell 10, elapsed: 0.0005481243133544922
ell 9, elapsed: 0.00047898292541503906
ell 8, elapsed: 0.0005459785461425781
ell 7, elapsed: 0.0004761219024658203
ell 6, elapsed: 0.0006239414215087891
ell 5, elapsed: 0.00047779083251953125
ell 4, elapsed: 0.0005409717559814453
ell 3, elapsed: 0.0004761219024658203
ell 2, elapsed: 0.0005400180816650391
ell 1, elapsed: 0.0005481243133544922
ell 0, elapsed: 0.0005478858947753906
  0.233538 seconds (10.83 k allocations: 697.938 KiB)
elapsed: 0.0012478828430175781
step:          0.057576 sec (0 allocations: 0 byte, 0.0% gc time)
swapping:      0.000626 sec (0 allocations: 0 byte, 0.0% gc time)
calc_Mellell!: 0.002274 sec (0 allocations: 0 byte, 0.0% gc time)
  t0 :  0.000661 sec (0 allocations: 0 byte, 0.0% gc time)
  tm2 : 0.013622 sec (0 allocations: 0 byte, 0.0% gc time)
  tm2s: 0.000371 sec (0 allocations: 0 byte, 0.0% gc time)
  tm4 : 0.03701 sec (0 allocations: 0 byte, 0.0% gc time)
  tp2 : 0.0 sec (0 allocations: 0 byte, 0.0% gc time)
  tp2s: 0.0 sec (0 allocations: 0 byte, 0.0% gc time)
  tp4 : 0.0 sec (0 allocations: 0 byte, 0.0% gc time)
calc_wtdll!:   0.052553 sec (1.344 k allocations: 147.0 KB, 0.0% gc time)
calc_wljj!:    0.004532 sec (6 allocations: 96 byte, 0.0% gc time)
mult_prefac!:  0.0 sec (0 allocations: 0 byte, 0.0% gc time)
convert:       0.0 sec (0 allocations: 0 byte, 0.0% gc time)
write:         0.004959 sec (0 allocations: 0 byte, 0.0% gc time)
test_rand_2f1: 0.0 sec (0 allocations: 0 byte, 0.0% gc time)
Closing outfile out/Ml21-cache.bin...   0.000111 seconds
  0.000588 seconds (52 allocations: 28.297 KiB)
make_phi():   0.002941 seconds (8.33 k allocations: 250.516 KiB)
  0.031923 seconds (66.92 k allocations: 5.882 MiB)
tskip:       2.0e-5 sec (0 allocations: 0 byte, 0.0% gc time)
tread:       0.002423 sec (19 allocations: 2.172 KB, 0.0% gc time)
tmultphi:    0.001165 sec (0 allocations: 0 byte, 0.0% gc time)
tbrfft:      0.019625 sec (55.722 k allocations: 5.608 MB, 0.0% gc time)
tmultprefac: 0.003597 sec (0 allocations: 0 byte, 0.0% gc time)
toutfunc:    0.005011 sec (10.528 k allocations: 206.5 KB, 0.0% gc time)
Testing R=0.9 ... passed
Calculating fmax: 
  dlrec    = 4
  dlrecRg1 = -4
  q=1.1, R=0.8:	  0.379512 seconds (113.61 k allocations: 15.166 MiB)

  0.381272 seconds (113.65 k allocations: 15.200 MiB)
ℓ = 1202
Δℓ = 4
ΔℓRg1 = -4
N = 1600
q = 1.1
kmin = 1.0e-5
kmax = 100000.00000000004
χ0 = 0.023029999999999995
RR = RR.tsv
ℓmax = ℓmax.bin
f21 = f21.bin
kmin = 1.0e-5
kmax = 100000.0
dlrec    = 4
dlrecRg1 = -4
Output size: 5741568 bytes = 0.005347251892089844 GiB
Output size: 51264 bytes = 4.774332046508789e-5 GiB
Reading 'out/F21EllCache'...   0.000995 seconds (267 allocations: 84.656 KiB)
ellmax: 1202
lmaxcache: 1202
fell[:,1,1] = Complex{Float64}[7.519068145690986e-120 - 1.8416405474382574e-135im, 7.541664537386155e-120 - 1.847175067190611e-135im]
ell 1202, elapsed: 7.295608520507812e-5
ell 1201, elapsed: 0.0004761219024658203
ell 1200, elapsed: 0.0004451274871826172
ell 1199, elapsed: 0.0004391670227050781
ell 1198, elapsed: 0.0004532337188720703
ell 1002, elapsed: 0.010316133499145508
ell 1001, elapsed: 0.0004451274871826172
ell 1000, elapsed: 0.0004000663757324219
ell 999, elapsed: 0.00042700767517089844
ell 998, elapsed: 0.0005688667297363281
ell 902, elapsed: 0.004899024963378906
ell 901, elapsed: 0.0003840923309326172
ell 900, elapsed: 0.00035691261291503906
ell 899, elapsed: 0.00037097930908203125
ell 898, elapsed: 0.00036215782165527344
ell 802, elapsed: 0.01708698272705078
ell 801, elapsed: 0.0003809928894042969
ell 800, elapsed: 0.0003650188446044922
ell 799, elapsed: 0.0003600120544433594
ell 798, elapsed: 0.00035381317138671875
ell 702, elapsed: 0.00475311279296875
ell 701, elapsed: 0.0004239082336425781
ell 700, elapsed: 0.0005550384521484375
ell 699, elapsed: 0.00038504600524902344
ell 698, elapsed: 0.0003590583801269531
ell 602, elapsed: 0.005055904388427734
ell 601, elapsed: 0.00038504600524902344
ell 600, elapsed: 0.0003571510314941406
ell 599, elapsed: 0.0003581047058105469
ell 598, elapsed: 0.00043201446533203125
ell 502, elapsed: 0.005203962326049805
ell 501, elapsed: 0.0003879070281982422
ell 500, elapsed: 0.0005059242248535156
ell 499, elapsed: 0.0005621910095214844
ell 498, elapsed: 0.0005600452423095703
ell 402, elapsed: 0.009315967559814453
ell 401, elapsed: 0.0005540847778320312
ell 400, elapsed: 0.000514984130859375
ell 399, elapsed: 0.0005080699920654297
ell 398, elapsed: 0.0005619525909423828
ell 302, elapsed: 0.005162954330444336
ell 301, elapsed: 0.0005588531494140625
ell 300, elapsed: 0.0004279613494873047
ell 299, elapsed: 0.0004470348358154297
ell 298, elapsed: 0.0005381107330322266
ell 202, elapsed: 0.005538225173950195
ell 201, elapsed: 0.00048804283142089844
ell 200, elapsed: 0.00043511390686035156
ell 199, elapsed: 0.0006668567657470703
ell 198, elapsed: 0.00045609474182128906
ell 152, elapsed: 0.003453969955444336
ell 151, elapsed: 0.0005030632019042969
ell 150, elapsed: 0.0006270408630371094
ell 149, elapsed: 0.0004811286926269531
ell 148, elapsed: 0.0004639625549316406
ell 127, elapsed: 0.0017299652099609375
ell 126, elapsed: 0.0042209625244140625
ell 125, elapsed: 0.0006909370422363281
ell 124, elapsed: 0.00038886070251464844
ell 123, elapsed: 0.0004000663757324219
ell 114, elapsed: 0.0008730888366699219
ell 113, elapsed: 0.00043392181396484375
ell 112, elapsed: 0.0004429817199707031
ell 111, elapsed: 0.0005919933319091797
ell 110, elapsed: 0.0005011558532714844
ell 102, elapsed: 0.0009241104125976562
ell 101, elapsed: 0.0004169940948486328
ell 100, elapsed: 0.0004048347473144531
ell 99, elapsed: 0.0004000663757324219
ell 98, elapsed: 0.00041294097900390625
ell 97, elapsed: 0.0004379749298095703
ell 96, elapsed: 0.0005080699920654297
ell 95, elapsed: 0.00043010711669921875
ell 94, elapsed: 0.0005002021789550781
ell 93, elapsed: 0.00041604042053222656
ell 92, elapsed: 0.000492095947265625
ell 91, elapsed: 0.000431060791015625
ell 90, elapsed: 0.0005381107330322266
ell 89, elapsed: 0.00044083595275878906
ell 88, elapsed: 0.0005171298980712891
ell 87, elapsed: 0.0005571842193603516
ell 86, elapsed: 0.000640869140625
ell 85, elapsed: 0.00045800209045410156
ell 84, elapsed: 0.000518798828125
ell 83, elapsed: 0.00046706199645996094
ell 82, elapsed: 0.0005199909210205078
ell 81, elapsed: 0.00045800209045410156
ell 80, elapsed: 0.0007219314575195312
ell 79, elapsed: 0.0006761550903320312
ell 78, elapsed: 0.0007979869842529297
ell 77, elapsed: 0.0005321502685546875
ell 76, elapsed: 0.0005099773406982422
ell 75, elapsed: 0.00044989585876464844
ell 74, elapsed: 0.000514984130859375
ell 73, elapsed: 0.00045013427734375
ell 72, elapsed: 0.000514984130859375
ell 71, elapsed: 0.0004429817199707031
ell 70, elapsed: 0.0005252361297607422
ell 69, elapsed: 0.00044608116149902344
ell 68, elapsed: 0.0005018711090087891
ell 67, elapsed: 0.0006229877471923828
ell 66, elapsed: 0.0007538795471191406
ell 65, elapsed: 0.0006618499755859375
ell 64, elapsed: 0.0007398128509521484
ell 63, elapsed: 0.0006248950958251953
ell 62, elapsed: 0.0006148815155029297
ell 61, elapsed: 0.00045108795166015625
ell 60, elapsed: 0.000514984130859375
ell 59, elapsed: 0.000431060791015625
ell 58, elapsed: 0.0005161762237548828
ell 57, elapsed: 0.0004570484161376953
ell 56, elapsed: 0.0007100105285644531
ell 55, elapsed: 0.0005869865417480469
ell 54, elapsed: 0.0005230903625488281
ell 53, elapsed: 0.00047087669372558594
ell 52, elapsed: 0.0005421638488769531
ell 51, elapsed: 0.0004820823669433594
ell 50, elapsed: 0.000537872314453125
ell 49, elapsed: 0.0004730224609375
ell 48, elapsed: 0.0005261898040771484
ell 47, elapsed: 0.00046706199645996094
ell 46, elapsed: 0.0005319118499755859
ell 45, elapsed: 0.00046706199645996094
ell 44, elapsed: 0.0005500316619873047
ell 43, elapsed: 0.00043582916259765625
ell 42, elapsed: 0.00049591064453125
ell 41, elapsed: 0.00041604042053222656
ell 40, elapsed: 0.0004911422729492188
ell 39, elapsed: 0.0004360675811767578
ell 38, elapsed: 0.0004990100860595703
ell 37, elapsed: 0.000431060791015625
ell 36, elapsed: 0.0005280971527099609
ell 35, elapsed: 0.0004658699035644531
ell 34, elapsed: 0.0005269050598144531
ell 33, elapsed: 0.0004630088806152344
ell 32, elapsed: 0.0005359649658203125
ell 31, elapsed: 0.00044083595275878906
ell 30, elapsed: 0.0006990432739257812
ell 29, elapsed: 0.0004949569702148438
ell 28, elapsed: 0.0006840229034423828
ell 27, elapsed: 0.0005822181701660156
ell 26, elapsed: 0.0005140304565429688
ell 25, elapsed: 0.00041413307189941406
ell 24, elapsed: 0.0004830360412597656
ell 23, elapsed: 0.00041794776916503906
ell 22, elapsed: 0.0004940032958984375
ell 21, elapsed: 0.0005350112915039062
ell 20, elapsed: 0.0005991458892822266
ell 19, elapsed: 0.0005140304565429688
ell 18, elapsed: 0.0006239414215087891
[...]
ell 782, elapsed: 0.0017879009246826172
ell 781, elapsed: 0.0007841587066650391
ell 780, elapsed: 0.0008399486541748047
ell 779, elapsed: 0.0008440017700195312
ell 778, elapsed: 0.0008640289306640625
ell 772, elapsed: 0.0015110969543457031
ell 771, elapsed: 0.0011620521545410156
ell 770, elapsed: 0.0008358955383300781
ell 769, elapsed: 0.0010898113250732422
ell 768, elapsed: 0.0008559226989746094
ell 762, elapsed: 0.0015940666198730469
ell 761, elapsed: 0.0008349418640136719
ell 760, elapsed: 0.0008299350738525391
ell 759, elapsed: 0.0008230209350585938
ell 758, elapsed: 0.00080108642578125
ell 752, elapsed: 0.0014729499816894531
ell 751, elapsed: 0.0008399486541748047
ell 750, elapsed: 0.0008211135864257812
ell 749, elapsed: 0.0008258819580078125
ell 748, elapsed: 0.000843048095703125
ell 742, elapsed: 0.0015709400177001953
ell 741, elapsed: 0.0008358955383300781
ell 740, elapsed: 0.0008378028869628906
ell 739, elapsed: 0.0008609294891357422
ell 738, elapsed: 0.0008249282836914062
ell 732, elapsed: 0.001753091812133789
ell 731, elapsed: 0.0007970333099365234
ell 730, elapsed: 0.0008602142333984375
ell 729, elapsed: 0.000823974609375
ell 728, elapsed: 0.0008418560028076172
ell 722, elapsed: 0.0016109943389892578
ell 721, elapsed: 0.0008380413055419922
ell 720, elapsed: 0.0008530616760253906
ell 719, elapsed: 0.0008540153503417969
ell 718, elapsed: 0.0008759498596191406
ell 712, elapsed: 0.0015649795532226562
ell 711, elapsed: 0.0008270740509033203
ell 710, elapsed: 0.0008418560028076172
ell 709, elapsed: 0.0006830692291259766
ell 708, elapsed: 0.0006399154663085938
ell 702, elapsed: 0.00119781494140625
ell 701, elapsed: 0.0006339550018310547
ell 700, elapsed: 0.0006239414215087891
ell 699, elapsed: 0.0006399154663085938
ell 698, elapsed: 0.0006220340728759766
ell 692, elapsed: 0.0011649131774902344
ell 691, elapsed: 0.0006182193756103516
ell 690, elapsed: 0.0006198883056640625
ell 689, elapsed: 0.0006608963012695312
ell 688, elapsed: 0.0006208419799804688
ell 682, elapsed: 0.0013210773468017578
ell 681, elapsed: 0.0008480548858642578
ell 680, elapsed: 0.0006999969482421875
ell 679, elapsed: 0.0006589889526367188
ell 678, elapsed: 0.0009930133819580078
ell 672, elapsed: 0.0012362003326416016
ell 671, elapsed: 0.0007109642028808594
ell 670, elapsed: 0.0007138252258300781
ell 669, elapsed: 0.0007679462432861328
ell 668, elapsed: 0.0006339550018310547
ell 662, elapsed: 0.001416921615600586
ell 661, elapsed: 0.0006480216979980469
ell 660, elapsed: 0.0006310939788818359
ell 659, elapsed: 0.0006198883056640625
ell 658, elapsed: 0.0006349086761474609
ell 652, elapsed: 0.0011539459228515625
ell 651, elapsed: 0.0006899833679199219
ell 650, elapsed: 0.000865936279296875
ell 649, elapsed: 0.0008420944213867188
ell 648, elapsed: 0.0008270740509033203
ell 642, elapsed: 0.0017840862274169922
ell 641, elapsed: 0.0007731914520263672
ell 640, elapsed: 0.0008270740509033203
ell 639, elapsed: 0.0008330345153808594
ell 638, elapsed: 0.0008139610290527344
ell 632, elapsed: 0.001756906509399414
ell 631, elapsed: 0.0007879734039306641
ell 630, elapsed: 0.0008518695831298828
ell 629, elapsed: 0.00086212158203125
ell 628, elapsed: 0.0008370876312255859
ell 622, elapsed: 0.0015630722045898438
ell 621, elapsed: 0.0008289813995361328
ell 620, elapsed: 0.0008380413055419922
ell 619, elapsed: 0.0008308887481689453
ell 618, elapsed: 0.0008320808410644531
ell 612, elapsed: 0.0015521049499511719
ell 611, elapsed: 0.0008590221405029297
ell 610, elapsed: 0.0008499622344970703
ell 609, elapsed: 0.0008349418640136719
ell 608, elapsed: 0.0008378028869628906
ell 602, elapsed: 0.0015799999237060547
ell 601, elapsed: 0.0008170604705810547
ell 600, elapsed: 0.0008521080017089844
ell 599, elapsed: 0.0008749961853027344
ell 598, elapsed: 0.0008280277252197266
ell 592, elapsed: 0.0017480850219726562
ell 591, elapsed: 0.0008039474487304688
ell 590, elapsed: 0.0008311271667480469
ell 589, elapsed: 0.0008380413055419922
ell 588, elapsed: 0.0008280277252197266
ell 582, elapsed: 0.0017590522766113281
ell 581, elapsed: 0.0008099079132080078
ell 580, elapsed: 0.0008168220520019531
ell 579, elapsed: 0.0011179447174072266
ell 578, elapsed: 0.0008308887481689453
ell 572, elapsed: 0.0015759468078613281
ell 571, elapsed: 0.0008318424224853516
ell 570, elapsed: 0.0008320808410644531
ell 569, elapsed: 0.000823974609375
ell 568, elapsed: 0.0008609294891357422
ell 562, elapsed: 0.0015459060668945312
ell 561, elapsed: 0.0008320808410644531
ell 560, elapsed: 0.000843048095703125
ell 559, elapsed: 0.0008709430694580078
ell 558, elapsed: 0.0008649826049804688
ell 552, elapsed: 0.0015468597412109375
ell 551, elapsed: 0.0008809566497802734
ell 550, elapsed: 0.0009071826934814453
ell 549, elapsed: 0.0008809566497802734
ell 548, elapsed: 0.0008249282836914062
ell 542, elapsed: 0.0018870830535888672
ell 541, elapsed: 0.0008409023284912109
ell 540, elapsed: 0.0008220672607421875
ell 539, elapsed: 0.0008299350738525391
ell 538, elapsed: 0.0008530616760253906
ell 532, elapsed: 0.00179290771484375
ell 531, elapsed: 0.0008859634399414062
ell 530, elapsed: 0.0008389949798583984
ell 529, elapsed: 0.0008170604705810547
ell 528, elapsed: 0.0008378028869628906
ell 522, elapsed: 0.0018150806427001953
ell 521, elapsed: 0.0008649826049804688
ell 520, elapsed: 0.0008111000061035156
ell 519, elapsed: 0.0008130073547363281
ell 518, elapsed: 0.0008261203765869141
ell 512, elapsed: 0.0012521743774414062
ell 511, elapsed: 0.0011680126190185547
ell 510, elapsed: 0.0008170604705810547
ell 509, elapsed: 0.0008609294891357422
ell 508, elapsed: 0.0008521080017089844
ell 502, elapsed: 0.0019540786743164062
ell 501, elapsed: 0.0008499622344970703
ell 500, elapsed: 0.0008759498596191406
ell 499, elapsed: 0.0008730888366699219
ell 498, elapsed: 0.0008108615875244141
ell 492, elapsed: 0.0018439292907714844
ell 491, elapsed: 0.0008800029754638672
ell 490, elapsed: 0.0008790493011474609
ell 489, elapsed: 0.0008671283721923828
ell 488, elapsed: 0.0009000301361083984
ell 482, elapsed: 0.0018949508666992188
ell 481, elapsed: 0.0008080005645751953
ell 480, elapsed: 0.0009090900421142578
ell 479, elapsed: 0.0009050369262695312
ell 478, elapsed: 0.0009191036224365234
ell 472, elapsed: 0.0020689964294433594
ell 471, elapsed: 0.0008599758148193359
ell 470, elapsed: 0.0009198188781738281
ell 469, elapsed: 0.0012011528015136719
ell 468, elapsed: 0.0008509159088134766
ell 462, elapsed: 0.0018649101257324219
ell 461, elapsed: 0.0008561611175537109
ell 460, elapsed: 0.0008258819580078125
ell 459, elapsed: 0.0008540153503417969
ell 458, elapsed: 0.0008161067962646484
ell 452, elapsed: 0.0015969276428222656
ell 451, elapsed: 0.0008769035339355469
ell 450, elapsed: 0.0008478164672851562
ell 449, elapsed: 0.0008320808410644531
ell 448, elapsed: 0.0008189678192138672
ell 442, elapsed: 0.0017850399017333984
ell 441, elapsed: 0.0008530616760253906
ell 440, elapsed: 0.0010290145874023438
ell 439, elapsed: 0.000988006591796875
ell 438, elapsed: 0.0008351802825927734
ell 432, elapsed: 0.0018799304962158203
ell 431, elapsed: 0.0007739067077636719
ell 430, elapsed: 0.0008258819580078125
ell 429, elapsed: 0.000885009765625
ell 428, elapsed: 0.0010018348693847656
ell 422, elapsed: 0.0021369457244873047
ell 421, elapsed: 0.0012171268463134766
ell 420, elapsed: 0.0009889602661132812
ell 419, elapsed: 0.0009570121765136719
ell 418, elapsed: 0.0008869171142578125
ell 412, elapsed: 0.0015411376953125
ell 411, elapsed: 0.0008208751678466797
ell 410, elapsed: 0.0008330345153808594
ell 409, elapsed: 0.0008149147033691406
ell 408, elapsed: 0.0008080005645751953
ell 402, elapsed: 0.0017521381378173828
ell 401, elapsed: 0.0008099079132080078
ell 400, elapsed: 0.0011489391326904297
ell 399, elapsed: 0.0008411407470703125
ell 398, elapsed: 0.0008540153503417969
ell 392, elapsed: 0.0017240047454833984
ell 391, elapsed: 0.0008249282836914062
ell 390, elapsed: 0.0011551380157470703
ell 389, elapsed: 0.0008540153503417969
ell 388, elapsed: 0.0008299350738525391
ell 382, elapsed: 0.001634836196899414
ell 381, elapsed: 0.0010919570922851562
ell 380, elapsed: 0.0008218288421630859
ell 379, elapsed: 0.0008230209350585938
ell 378, elapsed: 0.0009109973907470703
ell 372, elapsed: 0.0016131401062011719
ell 371, elapsed: 0.0008499622344970703
ell 370, elapsed: 0.0008099079132080078
ell 369, elapsed: 0.0008409023284912109
ell 368, elapsed: 0.0009438991546630859
ell 362, elapsed: 0.0016260147094726562
ell 361, elapsed: 0.0008821487426757812
ell 360, elapsed: 0.0008680820465087891
ell 359, elapsed: 0.0008270740509033203
ell 358, elapsed: 0.0008230209350585938
ell 352, elapsed: 0.0018229484558105469
ell 351, elapsed: 0.0008349418640136719
ell 350, elapsed: 0.0006699562072753906
ell 349, elapsed: 0.0006968975067138672
ell 348, elapsed: 0.0007159709930419922
ell 342, elapsed: 0.0017399787902832031
ell 341, elapsed: 0.0007619857788085938
ell 340, elapsed: 0.0008358955383300781
ell 339, elapsed: 0.0008411407470703125
ell 338, elapsed: 0.0008440017700195312
ell 332, elapsed: 0.0015549659729003906
ell 331, elapsed: 0.0008518695831298828
ell 330, elapsed: 0.0008759498596191406
ell 329, elapsed: 0.0008549690246582031
ell 328, elapsed: 0.0008220672607421875
ell 322, elapsed: 0.001750946044921875
ell 321, elapsed: 0.0008251667022705078
ell 320, elapsed: 0.0008349418640136719
ell 319, elapsed: 0.0008208751678466797
ell 318, elapsed: 0.0008268356323242188
ell 312, elapsed: 0.004046201705932617
ell 311, elapsed: 0.0008728504180908203
ell 310, elapsed: 0.0008270740509033203
ell 309, elapsed: 0.0008718967437744141
ell 308, elapsed: 0.0009129047393798828
ell 302, elapsed: 0.0016338825225830078
ell 301, elapsed: 0.00086212158203125
ell 300, elapsed: 0.0008521080017089844
ell 299, elapsed: 0.0010979175567626953
ell 298, elapsed: 0.0008339881896972656
ell 292, elapsed: 0.0015380382537841797
ell 291, elapsed: 0.0008518695831298828
ell 290, elapsed: 0.0008502006530761719
ell 289, elapsed: 0.0008959770202636719
ell 288, elapsed: 0.0008740425109863281
ell 282, elapsed: 0.0015850067138671875
ell 281, elapsed: 0.0008859634399414062
ell 280, elapsed: 0.0008749961853027344
ell 279, elapsed: 0.0008661746978759766
ell 278, elapsed: 0.0008308887481689453
ell 272, elapsed: 0.0016231536865234375
ell 271, elapsed: 0.000865936279296875
ell 270, elapsed: 0.0008401870727539062
ell 269, elapsed: 0.0008139610290527344
ell 268, elapsed: 0.0011260509490966797
ell 262, elapsed: 0.0015118122100830078
ell 261, elapsed: 0.0008308887481689453
ell 260, elapsed: 0.0008389949798583984
ell 259, elapsed: 0.0008580684661865234
ell 258, elapsed: 0.0008599758148193359
ell 252, elapsed: 0.0017769336700439453
ell 251, elapsed: 0.000946044921875
ell 250, elapsed: 0.0008339881896972656
ell 249, elapsed: 0.0007970333099365234
ell 248, elapsed: 0.0008218288421630859
ell 242, elapsed: 0.0016570091247558594
ell 241, elapsed: 0.0008370876312255859
ell 240, elapsed: 0.0008661746978759766
ell 239, elapsed: 0.0008561611175537109
ell 238, elapsed: 0.0008561611175537109
ell 232, elapsed: 0.0016520023345947266
ell 231, elapsed: 0.000820159912109375
ell 230, elapsed: 0.0008339881896972656
ell 229, elapsed: 0.0009219646453857422
ell 228, elapsed: 0.0008440017700195312
ell 222, elapsed: 0.0015361309051513672
ell 221, elapsed: 0.0008561611175537109
ell 220, elapsed: 0.0009660720825195312
ell 219, elapsed: 0.0008711814880371094
ell 218, elapsed: 0.0008499622344970703
ell 212, elapsed: 0.0017158985137939453
ell 211, elapsed: 0.0008549690246582031
ell 210, elapsed: 0.0008368492126464844
ell 209, elapsed: 0.0008361339569091797
ell 208, elapsed: 0.0008139610290527344
ell 202, elapsed: 0.0017099380493164062
ell 201, elapsed: 0.0008261203765869141
ell 200, elapsed: 0.0008149147033691406
ell 199, elapsed: 0.0008029937744140625
ell 198, elapsed: 0.0008261203765869141
ell 192, elapsed: 0.0015180110931396484
ell 191, elapsed: 0.0008709430694580078
ell 190, elapsed: 0.0009639263153076172
ell 189, elapsed: 0.0008809566497802734
ell 188, elapsed: 0.0008189678192138672
ell 182, elapsed: 0.001516103744506836
ell 181, elapsed: 0.0008919239044189453
ell 180, elapsed: 0.0007789134979248047
ell 179, elapsed: 0.0007650852203369141
ell 178, elapsed: 0.0008099079132080078
ell 172, elapsed: 0.001965045928955078
ell 171, elapsed: 0.0008199214935302734
ell 170, elapsed: 0.0008540153503417969
ell 169, elapsed: 0.0008299350738525391
ell 168, elapsed: 0.0009250640869140625
ell 162, elapsed: 0.0017790794372558594
ell 161, elapsed: 0.0008208751678466797
ell 160, elapsed: 0.0009171962738037109
ell 159, elapsed: 0.0008158683776855469
ell 158, elapsed: 0.0008249282836914062
ell 152, elapsed: 0.0016171932220458984
ell 151, elapsed: 0.0009541511535644531
ell 150, elapsed: 0.0008549690246582031
ell 149, elapsed: 0.0008511543273925781
ell 148, elapsed: 0.0008509159088134766
ell 142, elapsed: 0.001650094985961914
ell 141, elapsed: 0.0008380413055419922
ell 140, elapsed: 0.0008499622344970703
ell 139, elapsed: 0.0008602142333984375
ell 138, elapsed: 0.0007960796356201172
ell 132, elapsed: 0.0011801719665527344
ell 131, elapsed: 0.0006339550018310547
ell 130, elapsed: 0.0006458759307861328
ell 129, elapsed: 0.0006380081176757812
ell 128, elapsed: 0.0010690689086914062
ell 122, elapsed: 0.0018188953399658203
ell 121, elapsed: 0.0010280609130859375
ell 120, elapsed: 0.0010349750518798828
ell 119, elapsed: 0.0010249614715576172
ell 118, elapsed: 0.0009920597076416016
ell 112, elapsed: 0.0018889904022216797
ell 111, elapsed: 0.0009918212890625
ell 110, elapsed: 0.0009970664978027344
ell 109, elapsed: 0.0010018348693847656
ell 108, elapsed: 0.0010039806365966797
ell 102, elapsed: 0.0018811225891113281
ell 101, elapsed: 0.003782987594604492
ell 100, elapsed: 0.0036818981170654297
ell 99, elapsed: 0.003226041793823242
ell 98, elapsed: 0.0032210350036621094
ell 92, elapsed: 0.0066890716552734375
ell 91, elapsed: 0.0036771297454833984
ell 90, elapsed: 0.0035250186920166016
ell 89, elapsed: 0.003412008285522461
ell 88, elapsed: 0.0037069320678710938
ell 82, elapsed: 0.006319999694824219
ell 81, elapsed: 0.004023075103759766
ell 80, elapsed: 0.003267049789428711
ell 79, elapsed: 0.00403594970703125
ell 78, elapsed: 0.0035238265991210938
ell 72, elapsed: 0.006250858306884766
ell 71, elapsed: 0.0032701492309570312
ell 70, elapsed: 0.0042209625244140625
ell 69, elapsed: 0.004430055618286133
ell 68, elapsed: 0.0032248497009277344
ell 62, elapsed: 0.006518125534057617
ell 61, elapsed: 0.0031938552856445312
ell 60, elapsed: 0.004513978958129883
ell 59, elapsed: 0.0041310787200927734
ell 58, elapsed: 0.004518985748291016
ell 52, elapsed: 0.007231950759887695
ell 51, elapsed: 0.004142045974731445
ell 50, elapsed: 0.004394054412841797
ell 49, elapsed: 0.004199028015136719
ell 48, elapsed: 0.0039560794830322266
ell 42, elapsed: 0.006526947021484375
ell 41, elapsed: 0.004137992858886719
ell 40, elapsed: 0.0037169456481933594
ell 39, elapsed: 0.0038318634033203125
ell 38, elapsed: 0.003737211227416992
ell 32, elapsed: 0.00655817985534668
ell 31, elapsed: 0.0040891170501708984
ell 30, elapsed: 0.004047870635986328
ell 29, elapsed: 0.0037260055541992188
ell 28, elapsed: 0.004045009613037109
ell 22, elapsed: 0.006594181060791016
ell 21, elapsed: 0.004022121429443359
ell 20, elapsed: 0.004831790924072266
ell 19, elapsed: 0.003880023956298828
ell 18, elapsed: 0.004138946533203125
ell 12, elapsed: 0.006495952606201172
ell 11, elapsed: 0.002454996109008789
ell 10, elapsed: 0.0028409957885742188
ell 9, elapsed: 0.0035490989685058594
ell 8, elapsed: 0.003553152084350586
  0.818110 seconds (66.75 k allocations: 12.139 MiB)
elapsed: 0.004252910614013672
step:          0.074044 sec (0 allocations: 0 byte, 0.0% gc time)
swapping:      0.000772 sec (0 allocations: 0 byte, 0.0% gc time)
calc_Mellell!: 0.037217 sec (0 allocations: 0 byte, 0.0% gc time)
  t0 :  0.012482 sec (0 allocations: 0 byte, 0.0% gc time)
  tm2 : 0.078762 sec (0 allocations: 0 byte, 0.0% gc time)
  tm2s: 0.009795 sec (0 allocations: 0 byte, 0.0% gc time)
  tm4 : 0.202071 sec (0 allocations: 0 byte, 0.0% gc time)
  tp2 : 0.0 sec (0 allocations: 0 byte, 0.0% gc time)
  tp2s: 0.0 sec (0 allocations: 0 byte, 0.0% gc time)
  tp4 : 0.0 sec (0 allocations: 0 byte, 0.0% gc time)
calc_wtdll!:   0.58019 sec (49.2 k allocations: 11.133 MB, 0.0% gc time)
calc_wljj!:    0.042175 sec (69 allocations: 1.078 KB, 0.0% gc time)
mult_prefac!:  0.0 sec (0 allocations: 0 byte, 0.0% gc time)
convert:       0.0 sec (0 allocations: 0 byte, 0.0% gc time)
write:         0.037526 sec (0 allocations: 0 byte, 0.0% gc time)
test_rand_2f1: 0.0 sec (0 allocations: 0 byte, 0.0% gc time)
Closing outfile out/MlCache/MlCache.bin...   0.000008 seconds
xi, l=0, nu=0:   0.530407 seconds (650.40 k allocations: 31.239 MiB)
xi, l=0, nu=-2:  0.002879 seconds (423 allocations: 177.078 KiB)
Created 'out/xi.tsv'.
  q=1.1, R=0.6:	  0.911254 seconds (291.08 k allocations: 38.895 MiB, 2.68% gc time)
  q=1.1, R=0.7:	  0.855098 seconds (304.75 k allocations: 40.996 MiB, 1.70% gc time)
  q=1.1, R=0.8:	  0.893241 seconds (299.14 k allocations: 40.132 MiB, 1.26% gc time)
  q=1.1, R=0.9:	  1.044446 seconds (293.57 k allocations: 39.286 MiB, 1.00% gc time)
  q=1.1, R=0.998:	 23.267898 seconds (10.67 M allocations: 823.460 MiB, 0.46% gc time)
  q=1.1, R=1.0:	  0.004681 seconds (10.24 k allocations: 768.375 KiB)

ℓ = 1000
Δℓ = 4
ΔℓRg1 = -4
N = 4096
q = 1.1
kmin = 1.0e-5
kmax = 1000.0
χ0 = 0.001
RR = RR.tsv
ℓmax = ℓmax.bin
f21 = f21.bin
kmin = 1.0e-5
kmax = 1000.0
dlrec    = 4
dlrecRg1 = -4
Output size: 1573632 bytes = 0.0014655590057373047 GiB
Output size: 786816 bytes = 0.0007327795028686523 GiB
Reading 'out/F21EllCache'...   0.002191 seconds (268 allocations: 533.531 KiB)
ellmax: 1002
lmaxcache: 1000
fell[:,1,1] = Complex{Float64}[1.7262928128202118e-224 - 4.2281979352226944e-240im, 1.7282693092099662e-224 - 4.233038955177176e-240im]
ell 1002, elapsed: 6.699562072753906e-5
ell 1001, elapsed: 0.001489877700805664
ell 1000, elapsed: 0.0012471675872802734
ell 999, elapsed: 0.007512092590332031
ell 998, elapsed: 0.007436990737915039
ell 44, elapsed: 0.6856131553649902
ell 43, elapsed: 0.00634312629699707
ell 42, elapsed: 0.006422996520996094
ell 41, elapsed: 0.005877017974853516
ell 40, elapsed: 0.008411169052124023
  0.738814 seconds (4.55 k allocations: 320.359 KiB)
elapsed: 0.007417917251586914
step:          0.679317 sec (0 allocations: 0 byte, 0.0% gc time)
swapping:      0.000696 sec (0 allocations: 0 byte, 0.0% gc time)
calc_Mellell!: 0.00144 sec (0 allocations: 0 byte, 0.0% gc time)
  t0 :  0.000983 sec (0 allocations: 0 byte, 0.0% gc time)
  tm2 : 0.012395 sec (0 allocations: 0 byte, 0.0% gc time)
  tm2s: 0.000842 sec (0 allocations: 0 byte, 0.0% gc time)
  tm4 : 0.033625 sec (0 allocations: 0 byte, 0.0% gc time)
  tp2 : 0.0 sec (0 allocations: 0 byte, 0.0% gc time)
  tp2s: 0.0 sec (0 allocations: 0 byte, 0.0% gc time)
  tp4 : 0.0 sec (0 allocations: 0 byte, 0.0% gc time)
calc_wtdll!:   0.048188 sec (480 allocations: 52.5 KB, 0.0% gc time)
calc_wljj!:    0.001454 sec (1 allocations: 16 byte, 0.0% gc time)
mult_prefac!:  0.0 sec (0 allocations: 0 byte, 0.0% gc time)
convert:       0.0 sec (0 allocations: 0 byte, 0.0% gc time)
write:         0.000889 sec (0 allocations: 0 byte, 0.0% gc time)
test_rand_2f1: 0.0 sec (0 allocations: 0 byte, 0.0% gc time)
Closing outfile out/MlCache/MlCache.bin...   0.000008 seconds
  2.245167 seconds (605.28 k allocations: 57.714 MiB, 3.30% gc time)
make_phi():   0.025012 seconds (229 allocations: 290.969 KiB)
  0.006904 seconds (6.25 k allocations: 620.812 KiB)
tskip:       1.0e-6 sec (0 allocations: 0 byte, 0.0% gc time)
tread:       0.00073 sec (19 allocations: 1.312 KB, 0.0% gc time)
tmultphi:    0.000367 sec (0 allocations: 0 byte, 0.0% gc time)
tbrfft:      0.004718 sec (6.24 k allocations: 619.5 KB, 0.0% gc time)
tmultprefac: 0.00092 sec (0 allocations: 0 byte, 0.0% gc time)
toutfunc:    0.000282 sec (0 allocations: 0 byte, 0.0% gc time)
Created 'out/wl42_jj00.tsv'.
Created 'out/wl42_jj02.tsv'.
    Testing TwoFAST tests passed 
