Julia Version 1.6.0-DEV.1185
Commit 3bfcb743c2 (2020-10-11 23:29 UTC)
Platform Info:
  OS: Linux (x86_64-pc-linux-gnu)
  CPU: AMD EPYC 7502 32-Core Processor
  WORD_SIZE: 64
  LIBM: libopenlibm
  LLVM: libLLVM-10.0.1 (ORCJIT, znver2)
Environment:
  JULIA_DEPOT_PATH = ::/usr/local/share/julia
  JULIA_NUM_THREADS = 2
  JULIA_MAX_NUM_PRECOMPILE_FILES = 9223372036854775807

  Resolving package versions...
  Installed MKL_jll ────────────────────── v2020.2.254+0
  Installed CompilerSupportLibraries_jll ─ v0.3.3+0
  Installed Readables ──────────────────── v0.3.3
  Installed AbstractFFTs ───────────────── v0.5.0
  Installed GenericSVD ─────────────────── v0.3.0
  Installed FFTW ───────────────────────── v1.2.4
  Installed ArbNumerics ────────────────── v1.2.1
  Installed TwoFAST ────────────────────── v0.1.3
  Installed IntelOpenMP_jll ────────────── v2018.0.3+0
  Installed Reexport ───────────────────── v0.2.0
  Installed OpenSpecFun_jll ────────────── v0.5.3+3
  Installed FFTW_jll ───────────────────── v3.3.9+5
  Installed BinaryProvider ─────────────── v0.5.10
  Installed SpecialFunctions ───────────── v0.10.3
  Installed GenericSchur ───────────────── v0.4.0
Updating `~/.julia/environments/v1.6/Project.toml`
  [0dd23c3e] + TwoFAST v0.1.3
Updating `~/.julia/environments/v1.6/Manifest.toml`
  [621f4979] + AbstractFFTs v0.5.0
  [7e558dbc] + ArbNumerics v1.2.1
  [b99e7846] + BinaryProvider v0.5.10
  [e66e0078] + CompilerSupportLibraries_jll v0.3.3+0
  [7a1cc6ca] + FFTW v1.2.4
  [f5851436] + FFTW_jll v3.3.9+5
  [01680d73] + GenericSVD v0.3.0
  [c145ed77] + GenericSchur v0.4.0
  [1d5cc7b8] + IntelOpenMP_jll v2018.0.3+0
  [856f044c] + MKL_jll v2020.2.254+0
  [efe28fd5] + OpenSpecFun_jll v0.5.3+3
  [0d4725de] + Readables v0.3.3
  [189a3867] + Reexport v0.2.0
  [276daf66] + SpecialFunctions v0.10.3
  [0dd23c3e] + TwoFAST v0.1.3
  [56f22d72] + Artifacts
  [2a0f44e3] + Base64
  [ade2ca70] + Dates
  [8bb1440f] + DelimitedFiles
  [b77e0a4c] + InteractiveUtils
  [76f85450] + LibGit2
  [8f399da3] + Libdl
  [37e2e46d] + LinearAlgebra
  [56ddb016] + Logging
  [d6f4376e] + Markdown
  [a63ad114] + Mmap
  [44cfe95a] + Pkg
  [de0858da] + Printf
  [3fa0cd96] + REPL
  [9a3f8284] + Random
  [ea8e919c] + SHA
  [9e88b42a] + Serialization
  [6462fe0b] + Sockets
  [fa267f1f] + TOML
  [8dfed614] + Test
  [cf7118a7] + UUIDs
  [4ec0a83e] + Unicode
   Building ArbNumerics → `~/.julia/scratchspaces/44cfe95a-1eb2-52ea-b672-e2afdf69b78f/329a81d67c64e3a51c176a243b6424fbe39213d0/build.log`
   Building FFTW ───────→ `~/.julia/scratchspaces/44cfe95a-1eb2-52ea-b672-e2afdf69b78f/8b7c16b56936047ca41bf25effa137ae0b381ae8/build.log`
    Testing TwoFAST
Status `/tmp/jl_gBpwP0/Project.toml`
  [7e558dbc] ArbNumerics v1.2.1
  [39dd38d3] Dierckx v0.5.0
  [7a1cc6ca] FFTW v1.2.4
  [276daf66] SpecialFunctions v0.10.3
  [0dd23c3e] TwoFAST v0.1.3
  [8bb1440f] DelimitedFiles
  [37e2e46d] LinearAlgebra
  [56ddb016] Logging
  [8dfed614] Test
Status `/tmp/jl_gBpwP0/Manifest.toml`
  [621f4979] AbstractFFTs v0.5.0
  [7e558dbc] ArbNumerics v1.2.1
  [b99e7846] BinaryProvider v0.5.10
  [e66e0078] CompilerSupportLibraries_jll v0.3.3+0
  [39dd38d3] Dierckx v0.5.0
  [cd4c43a9] Dierckx_jll v0.0.1+0
  [7a1cc6ca] FFTW v1.2.4
  [f5851436] FFTW_jll v3.3.9+5
  [01680d73] GenericSVD v0.3.0
  [c145ed77] GenericSchur v0.4.0
  [1d5cc7b8] IntelOpenMP_jll v2018.0.3+0
  [856f044c] MKL_jll v2020.2.254+0
  [efe28fd5] OpenSpecFun_jll v0.5.3+3
  [0d4725de] Readables v0.3.3
  [189a3867] Reexport v0.2.0
  [276daf66] SpecialFunctions v0.10.3
  [0dd23c3e] TwoFAST v0.1.3
  [56f22d72] Artifacts
  [2a0f44e3] Base64
  [ade2ca70] Dates
  [8bb1440f] DelimitedFiles
  [b77e0a4c] InteractiveUtils
  [76f85450] LibGit2
  [8f399da3] Libdl
  [37e2e46d] LinearAlgebra
  [56ddb016] Logging
  [d6f4376e] Markdown
  [a63ad114] Mmap
  [44cfe95a] Pkg
  [de0858da] Printf
  [3fa0cd96] REPL
  [9a3f8284] Random
  [ea8e919c] SHA
  [9e88b42a] Serialization
  [6462fe0b] Sockets
  [fa267f1f] TOML
  [8dfed614] Test
  [cf7118a7] UUIDs
  [4ec0a83e] Unicode
    Testing Running tests...
WARNING: could not import Printf.ini_hex into ArbNumerics
WARNING: could not import Printf.ini_HEX into ArbNumerics
t = 0.0 sec (0 allocations: 0 byte, 0.0% gc time)
typeof(t) = NamedTuple{(:value, :time, :bytes, :gctime, :gcstats), Tuple{DataType, Float64, Int64, Float64, Base.GC_Diff}}
TwoFAST.PerformanceStats.TimedType = Union{NamedTuple{(:value, :time, :bytes, :gctime, :gcstats), Tuple{T, Float64, Int64, Float64, Base.GC_Diff}}, Tuple{Any, Float64, Int64, Float64, Base.GC_Diff}} where T
t = 0.0 sec (0 allocations: 0 byte, 0.0% gc time)
t: 0.0 sec (0 allocations: 0 byte, 0.0% gc time)
Testing ξ(r), ℓ=0, ν=-1 ... passed
Testing ξ(r), ℓ=0, ν=0 ... passed
Testing ξ(r), ℓ=0, ν=1 ... passed
Testing ξ(r), ℓ=0, ν=2 ... passed
Testing ξ(r), ℓ=0, ν=3 ... passed
Testing ξ(r), ℓ=1, ν=0 ... passed
Testing ξ(r), ℓ=1, ν=1 ... passed
Testing ξ(r), ℓ=1, ν=2 ... passed
Testing ξ(r), ℓ=1, ν=3 ... passed
Testing ξ(r), ℓ=2, ν=-1 ... passed
Testing ξ(r), ℓ=2, ν=0 ... passed
Testing ξ(r), ℓ=2, ν=1 ... passed
Testing ξ(r), ℓ=2, ν=2 ... passed
Testing ξ(r), ℓ=2, ν=3 ... passed
Testing ξ(r), ℓ=3, ν=-1 ... passed
Testing ξ(r), ℓ=3, ν=0 ... passed
Testing ξ(r), ℓ=3, ν=1 ... passed
Testing ξ(r), ℓ=3, ν=2 ... passed
Testing ξ(r), ℓ=3, ν=3 ... passed
Testing ξ(r), ℓ=4, ν=-1 ... passed
Testing ξ(r), ℓ=4, ν=0 ... passed
Testing ξ(r), ℓ=4, ν=1 ... passed
Testing ξ(r), ℓ=4, ν=2 ... passed
Testing ξ(r), ℓ=4, ν=3 ... passed
Testing ξ(r) ... passed
Testing ξ′(r) ... passed
Testing ξ″(r) ... passed
Calculating fmax: 
  dlrec    = 4
  dlrecRg1 = -4
  q=1.1, R=1.1:	  3.744319 seconds (849.35 k allocations: 54.208 MiB, 4.16% gc time, 88.92% compilation time)

  3.745355 seconds (849.41 k allocations: 54.243 MiB, 4.16% gc time, 88.90% compilation time)
ℓ = 1202
Δℓ = 4
ΔℓRg1 = -4
N = 1600
q = 1.1
kmin = 1.0e-5
kmax = 100000.00000000004
χ0 = 0.023029999999999995
RR = RR.tsv
ℓmax = ℓmax.bin
f21 = f21.bin
kmin = 1.0e-5
kmax = 100000.0
dlrec    = 4
dlrecRg1 = -4
Output size: 5741568 bytes = 0.005347251892089844 GiB
Output size: 51264 bytes = 4.774332046508789e-5 GiB
Reading 'out/F21EllCache'...   0.864859 seconds (426.50 k allocations: 24.992 MiB, 5.04% gc time, 99.69% compilation time)
ellmax: 1202
lmaxcache: 1202
fell[:,1,1] = ComplexF64[3.9583795592771634e-52 - 9.695233714158177e-68im, 3.990121772925759e-52 - 9.772979714843386e-68im]
ell 1202, elapsed: 3.790855407714844e-5
ell 1201, elapsed: 1.2854599952697754
ell 1200, elapsed: 0.00042510032653808594
ell 1199, elapsed: 0.0004069805145263672
ell 1198, elapsed: 0.0004000663757324219
ell 1002, elapsed: 0.008287906646728516
ell 1001, elapsed: 0.0003960132598876953
ell 1000, elapsed: 0.00037288665771484375
ell 999, elapsed: 0.00037598609924316406
ell 998, elapsed: 0.00043082237243652344
ell 902, elapsed: 0.004194021224975586
ell 901, elapsed: 0.0003840923309326172
ell 900, elapsed: 0.0003669261932373047
ell 899, elapsed: 0.00037598609924316406
ell 898, elapsed: 0.0003769397735595703
ell 802, elapsed: 0.0041370391845703125
ell 801, elapsed: 0.0003800392150878906
ell 800, elapsed: 0.00037097930908203125
ell 799, elapsed: 0.0003650188446044922
ell 798, elapsed: 0.0003647804260253906
ell 702, elapsed: 0.0041239261627197266
ell 701, elapsed: 0.0003809928894042969
ell 700, elapsed: 0.00036907196044921875
ell 699, elapsed: 0.0003650188446044922
ell 698, elapsed: 0.00036787986755371094
ell 602, elapsed: 0.004133939743041992
ell 601, elapsed: 0.00037598609924316406
ell 600, elapsed: 0.00036907196044921875
ell 599, elapsed: 0.0003790855407714844
ell 598, elapsed: 0.00037407875061035156
ell 502, elapsed: 0.004171848297119141
ell 501, elapsed: 0.0003859996795654297
ell 500, elapsed: 0.0003941059112548828
ell 499, elapsed: 0.00038886070251464844
ell 498, elapsed: 0.00037789344787597656
ell 402, elapsed: 0.0042340755462646484
ell 401, elapsed: 0.00039505958557128906
ell 400, elapsed: 0.00037479400634765625
ell 399, elapsed: 0.0003819465637207031
ell 398, elapsed: 0.0003771781921386719
ell 302, elapsed: 0.004209041595458984
ell 301, elapsed: 0.0003788471221923828
ell 300, elapsed: 0.00039196014404296875
ell 299, elapsed: 0.00036787986755371094
ell 298, elapsed: 0.000370025634765625
ell 202, elapsed: 0.004027128219604492
ell 201, elapsed: 0.0003688335418701172
ell 200, elapsed: 0.0003628730773925781
ell 199, elapsed: 0.00037598609924316406
ell 198, elapsed: 0.00036907196044921875
ell 152, elapsed: 0.0022170543670654297
ell 151, elapsed: 0.0003809928894042969
ell 150, elapsed: 0.0003809928894042969
ell 149, elapsed: 0.0003790855407714844
ell 148, elapsed: 0.0003769397735595703
ell 127, elapsed: 0.0012249946594238281
ell 126, elapsed: 0.00047206878662109375
ell 125, elapsed: 0.0003800392150878906
ell 124, elapsed: 0.0003829002380371094
ell 123, elapsed: 0.0003848075866699219
ell 114, elapsed: 0.0007600784301757812
ell 113, elapsed: 0.00039076805114746094
ell 112, elapsed: 0.0003879070281982422
ell 111, elapsed: 0.00037598609924316406
ell 110, elapsed: 0.0003788471221923828
ell 102, elapsed: 0.0007350444793701172
ell 101, elapsed: 0.0003800392150878906
ell 100, elapsed: 0.0003829002380371094
ell 99, elapsed: 0.00038313865661621094
ell 98, elapsed: 0.00037789344787597656
ell 97, elapsed: 0.00041794776916503906
ell 96, elapsed: 0.00041103363037109375
ell 95, elapsed: 0.00040984153747558594
ell 94, elapsed: 0.00041294097900390625
ell 93, elapsed: 0.00042700767517089844
ell 92, elapsed: 0.0004119873046875
ell 91, elapsed: 0.0004069805145263672
ell 90, elapsed: 0.00040793418884277344
ell 89, elapsed: 0.0004150867462158203
ell 88, elapsed: 0.00041103363037109375
ell 87, elapsed: 0.0004420280456542969
ell 86, elapsed: 0.0004069805145263672
ell 85, elapsed: 0.0004100799560546875
ell 84, elapsed: 0.00043010711669921875
ell 83, elapsed: 0.000408172607421875
ell 82, elapsed: 0.00040984153747558594
ell 81, elapsed: 0.0004000663757324219
ell 80, elapsed: 0.00040912628173828125
ell 79, elapsed: 0.00040793418884277344
ell 78, elapsed: 0.0004000663757324219
ell 77, elapsed: 0.0004031658172607422
ell 76, elapsed: 0.0003910064697265625
ell 75, elapsed: 0.0004239082336425781
ell 74, elapsed: 0.00039505958557128906
ell 73, elapsed: 0.00039196014404296875
ell 72, elapsed: 0.00040602684020996094
ell 71, elapsed: 0.00038886070251464844
ell 70, elapsed: 0.00041484832763671875
ell 69, elapsed: 0.0003960132598876953
ell 68, elapsed: 0.0003979206085205078
ell 67, elapsed: 0.00039577484130859375
ell 66, elapsed: 0.00042700767517089844
ell 65, elapsed: 0.0004138946533203125
ell 64, elapsed: 0.0003879070281982422
ell 63, elapsed: 0.0003941059112548828
ell 62, elapsed: 0.0003859996795654297
ell 61, elapsed: 0.00038504600524902344
ell 60, elapsed: 0.00038814544677734375
ell 59, elapsed: 0.0004019737243652344
ell 58, elapsed: 0.00038504600524902344
ell 57, elapsed: 0.00039696693420410156
ell 56, elapsed: 0.0003879070281982422
ell 55, elapsed: 0.00041484832763671875
ell 54, elapsed: 0.00038695335388183594
ell 53, elapsed: 0.00037980079650878906
ell 52, elapsed: 0.0003898143768310547
ell 51, elapsed: 0.00039577484130859375
ell 50, elapsed: 0.0003879070281982422
ell 49, elapsed: 0.00038909912109375
ell 48, elapsed: 0.00039505958557128906
ell 47, elapsed: 0.0003948211669921875
ell 46, elapsed: 0.0004119873046875
ell 45, elapsed: 0.00038909912109375
ell 44, elapsed: 0.0003859996795654297
ell 43, elapsed: 0.0003859996795654297
ell 42, elapsed: 0.00039005279541015625
ell 41, elapsed: 0.00038313865661621094
ell 40, elapsed: 0.00039887428283691406
ell 39, elapsed: 0.00039696693420410156
ell 38, elapsed: 0.00039505958557128906
ell 37, elapsed: 0.0003979206085205078
ell 36, elapsed: 0.0004260540008544922
ell 35, elapsed: 0.00039577484130859375
ell 34, elapsed: 0.0004000663757324219
ell 33, elapsed: 0.0003910064697265625
ell 32, elapsed: 0.0004000663757324219
ell 31, elapsed: 0.000392913818359375
ell 30, elapsed: 0.0004019737243652344
ell 29, elapsed: 0.00041103363037109375
ell 28, elapsed: 0.00040793418884277344
ell 27, elapsed: 0.0004150867462158203
ell 26, elapsed: 0.0004100799560546875
ell 25, elapsed: 0.0004220008850097656
ell 24, elapsed: 0.0004100799560546875
ell 23, elapsed: 0.000408172607421875
ell 22, elapsed: 0.0004131793975830078
ell 21, elapsed: 0.0004088878631591797
ell 20, elapsed: 0.0004069805145263672
ell 19, elapsed: 0.00040912628173828125
ell 18, elapsed: 0.00040912628173828125
ell 17, elapsed: 0.000453948974609375
ell 16, elapsed: 0.00041103363037109375
ell 15, elapsed: 0.0004150867462158203
ell 14, elapsed: 0.00041604042053222656
ell 13, elapsed: 0.00040602684020996094
ell 12, elapsed: 0.000415802001953125
ell 11, elapsed: 0.0004019737243652344
ell 10, elapsed: 0.00041294097900390625
ell 9, elapsed: 0.0004048347473144531
ell 8, elapsed: 0.00043320655822753906
ell 7, elapsed: 0.00041294097900390625
ell 6, elapsed: 0.00040984153747558594
ell 5, elapsed: 0.00040793418884277344
ell 4, elapsed: 0.0004119873046875
ell 3, elapsed: 0.00040912628173828125
ell 2, elapsed: 0.0004208087921142578
ell 1, elapsed: 0.0004069805145263672
ell 0, elapsed: 0.00040912628173828125
  2.096881 seconds (1.38 M allocations: 74.560 MiB, 5.01% gc time, 94.65% compilation time)
elapsed: 0.0005271434783935547
step:          0.408667 sec (311.15 k allocations: 16.965 MB, 9.57% gc time)
swapping:      0.000325 sec (0 allocations: 0 byte, 0.0% gc time)
calc_Mellell!: 0.161235 sec (135.746 k allocations: 7.449 MB, 0.0% gc time)
  t0 :  0.0 sec (0 allocations: 0 byte, 0.0% gc time)
  tm2 : 0.0 sec (0 allocations: 0 byte, 0.0% gc time)
  tm2s: 0.0 sec (0 allocations: 0 byte, 0.0% gc time)
  tm4 : 0.0 sec (0 allocations: 0 byte, 0.0% gc time)
  tp2 : 0.0 sec (0 allocations: 0 byte, 0.0% gc time)
  tp2s: 0.0 sec (0 allocations: 0 byte, 0.0% gc time)
  tp4 : 0.0 sec (0 allocations: 0 byte, 0.0% gc time)
calc_wtdll!:   0.814257 sec (509.624 k allocations: 28.199 MB, 0.0% gc time)
calc_wljj!:    0.001861 sec (6 allocations: 96 byte, 0.0% gc time)
mult_prefac!:  0.0 sec (0 allocations: 0 byte, 0.0% gc time)
convert:       0.0 sec (0 allocations: 0 byte, 0.0% gc time)
write:         0.002805 sec (0 allocations: 0 byte, 0.0% gc time)
test_rand_2f1: 0.0 sec (0 allocations: 0 byte, 0.0% gc time)
Closing outfile out/Ml21-cache.bin...   0.000005 seconds
  1.426614 seconds (246.39 k allocations: 14.220 MiB, 60.14% compilation time)
make_phi():   0.008602 seconds (8.18 k allocations: 237.844 KiB)
  0.276334 seconds (87.57 k allocations: 4.765 MiB, 94.97% compilation time)
tskip:       1.8e-5 sec (0 allocations: 0 byte, 0.0% gc time)
tread:       0.00211 sec (17 allocations: 2.125 KB, 0.0% gc time)
tmultphi:    0.053185 sec (21.425 k allocations: 1.287 MB, 0.0% gc time)
tbrfft:      0.003957 sec (0 allocations: 0 byte, 0.0% gc time)
tmultprefac: 0.001593 sec (0 allocations: 0 byte, 0.0% gc time)
toutfunc:    0.174566 sec (64.486 k allocations: 3.347 MB, 0.0% gc time)
Testing R=1.1 ... passed
Calculating fmax: 
  dlrec    = 4
  dlrecRg1 = -4
  q=1.1, R=1.0:	  0.001145 seconds (3.20 k allocations: 275.344 KiB)

  0.001307 seconds (3.25 k allocations: 309.922 KiB)
ℓ = 1202
Δℓ = 4
ΔℓRg1 = -4
N = 1600
q = 1.1
kmin = 1.0e-5
kmax = 100000.00000000004
χ0 = 0.023029999999999995
RR = RR.tsv
ℓmax = ℓmax.bin
f21 = f21.bin
kmin = 1.0e-5
kmax = 100000.0
dlrec    = 4
dlrecRg1 = -4
Output size: 61465536 bytes = 0.05724424123764038 GiB
Output size: 51264 bytes = 4.774332046508789e-5 GiB
Reading 'out/F21EllCache'...   0.000939 seconds (197 allocations: 84.203 KiB)
ellmax: 1202
lmaxcache: 1202
fell[:,1,1] = ComplexF64[809.6031528389767 - 1.9829558194077161e-13im, 0.0 + 0.0im]
ell 1202, elapsed: 2.4080276489257812e-5
ell 1201, elapsed: 0.013957977294921875
ell 1200, elapsed: 0.013107061386108398
ell 1199, elapsed: 0.00027108192443847656
ell 1198, elapsed: 0.00027489662170410156
ell 1197, elapsed: 0.001190185546875
ell 1196, elapsed: 0.0008749961853027344
ell 1195, elapsed: 0.000885009765625
ell 1194, elapsed: 0.0008780956268310547
ell 1193, elapsed: 0.0002989768981933594
ell 1192, elapsed: 0.0003390312194824219
ell 1191, elapsed: 0.00030612945556640625
ell 1190, elapsed: 0.0002899169921875
ell 1189, elapsed: 0.0002830028533935547
ell 1188, elapsed: 0.00028896331787109375
ell 1187, elapsed: 0.0002880096435546875
ell 1186, elapsed: 0.00029015541076660156
ell 1185, elapsed: 0.0002899169921875
ell 1184, elapsed: 0.000286102294921875
ell 1183, elapsed: 0.0002961158752441406
ell 1182, elapsed: 0.0002830028533935547
ell 1181, elapsed: 0.0002899169921875
ell 1180, elapsed: 0.0002899169921875
ell 1179, elapsed: 0.0002989768981933594
ell 1178, elapsed: 0.0002911090850830078
ell 1177, elapsed: 0.00028896331787109375
ell 1176, elapsed: 0.0002949237823486328
ell 1175, elapsed: 0.00028395652770996094
ell 1174, elapsed: 0.0002841949462890625
ell 1173, elapsed: 0.00029206275939941406
ell 1172, elapsed: 0.00028204917907714844
ell 1171, elapsed: 0.00029587745666503906
ell 1170, elapsed: 0.0002810955047607422
ell 1169, elapsed: 0.0002880096435546875
ell 1168, elapsed: 0.0002799034118652344
ell 1167, elapsed: 0.0002899169921875
ell 1166, elapsed: 0.0003020763397216797
ell 1165, elapsed: 0.0002830028533935547
ell 1164, elapsed: 0.000286102294921875
ell 1163, elapsed: 0.00028014183044433594
ell 1162, elapsed: 0.00028204917907714844
ell 1161, elapsed: 0.0002911090850830078
ell 1160, elapsed: 0.0002830028533935547
ell 1159, elapsed: 0.0002880096435546875
ell 1158, elapsed: 0.0002799034118652344
ell 1157, elapsed: 0.00029206275939941406
ell 1156, elapsed: 0.0002961158752441406
ell 1155, elapsed: 0.00028204917907714844
ell 1154, elapsed: 0.00029206275939941406
ell 1153, elapsed: 0.00032591819763183594
ell 1152, elapsed: 0.0002841949462890625
ell 1151, elapsed: 0.0002911090850830078
ell 1150, elapsed: 0.00028204917907714844
ell 1149, elapsed: 0.0002899169921875
ell 1148, elapsed: 0.00028705596923828125
ell 1147, elapsed: 0.00028204917907714844
ell 1146, elapsed: 0.0002892017364501953
ell 1145, elapsed: 0.0002818107604980469
ell 1144, elapsed: 0.0002868175506591797
ell 1143, elapsed: 0.0002830028533935547
ell 1142, elapsed: 0.000286102294921875
ell 1141, elapsed: 0.00029397010803222656
ell 1140, elapsed: 0.0003008842468261719
ell 1139, elapsed: 0.0002930164337158203
ell 1138, elapsed: 0.00028395652770996094
ell 1137, elapsed: 0.00028204917907714844
ell 1136, elapsed: 0.00029397010803222656
ell 1135, elapsed: 0.00028204917907714844
ell 1134, elapsed: 0.0002930164337158203
ell 1133, elapsed: 0.00028514862060546875
ell 1132, elapsed: 0.00028395652770996094
ell 1131, elapsed: 0.00028896331787109375
ell 1130, elapsed: 0.00028705596923828125
ell 1129, elapsed: 0.0002880096435546875
ell 1128, elapsed: 0.00028896331787109375
ell 1127, elapsed: 0.0002989768981933594
ell 1126, elapsed: 0.00029397010803222656
ell 1125, elapsed: 0.00029206275939941406
ell 1124, elapsed: 0.0002899169921875
ell 1123, elapsed: 0.0002880096435546875
ell 1122, elapsed: 0.0002989768981933594
ell 1121, elapsed: 0.0002970695495605469
ell 1120, elapsed: 0.000286102294921875
ell 1119, elapsed: 0.0002951622009277344
ell 1118, elapsed: 0.0002830028533935547
ell 1117, elapsed: 0.0002930164337158203
ell 1116, elapsed: 0.0002899169921875
ell 1115, elapsed: 0.0002849102020263672
ell 1114, elapsed: 0.0003249645233154297
ell 1113, elapsed: 0.00028395652770996094
ell 1112, elapsed: 0.0002949237823486328
ell 1111, elapsed: 0.0002892017364501953
ell 1110, elapsed: 0.00028514862060546875
ell 1109, elapsed: 0.0002911090850830078
ell 1108, elapsed: 0.00028705596923828125
ell 1107, elapsed: 0.0002918243408203125
ell 1106, elapsed: 0.0002899169921875
ell 1105, elapsed: 0.00029015541076660156
ell 1104, elapsed: 0.00029015541076660156
ell 1103, elapsed: 0.00028705596923828125
ell 1102, elapsed: 0.0002911090850830078
ell 1101, elapsed: 0.0003139972686767578
ell 1100, elapsed: 0.00028395652770996094
ell 1099, elapsed: 0.00029397010803222656
ell 1098, elapsed: 0.0002830028533935547
ell 1097, elapsed: 0.0002880096435546875
ell 1096, elapsed: 0.00028586387634277344
ell 1095, elapsed: 0.00028395652770996094
ell 1094, elapsed: 0.00031113624572753906
ell 1093, elapsed: 0.00028586387634277344
ell 1092, elapsed: 0.0002899169921875
ell 1091, elapsed: 0.000286102294921875
ell 1090, elapsed: 0.00028705596923828125
ell 1089, elapsed: 0.0002880096435546875
ell 1088, elapsed: 0.0003199577331542969
ell 1087, elapsed: 0.0003108978271484375
ell 1086, elapsed: 0.0002899169921875
ell 1085, elapsed: 0.00028896331787109375
ell 1084, elapsed: 0.00028514862060546875
ell 1083, elapsed: 0.00028014183044433594
ell 1082, elapsed: 0.0002849102020263672
ell 1081, elapsed: 0.0002808570861816406
ell 1080, elapsed: 0.00028705596923828125
ell 1079, elapsed: 0.0002880096435546875
ell 1078, elapsed: 0.0002868175506591797
ell 1077, elapsed: 0.0002899169921875
ell 1076, elapsed: 0.0002961158752441406
ell 1075, elapsed: 0.0003139972686767578
ell 1074, elapsed: 0.00029087066650390625
ell 1073, elapsed: 0.00028395652770996094
ell 1072, elapsed: 0.0002880096435546875
ell 1071, elapsed: 0.0002849102020263672
ell 1070, elapsed: 0.0003058910369873047
ell 1069, elapsed: 0.0002791881561279297
ell 1068, elapsed: 0.0002720355987548828
ell 1067, elapsed: 0.0002760887145996094
ell 1066, elapsed: 0.0002899169921875
ell 1065, elapsed: 0.00028586387634277344
ell 1064, elapsed: 0.0002880096435546875
ell 1063, elapsed: 0.00028705596923828125
ell 1062, elapsed: 0.00031685829162597656
ell 1061, elapsed: 0.0002830028533935547
ell 1060, elapsed: 0.0002899169921875
ell 1059, elapsed: 0.0002830028533935547
ell 1058, elapsed: 0.0002810955047607422
ell 1057, elapsed: 0.00028896331787109375
ell 1056, elapsed: 0.0002789497375488281
ell 1055, elapsed: 0.0002689361572265625
ell 1054, elapsed: 0.0002598762512207031
ell 1053, elapsed: 0.0002639293670654297
ell 1052, elapsed: 0.0002639293670654297
ell 1051, elapsed: 0.0002601146697998047
ell 1050, elapsed: 0.0002930164337158203
ell 1049, elapsed: 0.00030684471130371094
ell 1048, elapsed: 0.0002789497375488281
ell 1047, elapsed: 0.00028896331787109375
ell 1046, elapsed: 0.00027489662170410156
ell 1045, elapsed: 0.000286102294921875
ell 1044, elapsed: 0.00027680397033691406
ell 1043, elapsed: 0.00028705596923828125
ell 1042, elapsed: 0.00028705596923828125
ell 1041, elapsed: 0.0002810955047607422
ell 1040, elapsed: 0.00028395652770996094
ell 1039, elapsed: 0.0002818107604980469
ell 1038, elapsed: 0.00028395652770996094
ell 1037, elapsed: 0.00028395652770996094
ell 1036, elapsed: 0.0002799034118652344
ell 1035, elapsed: 0.0002880096435546875
ell 1034, elapsed: 0.0002968311309814453
ell 1033, elapsed: 0.0002810955047607422
ell 1032, elapsed: 0.0002849102020263672
ell 1031, elapsed: 0.00028395652770996094
ell 1030, elapsed: 0.0002930164337158203
ell 1029, elapsed: 0.0002799034118652344
ell 1028, elapsed: 0.00027298927307128906
ell 1027, elapsed: 0.0002808570861816406
ell 1026, elapsed: 0.0002918243408203125
ell 1025, elapsed: 0.00028896331787109375
ell 1024, elapsed: 0.00029015541076660156
ell 1023, elapsed: 0.00029087066650390625
ell 1022, elapsed: 0.0002989768981933594
ell 1021, elapsed: 0.00026416778564453125
ell 1020, elapsed: 0.0002930164337158203
ell 1019, elapsed: 0.00029015541076660156
ell 1018, elapsed: 0.00029087066650390625
ell 1017, elapsed: 0.00029397010803222656
ell 1016, elapsed: 0.00028586387634277344
ell 1015, elapsed: 0.0002930164337158203
ell 1014, elapsed: 0.0002789497375488281
ell 1013, elapsed: 0.000286102294921875
ell 1012, elapsed: 0.00029587745666503906
ell 1011, elapsed: 0.00028705596923828125
ell 1010, elapsed: 0.0003039836883544922
ell 1009, elapsed: 0.00035500526428222656
ell 1008, elapsed: 0.0003001689910888672
ell 1007, elapsed: 0.00030493736267089844
ell 1006, elapsed: 0.00029397010803222656
ell 1005, elapsed: 0.00030303001403808594
ell 1004, elapsed: 0.0003018379211425781
ell 1003, elapsed: 0.00030493736267089844
ell 1002, elapsed: 0.0002989768981933594
ell 1001, elapsed: 0.00030303001403808594
ell 1000, elapsed: 0.0003020763397216797
ell 999, elapsed: 0.0002980232238769531
ell 998, elapsed: 0.0003190040588378906
ell 997, elapsed: 0.00032806396484375
ell 996, elapsed: 0.0002989768981933594
ell 995, elapsed: 0.00030493736267089844
ell 994, elapsed: 0.0002961158752441406
ell 993, elapsed: 0.00030803680419921875
ell 992, elapsed: 0.00030112266540527344
ell 991, elapsed: 0.00030112266540527344
ell 990, elapsed: 0.0003159046173095703
ell 989, elapsed: 0.0003070831298828125
ell 988, elapsed: 0.0003039836883544922
ell 987, elapsed: 0.0002970695495605469
ell 986, elapsed: 0.0002951622009277344
ell 985, elapsed: 0.0003311634063720703
ell 984, elapsed: 0.0003039836883544922
ell 983, elapsed: 0.00031280517578125
ell 982, elapsed: 0.0002510547637939453
ell 981, elapsed: 0.000247955322265625
ell 980, elapsed: 0.00031495094299316406
ell 979, elapsed: 0.00031113624572753906
ell 978, elapsed: 0.0003631114959716797
ell 977, elapsed: 0.0003070831298828125
ell 976, elapsed: 0.0003058910369873047
ell 975, elapsed: 0.0002808570861816406
ell 974, elapsed: 0.0002989768981933594
ell 973, elapsed: 0.00030303001403808594
ell 972, elapsed: 0.00033783912658691406
ell 971, elapsed: 0.00027298927307128906
ell 970, elapsed: 0.0003077983856201172
ell 969, elapsed: 0.0002930164337158203
ell 968, elapsed: 0.0002980232238769531
ell 967, elapsed: 0.0002949237823486328
ell 966, elapsed: 0.00029397010803222656
ell 965, elapsed: 0.00030112266540527344
ell 964, elapsed: 0.0002968311309814453
ell 963, elapsed: 0.0003151893615722656
ell 962, elapsed: 0.0002830028533935547
ell 961, elapsed: 0.00027298927307128906
ell 960, elapsed: 0.00028204917907714844
ell 959, elapsed: 0.0003921985626220703
ell 958, elapsed: 0.0003139972686767578
ell 957, elapsed: 0.0002760887145996094
ell 956, elapsed: 0.00030112266540527344
ell 955, elapsed: 0.0002999305725097656
ell 954, elapsed: 0.0002989768981933594
ell 953, elapsed: 0.0003027915954589844
ell 952, elapsed: 0.00029397010803222656
ell 951, elapsed: 0.0003039836883544922
ell 950, elapsed: 0.0002961158752441406
ell 949, elapsed: 0.0003020763397216797
ell 948, elapsed: 0.0003039836883544922
ell 947, elapsed: 0.0003228187561035156
ell 946, elapsed: 0.00031304359436035156
ell 945, elapsed: 0.0002999305725097656
ell 944, elapsed: 0.0002970695495605469
ell 943, elapsed: 0.0003077983856201172
ell 942, elapsed: 0.0002980232238769531
ell 941, elapsed: 0.00030803680419921875
ell 940, elapsed: 0.00030303001403808594
ell 939, elapsed: 0.00029397010803222656
ell 938, elapsed: 0.0003101825714111328
ell 937, elapsed: 0.0003170967102050781
ell 936, elapsed: 0.0003190040588378906
ell 935, elapsed: 0.0003521442413330078
ell 934, elapsed: 0.00030303001403808594
ell 933, elapsed: 0.0003070831298828125
ell 932, elapsed: 0.0003020763397216797
ell 931, elapsed: 0.0003120899200439453
ell 930, elapsed: 0.0003178119659423828
ell 929, elapsed: 0.00031495094299316406
ell 928, elapsed: 0.0003120899200439453
ell 927, elapsed: 0.00030803680419921875
ell 926, elapsed: 0.00031304359436035156
ell 925, elapsed: 0.0003039836883544922
ell 924, elapsed: 0.00030994415283203125
ell 923, elapsed: 0.00034117698669433594
ell 922, elapsed: 0.0003039836883544922
ell 921, elapsed: 0.0003170967102050781
ell 920, elapsed: 0.0002989768981933594
ell 919, elapsed: 0.00030303001403808594
ell 918, elapsed: 0.0003180503845214844
ell 917, elapsed: 0.0002989768981933594
ell 916, elapsed: 0.00031113624572753906
ell 915, elapsed: 0.0003001689910888672
ell 914, elapsed: 0.0003039836883544922
ell 913, elapsed: 0.0003101825714111328
ell 912, elapsed: 0.0003070831298828125
ell 911, elapsed: 0.0003371238708496094
ell 910, elapsed: 0.0003039836883544922
ell 909, elapsed: 0.0003039836883544922
ell 908, elapsed: 0.0003018379211425781
ell 907, elapsed: 0.0002999305725097656
ell 906, elapsed: 0.0003008842468261719
ell 905, elapsed: 0.0002968311309814453
ell 904, elapsed: 0.00029206275939941406
ell 903, elapsed: 0.00030303001403808594
ell 902, elapsed: 0.0002961158752441406
ell 901, elapsed: 0.00030493736267089844
ell 900, elapsed: 0.0002970695495605469
ell 899, elapsed: 0.0003159046173095703
ell 898, elapsed: 0.000347137451171875
ell 897, elapsed: 0.0002980232238769531
ell 896, elapsed: 0.00031113624572753906
ell 895, elapsed: 0.00030112266540527344
ell 894, elapsed: 0.0003039836883544922
ell 893, elapsed: 0.0002970695495605469
ell 892, elapsed: 0.00030112266540527344
ell 891, elapsed: 0.0003108978271484375
ell 890, elapsed: 0.00030684471130371094
ell 889, elapsed: 0.0003018379211425781
ell 888, elapsed: 0.00030112266540527344
ell 887, elapsed: 0.0002980232238769531
ell 886, elapsed: 0.00038886070251464844
ell 885, elapsed: 0.0003039836883544922
ell 884, elapsed: 0.000308990478515625
ell 883, elapsed: 0.0003039836883544922
ell 882, elapsed: 0.0002949237823486328
ell 881, elapsed: 0.0003018379211425781
ell 880, elapsed: 0.0002980232238769531
ell 879, elapsed: 0.0002980232238769531
ell 878, elapsed: 0.0002970695495605469
ell 877, elapsed: 0.00029206275939941406
ell 876, elapsed: 0.00030303001403808594
ell 875, elapsed: 0.0002930164337158203
ell 874, elapsed: 0.0003409385681152344
ell 873, elapsed: 0.0002930164337158203
ell 872, elapsed: 0.0003120899200439453
ell 871, elapsed: 0.0003020763397216797
ell 870, elapsed: 0.0002970695495605469
ell 869, elapsed: 0.0002980232238769531
ell 868, elapsed: 0.0002989768981933594
ell 867, elapsed: 0.00029015541076660156
ell 866, elapsed: 0.0003001689910888672
ell 865, elapsed: 0.0002989768981933594
ell 864, elapsed: 0.0002961158752441406
ell 863, elapsed: 0.0002989768981933594
ell 862, elapsed: 0.0002970695495605469
ell 861, elapsed: 0.0003027915954589844
ell 860, elapsed: 0.0002980232238769531
ell 859, elapsed: 0.0003039836883544922
ell 858, elapsed: 0.00029206275939941406
ell 857, elapsed: 0.0002989768981933594
ell 856, elapsed: 0.0002968311309814453
ell 855, elapsed: 0.00029587745666503906
ell 854, elapsed: 0.0002970695495605469
ell 853, elapsed: 0.0002989768981933594
ell 852, elapsed: 0.0002999305725097656
ell 851, elapsed: 0.0002999305725097656
ell 850, elapsed: 0.0003008842468261719
ell 849, elapsed: 0.0003299713134765625
ell 848, elapsed: 0.00029277801513671875
ell 847, elapsed: 0.0002999305725097656
ell 846, elapsed: 0.00029206275939941406
ell 845, elapsed: 0.0002930164337158203
ell 844, elapsed: 0.00029397010803222656
ell 843, elapsed: 0.0002541542053222656
ell 842, elapsed: 0.00029206275939941406
ell 841, elapsed: 0.00029397010803222656
ell 840, elapsed: 0.0002880096435546875
ell 839, elapsed: 0.0002880096435546875
ell 838, elapsed: 0.00023889541625976562
ell 837, elapsed: 0.00025010108947753906
ell 836, elapsed: 0.0002579689025878906
ell 835, elapsed: 0.00023794174194335938
ell 834, elapsed: 0.0002410411834716797
ell 833, elapsed: 0.0002589225769042969
ell 832, elapsed: 0.00028896331787109375
ell 831, elapsed: 0.0002830028533935547
ell 830, elapsed: 0.00028586387634277344
ell 829, elapsed: 0.0002830028533935547
ell 828, elapsed: 0.00028395652770996094
ell 827, elapsed: 0.00029087066650390625
ell 826, elapsed: 0.00027298927307128906
ell 825, elapsed: 0.0002357959747314453
ell 824, elapsed: 0.0002579689025878906
ell 823, elapsed: 0.0002810955047607422
ell 822, elapsed: 0.0003681182861328125
ell 821, elapsed: 0.0002808570861816406
ell 820, elapsed: 0.0002899169921875
ell 819, elapsed: 0.00028204917907714844
ell 818, elapsed: 0.00028395652770996094
ell 817, elapsed: 0.0002808570861816406
ell 816, elapsed: 0.0002810955047607422
ell 815, elapsed: 0.0002911090850830078
ell 814, elapsed: 0.0002770423889160156
ell 813, elapsed: 0.00028204917907714844
ell 812, elapsed: 0.00029206275939941406
ell 811, elapsed: 0.0002689361572265625
ell 810, elapsed: 0.000244140625
ell 809, elapsed: 0.00023102760314941406
ell 808, elapsed: 0.0002529621124267578
ell 807, elapsed: 0.0002319812774658203
ell 806, elapsed: 0.0002639293670654297
ell 805, elapsed: 0.00028586387634277344
ell 804, elapsed: 0.00026917457580566406
ell 803, elapsed: 0.00022912025451660156
ell 802, elapsed: 0.00026702880859375
ell 801, elapsed: 0.0002770423889160156
ell 800, elapsed: 0.0002791881561279297
ell 799, elapsed: 0.00027489662170410156
ell 798, elapsed: 0.0002739429473876953
ell 797, elapsed: 0.0002830028533935547
ell 796, elapsed: 0.0002720355987548828
ell 795, elapsed: 0.00028204917907714844
ell 794, elapsed: 0.00035190582275390625
ell 793, elapsed: 0.0002849102020263672
ell 792, elapsed: 0.0002791881561279297
ell 791, elapsed: 0.00028204917907714844
ell 790, elapsed: 0.0002868175506591797
ell 789, elapsed: 0.0002770423889160156
ell 788, elapsed: 0.000286102294921875
ell 787, elapsed: 0.0002789497375488281
ell 786, elapsed: 0.0002751350402832031
ell 785, elapsed: 0.0002849102020263672
ell 784, elapsed: 0.0002789497375488281
ell 783, elapsed: 0.00029015541076660156
ell 782, elapsed: 0.0002739429473876953
ell 781, elapsed: 0.0003139972686767578
ell 780, elapsed: 0.00028204917907714844
ell 779, elapsed: 0.00028014183044433594
ell 778, elapsed: 0.00029087066650390625
ell 777, elapsed: 0.0002830028533935547
ell 776, elapsed: 0.0002791881561279297
ell 775, elapsed: 0.00028514862060546875
ell 774, elapsed: 0.00028204917907714844
ell 773, elapsed: 0.0002849102020263672
ell 772, elapsed: 0.000286102294921875
ell 771, elapsed: 0.00028705596923828125
ell 770, elapsed: 0.00028896331787109375
ell 769, elapsed: 0.0002880096435546875
ell 768, elapsed: 0.0003161430358886719
ell 767, elapsed: 0.00028586387634277344
ell 766, elapsed: 0.00029087066650390625
ell 765, elapsed: 0.0002830028533935547
ell 764, elapsed: 0.0002830028533935547
ell 763, elapsed: 0.0002899169921875
ell 762, elapsed: 0.0002808570861816406
ell 761, elapsed: 0.0002880096435546875
ell 760, elapsed: 0.0002989768981933594
ell 759, elapsed: 0.0002498626708984375
ell 758, elapsed: 0.00023698806762695312
ell 757, elapsed: 0.00023317337036132812
ell 756, elapsed: 0.00023889541625976562
ell 755, elapsed: 0.00023317337036132812
ell 754, elapsed: 0.0003039836883544922
ell 753, elapsed: 0.00026488304138183594
ell 752, elapsed: 0.00026297569274902344
ell 751, elapsed: 0.00026106834411621094
ell 750, elapsed: 0.0002601146697998047
ell 749, elapsed: 0.0002582073211669922
ell 748, elapsed: 0.0002651214599609375
ell 747, elapsed: 0.0002560615539550781
ell 746, elapsed: 0.0002689361572265625
ell 745, elapsed: 0.0002741813659667969
ell 744, elapsed: 0.00026488304138183594
ell 743, elapsed: 0.0002620220184326172
ell 742, elapsed: 0.0002589225769042969
ell 741, elapsed: 0.00029206275939941406
ell 740, elapsed: 0.0002980232238769531
ell 739, elapsed: 0.0002911090850830078
ell 738, elapsed: 0.000270843505859375
ell 737, elapsed: 0.00027298927307128906
ell 736, elapsed: 0.0002751350402832031
ell 735, elapsed: 0.0002720355987548828
ell 734, elapsed: 0.0002849102020263672
ell 733, elapsed: 0.0002810955047607422
ell 732, elapsed: 0.00028395652770996094
ell 731, elapsed: 0.00029206275939941406
ell 730, elapsed: 0.0002758502960205078
ell 729, elapsed: 0.0002779960632324219
ell 728, elapsed: 0.00027298927307128906
ell 727, elapsed: 0.0002720355987548828
ell 726, elapsed: 0.0003299713134765625
ell 725, elapsed: 0.0002758502960205078
ell 724, elapsed: 0.00028395652770996094
ell 723, elapsed: 0.0002739429473876953
ell 722, elapsed: 0.00026988983154296875
ell 721, elapsed: 0.0002799034118652344
ell 720, elapsed: 0.0002760887145996094
ell 719, elapsed: 0.0002779960632324219
ell 718, elapsed: 0.00027298927307128906
ell 717, elapsed: 0.00028014183044433594
ell 716, elapsed: 0.00028395652770996094
ell 715, elapsed: 0.0002741813659667969
ell 714, elapsed: 0.00028586387634277344
ell 713, elapsed: 0.0003039836883544922
ell 712, elapsed: 0.0002770423889160156
ell 711, elapsed: 0.0002849102020263672
ell 710, elapsed: 0.0002760887145996094
ell 709, elapsed: 0.00028204917907714844
ell 708, elapsed: 0.0002741813659667969
ell 707, elapsed: 0.00029397010803222656
ell 706, elapsed: 0.0002830028533935547
ell 705, elapsed: 0.00028395652770996094
ell 704, elapsed: 0.00030684471130371094
ell 703, elapsed: 0.00029087066650390625
ell 702, elapsed: 0.00030517578125
ell 701, elapsed: 0.00028896331787109375
ell 700, elapsed: 0.0003421306610107422
ell 699, elapsed: 0.0002930164337158203
ell 698, elapsed: 0.0003039836883544922
ell 697, elapsed: 0.0002999305725097656
ell 696, elapsed: 0.0002949237823486328
ell 695, elapsed: 0.0002918243408203125
ell 694, elapsed: 0.0003120899200439453
ell 693, elapsed: 0.0002970695495605469
ell 692, elapsed: 0.00030112266540527344
ell 691, elapsed: 0.0002989768981933594
ell 690, elapsed: 0.0003001689910888672
ell 689, elapsed: 0.0003020763397216797
ell 688, elapsed: 0.0003020763397216797
ell 687, elapsed: 0.00036406517028808594
ell 686, elapsed: 0.00029587745666503906
ell 685, elapsed: 0.0002970695495605469
ell 684, elapsed: 0.00030994415283203125
ell 683, elapsed: 0.0002989768981933594
ell 682, elapsed: 0.00030112266540527344
ell 681, elapsed: 0.0002961158752441406
ell 680, elapsed: 0.0002961158752441406
ell 679, elapsed: 0.00031304359436035156
ell 678, elapsed: 0.0002989768981933594
ell 677, elapsed: 0.0003018379211425781
ell 676, elapsed: 0.0002999305725097656
ell 675, elapsed: 0.00032782554626464844
ell 674, elapsed: 0.0002970695495605469
ell 673, elapsed: 0.0002980232238769531
ell 672, elapsed: 0.0003008842468261719
ell 671, elapsed: 0.0002999305725097656
ell 670, elapsed: 0.00030303001403808594
ell 669, elapsed: 0.0003001689910888672
ell 668, elapsed: 0.0002970695495605469
ell 667, elapsed: 0.000308990478515625
ell 666, elapsed: 0.0002970695495605469
ell 665, elapsed: 0.0002999305725097656
ell 664, elapsed: 0.0002951622009277344
ell 663, elapsed: 0.0003509521484375
ell 662, elapsed: 0.00030303001403808594
ell 661, elapsed: 0.0002980232238769531
ell 660, elapsed: 0.0003018379211425781
ell 659, elapsed: 0.0002968311309814453
ell 658, elapsed: 0.0002930164337158203
ell 657, elapsed: 0.0003139972686767578
ell 656, elapsed: 0.0002989768981933594
ell 655, elapsed: 0.00030303001403808594
ell 654, elapsed: 0.0002999305725097656
ell 653, elapsed: 0.0002999305725097656
ell 652, elapsed: 0.00030493736267089844
ell 651, elapsed: 0.0002999305725097656
ell 650, elapsed: 0.0003349781036376953
ell 649, elapsed: 0.0002999305725097656
ell 648, elapsed: 0.00030112266540527344
ell 647, elapsed: 0.0003058910369873047
ell 646, elapsed: 0.00030493736267089844
ell 645, elapsed: 0.0003151893615722656
ell 644, elapsed: 0.00030112266540527344
ell 643, elapsed: 0.00030612945556640625
ell 642, elapsed: 0.0003039836883544922
ell 641, elapsed: 0.0003039836883544922
ell 640, elapsed: 0.00031185150146484375
ell 639, elapsed: 0.0002999305725097656
ell 638, elapsed: 0.00032401084899902344
ell 637, elapsed: 0.0002949237823486328
ell 636, elapsed: 0.0002999305725097656
ell 635, elapsed: 0.0003077983856201172
ell 634, elapsed: 0.0002980232238769531
ell 633, elapsed: 0.00030493736267089844
ell 632, elapsed: 0.0003018379211425781
ell 631, elapsed: 0.0002980232238769531
ell 630, elapsed: 0.00031113624572753906
ell 629, elapsed: 0.0002949237823486328
ell 628, elapsed: 0.0003039836883544922
ell 627, elapsed: 0.0002949237823486328
ell 626, elapsed: 0.0002949237823486328
ell 625, elapsed: 0.00030803680419921875
ell 624, elapsed: 0.0002968311309814453
ell 623, elapsed: 0.0003027915954589844
ell 622, elapsed: 0.0002951622009277344
ell 621, elapsed: 0.00029397010803222656
ell 620, elapsed: 0.0003108978271484375
ell 619, elapsed: 0.0002980232238769531
ell 618, elapsed: 0.0003039836883544922
ell 617, elapsed: 0.0002951622009277344
ell 616, elapsed: 0.0002989768981933594
ell 615, elapsed: 0.0002930164337158203
ell 614, elapsed: 0.0003190040588378906
ell 613, elapsed: 0.00035381317138671875
ell 612, elapsed: 0.0002949237823486328
ell 611, elapsed: 0.00030493736267089844
ell 610, elapsed: 0.0002918243408203125
ell 609, elapsed: 0.0002961158752441406
ell 608, elapsed: 0.00029587745666503906
ell 607, elapsed: 0.00029397010803222656
ell 606, elapsed: 0.0002999305725097656
ell 605, elapsed: 0.0002930164337158203
ell 604, elapsed: 0.00030303001403808594
ell 603, elapsed: 0.00030612945556640625
ell 602, elapsed: 0.0002980232238769531
ell 601, elapsed: 0.00034880638122558594
ell 600, elapsed: 0.00030112266540527344
ell 599, elapsed: 0.0002980232238769531
ell 598, elapsed: 0.0003039836883544922
ell 597, elapsed: 0.00029587745666503906
ell 596, elapsed: 0.0002999305725097656
ell 595, elapsed: 0.0002980232238769531
ell 594, elapsed: 0.0002949237823486328
ell 593, elapsed: 0.0003008842468261719
ell 592, elapsed: 0.0002989768981933594
ell 591, elapsed: 0.0002989768981933594
ell 590, elapsed: 0.0002930164337158203
ell 589, elapsed: 0.0002970695495605469
ell 588, elapsed: 0.0003509521484375
ell 587, elapsed: 0.0002970695495605469
ell 586, elapsed: 0.0002970695495605469
ell 585, elapsed: 0.0002951622009277344
ell 584, elapsed: 0.0003020763397216797
ell 583, elapsed: 0.0002961158752441406
ell 582, elapsed: 0.00029397010803222656
ell 581, elapsed: 0.0003018379211425781
ell 580, elapsed: 0.0002980232238769531
ell 579, elapsed: 0.0002999305725097656
ell 578, elapsed: 0.00029587745666503906
ell 577, elapsed: 0.00029587745666503906
ell 576, elapsed: 0.00032401084899902344
ell 575, elapsed: 0.0002930164337158203
ell 574, elapsed: 0.0003039836883544922
ell 573, elapsed: 0.0002980232238769531
ell 572, elapsed: 0.00029587745666503906
ell 571, elapsed: 0.00030303001403808594
ell 570, elapsed: 0.00030493736267089844
ell 569, elapsed: 0.00030303001403808594
ell 568, elapsed: 0.0002980232238769531
ell 567, elapsed: 0.0002970695495605469
ell 566, elapsed: 0.00030112266540527344
ell 565, elapsed: 0.0002968311309814453
ell 564, elapsed: 0.00030493736267089844
ell 563, elapsed: 0.00033593177795410156
ell 562, elapsed: 0.0002970695495605469
ell 561, elapsed: 0.00030612945556640625
ell 560, elapsed: 0.0002949237823486328
ell 559, elapsed: 0.0002999305725097656
ell 558, elapsed: 0.0002989768981933594
ell 557, elapsed: 0.0002980232238769531
ell 556, elapsed: 0.000308990478515625
ell 555, elapsed: 0.0002949237823486328
ell 554, elapsed: 0.0003039836883544922
ell 553, elapsed: 0.0002970695495605469
ell 552, elapsed: 0.00030994415283203125
ell 551, elapsed: 0.00036978721618652344
ell 550, elapsed: 0.00030112266540527344
ell 549, elapsed: 0.00030493736267089844
ell 548, elapsed: 0.0002999305725097656
ell 547, elapsed: 0.0003070831298828125
ell 546, elapsed: 0.0002930164337158203
ell 545, elapsed: 0.00030303001403808594
ell 544, elapsed: 0.0003230571746826172
ell 543, elapsed: 0.00030612945556640625
ell 542, elapsed: 0.0003070831298828125
ell 541, elapsed: 0.0003001689910888672
ell 540, elapsed: 0.0002980232238769531
ell 539, elapsed: 0.00030303001403808594
ell 538, elapsed: 0.00034499168395996094
ell 537, elapsed: 0.00030684471130371094
ell 536, elapsed: 0.0002968311309814453
ell 535, elapsed: 0.0002999305725097656
ell 534, elapsed: 0.00030517578125
ell 533, elapsed: 0.0003008842468261719
ell 532, elapsed: 0.0003020763397216797
ell 531, elapsed: 0.0002970695495605469
ell 530, elapsed: 0.00030303001403808594
ell 529, elapsed: 0.0003020763397216797
ell 528, elapsed: 0.0002961158752441406
ell 527, elapsed: 0.0003008842468261719
ell 526, elapsed: 0.00031185150146484375
ell 525, elapsed: 0.0003039836883544922
ell 524, elapsed: 0.00029587745666503906
ell 523, elapsed: 0.0002949237823486328
ell 522, elapsed: 0.00031185150146484375
ell 521, elapsed: 0.0002989768981933594
ell 520, elapsed: 0.0003020763397216797
ell 519, elapsed: 0.0002980232238769531
ell 518, elapsed: 0.00029397010803222656
ell 517, elapsed: 0.0003039836883544922
ell 516, elapsed: 0.0002951622009277344
ell 515, elapsed: 0.0002989768981933594
ell 514, elapsed: 0.0002970695495605469
ell 513, elapsed: 0.000308990478515625
ell 512, elapsed: 0.0003249645233154297
ell 511, elapsed: 0.0002949237823486328
ell 510, elapsed: 0.0003018379211425781
ell 509, elapsed: 0.00029397010803222656
ell 508, elapsed: 0.0002970695495605469
ell 507, elapsed: 0.00030517578125
ell 506, elapsed: 0.0002961158752441406
ell 505, elapsed: 0.0003020763397216797
ell 504, elapsed: 0.0002961158752441406
ell 503, elapsed: 0.00029397010803222656
ell 502, elapsed: 0.0003101825714111328
ell 501, elapsed: 0.00033593177795410156
ell 500, elapsed: 0.00030112266540527344
ell 499, elapsed: 0.0002989768981933594
ell 498, elapsed: 0.00030612945556640625
ell 497, elapsed: 0.0002970695495605469
ell 496, elapsed: 0.0002961158752441406
ell 495, elapsed: 0.00030112266540527344
ell 494, elapsed: 0.0002970695495605469
ell 493, elapsed: 0.0002980232238769531
ell 492, elapsed: 0.0003020763397216797
ell 491, elapsed: 0.00029397010803222656
ell 490, elapsed: 0.0003008842468261719
ell 489, elapsed: 0.0002968311309814453
ell 488, elapsed: 0.00030303001403808594
ell 487, elapsed: 0.0002949237823486328
ell 486, elapsed: 0.0002949237823486328
ell 485, elapsed: 0.0002980232238769531
ell 484, elapsed: 0.00029778480529785156
ell 483, elapsed: 0.0003120899200439453
ell 482, elapsed: 0.0002949237823486328
ell 481, elapsed: 0.0002999305725097656
ell 480, elapsed: 0.00030803680419921875
ell 479, elapsed: 0.0003001689910888672
ell 478, elapsed: 0.0003020763397216797
ell 477, elapsed: 0.0003001689910888672
ell 476, elapsed: 0.0003459453582763672
ell 475, elapsed: 0.0003161430358886719
ell 474, elapsed: 0.0003020763397216797
ell 473, elapsed: 0.0003120899200439453
ell 472, elapsed: 0.0002970695495605469
ell 471, elapsed: 0.0002961158752441406
ell 470, elapsed: 0.0003058910369873047
ell 469, elapsed: 0.0002949237823486328
ell 468, elapsed: 0.00030994415283203125
ell 467, elapsed: 0.0002961158752441406
ell 466, elapsed: 0.00030803680419921875
ell 465, elapsed: 0.00030303001403808594
ell 464, elapsed: 0.0003249645233154297
ell 463, elapsed: 0.0003170967102050781
ell 462, elapsed: 0.00029397010803222656
ell 461, elapsed: 0.0003161430358886719
ell 460, elapsed: 0.00030303001403808594
ell 459, elapsed: 0.0002961158752441406
ell 458, elapsed: 0.0003161430358886719
ell 457, elapsed: 0.0003020763397216797
ell 456, elapsed: 0.0002980232238769531
ell 455, elapsed: 0.0002961158752441406
ell 454, elapsed: 0.0002949237823486328
ell 453, elapsed: 0.00030493736267089844
ell 452, elapsed: 0.00030517578125
ell 451, elapsed: 0.00033092498779296875
ell 450, elapsed: 0.0002970695495605469
ell 449, elapsed: 0.0002961158752441406
ell 448, elapsed: 0.0003001689910888672
ell 447, elapsed: 0.00029397010803222656
ell 446, elapsed: 0.00030493736267089844
ell 445, elapsed: 0.0002918243408203125
ell 444, elapsed: 0.0002961158752441406
ell 443, elapsed: 0.00030112266540527344
ell 442, elapsed: 0.00029397010803222656
ell 441, elapsed: 0.0002989768981933594
ell 440, elapsed: 0.0003001689910888672
ell 439, elapsed: 0.00034999847412109375
ell 438, elapsed: 0.0002989768981933594
ell 437, elapsed: 0.0002989768981933594
ell 436, elapsed: 0.0002999305725097656
ell 435, elapsed: 0.00029397010803222656
ell 434, elapsed: 0.0003039836883544922
ell 433, elapsed: 0.0002949237823486328
ell 432, elapsed: 0.00029778480529785156
ell 431, elapsed: 0.00030803680419921875
ell 430, elapsed: 0.0002949237823486328
ell 429, elapsed: 0.00030422210693359375
ell 428, elapsed: 0.0002989768981933594
ell 427, elapsed: 0.00029587745666503906
ell 426, elapsed: 0.00032591819763183594
ell 425, elapsed: 0.0002930164337158203
ell 424, elapsed: 0.00030112266540527344
ell 423, elapsed: 0.00030803680419921875
ell 422, elapsed: 0.00030303001403808594
ell 421, elapsed: 0.00031113624572753906
ell 420, elapsed: 0.0002989768981933594
ell 419, elapsed: 0.00030493736267089844
ell 418, elapsed: 0.00029587745666503906
ell 417, elapsed: 0.00029587745666503906
ell 416, elapsed: 0.00030112266540527344
ell 415, elapsed: 0.0002942085266113281
ell 414, elapsed: 0.0004000663757324219
ell 413, elapsed: 0.00030493736267089844
ell 412, elapsed: 0.0002989768981933594
ell 411, elapsed: 0.000308990478515625
ell 410, elapsed: 0.00030112266540527344
ell 409, elapsed: 0.0002970695495605469
ell 408, elapsed: 0.00029397010803222656
ell 407, elapsed: 0.0003020763397216797
ell 406, elapsed: 0.0002899169921875
ell 405, elapsed: 0.00029087066650390625
ell 404, elapsed: 0.00030803680419921875
ell 403, elapsed: 0.00030803680419921875
ell 402, elapsed: 0.0003590583801269531
ell 401, elapsed: 0.0002970695495605469
ell 400, elapsed: 0.0002970695495605469
ell 399, elapsed: 0.00030493736267089844
ell 398, elapsed: 0.00029397010803222656
ell 397, elapsed: 0.00030303001403808594
ell 396, elapsed: 0.0002930164337158203
ell 395, elapsed: 0.0002949237823486328
ell 394, elapsed: 0.0003020763397216797
ell 393, elapsed: 0.0002980232238769531
ell 392, elapsed: 0.0003058910369873047
ell 391, elapsed: 0.0002961158752441406
ell 390, elapsed: 0.00029587745666503906
ell 389, elapsed: 0.0003337860107421875
ell 388, elapsed: 0.0002949237823486328
ell 387, elapsed: 0.00030803680419921875
ell 386, elapsed: 0.00029206275939941406
ell 385, elapsed: 0.0002930164337158203
ell 384, elapsed: 0.0003159046173095703
ell 383, elapsed: 0.00029587745666503906
ell 382, elapsed: 0.0002989768981933594
ell 381, elapsed: 0.00029015541076660156
ell 380, elapsed: 0.0002999305725097656
ell 379, elapsed: 0.0003039836883544922
ell 378, elapsed: 0.0002951622009277344
ell 377, elapsed: 0.0003509521484375
ell 376, elapsed: 0.0002980232238769531
ell 375, elapsed: 0.0003039836883544922
ell 374, elapsed: 0.0002970695495605469
ell 373, elapsed: 0.0002980232238769531
ell 372, elapsed: 0.00030803680419921875
ell 371, elapsed: 0.0003039836883544922
ell 370, elapsed: 0.0003039836883544922
ell 369, elapsed: 0.0002968311309814453
ell 368, elapsed: 0.0002989768981933594
ell 367, elapsed: 0.0003058910369873047
ell 366, elapsed: 0.0002949237823486328
ell 365, elapsed: 0.0003008842468261719
ell 364, elapsed: 0.0003020763397216797
ell 363, elapsed: 0.0002970695495605469
ell 362, elapsed: 0.0003020763397216797
ell 361, elapsed: 0.00030303001403808594
ell 360, elapsed: 0.00030303001403808594
ell 359, elapsed: 0.0003001689910888672
ell 358, elapsed: 0.0002970695495605469
ell 357, elapsed: 0.0002989768981933594
ell 356, elapsed: 0.003922939300537109
ell 355, elapsed: 0.00030684471130371094
ell 354, elapsed: 0.0002980232238769531
ell 353, elapsed: 0.0002930164337158203
ell 352, elapsed: 0.0002951622009277344
ell 351, elapsed: 0.0003609657287597656
ell 350, elapsed: 0.00030112266540527344
ell 349, elapsed: 0.0002980232238769531
ell 348, elapsed: 0.0074920654296875
ell 347, elapsed: 0.00032591819763183594
ell 346, elapsed: 0.0002779960632324219
ell 345, elapsed: 0.00028896331787109375
ell 344, elapsed: 0.00028204917907714844
ell 343, elapsed: 0.0002949237823486328
ell 342, elapsed: 0.0002810955047607422
ell 341, elapsed: 0.00028395652770996094
ell 340, elapsed: 0.0003039836883544922
ell 339, elapsed: 0.00028395652770996094
ell 338, elapsed: 0.0002949237823486328
ell 337, elapsed: 0.000286102294921875
ell 336, elapsed: 0.006691932678222656
ell 335, elapsed: 0.00031304359436035156
ell 334, elapsed: 0.0002818107604980469
ell 333, elapsed: 0.0002968311309814453
ell 332, elapsed: 0.0002830028533935547
ell 331, elapsed: 0.0019450187683105469
ell 330, elapsed: 0.00028395652770996094
ell 329, elapsed: 0.00026488304138183594
ell 328, elapsed: 0.0002739429473876953
ell 327, elapsed: 0.00026917457580566406
ell 326, elapsed: 0.00026106834411621094
ell 325, elapsed: 0.00027179718017578125
ell 324, elapsed: 0.0010099411010742188
ell 323, elapsed: 0.0002770423889160156
ell 322, elapsed: 0.00023818016052246094
ell 321, elapsed: 0.0008778572082519531
ell 320, elapsed: 0.0002720355987548828
ell 319, elapsed: 0.0008509159088134766
ell 318, elapsed: 0.0002689361572265625
ell 317, elapsed: 0.0007572174072265625
ell 316, elapsed: 0.0003020763397216797
ell 315, elapsed: 0.0002999305725097656
ell 314, elapsed: 0.0003077983856201172
ell 313, elapsed: 0.0002961158752441406
ell 312, elapsed: 0.00028395652770996094
ell 311, elapsed: 0.00029587745666503906
ell 310, elapsed: 0.0019068717956542969
ell 309, elapsed: 0.00033783912658691406
ell 308, elapsed: 0.0008630752563476562
ell 307, elapsed: 0.00028896331787109375
ell 306, elapsed: 0.0002980232238769531
ell 305, elapsed: 0.0002899169921875
ell 304, elapsed: 0.00030112266540527344
ell 303, elapsed: 0.0002880096435546875
ell 302, elapsed: 0.00028586387634277344
ell 301, elapsed: 0.0002961158752441406
ell 300, elapsed: 0.0002930164337158203
ell 299, elapsed: 0.0002930164337158203
ell 298, elapsed: 0.00039386749267578125
ell 297, elapsed: 0.0002951622009277344
ell 296, elapsed: 0.0002880096435546875
ell 295, elapsed: 0.0002830028533935547
ell 294, elapsed: 0.00028896331787109375
ell 293, elapsed: 0.0002880096435546875
ell 292, elapsed: 0.0002841949462890625
ell 291, elapsed: 0.0002779960632324219
ell 290, elapsed: 0.0002779960632324219
ell 289, elapsed: 0.0002930164337158203
ell 288, elapsed: 0.0002789497375488281
ell 287, elapsed: 0.0002918243408203125
ell 286, elapsed: 0.0002789497375488281
ell 285, elapsed: 0.00028204917907714844
ell 284, elapsed: 0.000286102294921875
ell 283, elapsed: 0.0002779960632324219
ell 282, elapsed: 0.0002849102020263672
ell 281, elapsed: 0.0002770423889160156
ell 280, elapsed: 0.0002751350402832031
ell 279, elapsed: 0.00029087066650390625
ell 278, elapsed: 0.0002779960632324219
ell 277, elapsed: 0.00028896331787109375
ell 276, elapsed: 0.00028395652770996094
ell 275, elapsed: 0.0002779960632324219
ell 274, elapsed: 0.00028204917907714844
ell 273, elapsed: 0.0002868175506591797
ell 272, elapsed: 0.00030803680419921875
ell 271, elapsed: 0.0002810955047607422
ell 270, elapsed: 0.0002770423889160156
ell 269, elapsed: 0.00028705596923828125
ell 268, elapsed: 0.0002880096435546875
ell 267, elapsed: 0.0002949237823486328
ell 266, elapsed: 0.0002751350402832031
ell 265, elapsed: 0.00028705596923828125
ell 264, elapsed: 0.00028014183044433594
ell 263, elapsed: 0.0002799034118652344
ell 262, elapsed: 0.00028705596923828125
ell 261, elapsed: 0.0002789497375488281
ell 260, elapsed: 0.0002841949462890625
ell 259, elapsed: 0.00031185150146484375
ell 258, elapsed: 0.0002760887145996094
ell 257, elapsed: 0.00029397010803222656
ell 256, elapsed: 0.0002779960632324219
ell 255, elapsed: 0.00028586387634277344
ell 254, elapsed: 0.0002810955047607422
ell 253, elapsed: 0.00027680397033691406
ell 252, elapsed: 0.0002930164337158203
ell 251, elapsed: 0.0002770423889160156
ell 250, elapsed: 0.0002880096435546875
ell 249, elapsed: 0.0002770423889160156
ell 248, elapsed: 0.0002789497375488281
ell 247, elapsed: 0.00029087066650390625
ell 246, elapsed: 0.0002999305725097656
ell 245, elapsed: 0.000286102294921875
ell 244, elapsed: 0.0002770423889160156
ell 243, elapsed: 0.00027108192443847656
ell 242, elapsed: 0.0002770423889160156
ell 241, elapsed: 0.00027298927307128906
ell 240, elapsed: 0.00027298927307128906
ell 239, elapsed: 0.0002739429473876953
ell 238, elapsed: 0.00027298927307128906
ell 237, elapsed: 0.0002760887145996094
ell 236, elapsed: 0.0002720355987548828
ell 235, elapsed: 0.0002751350402832031
ell 234, elapsed: 0.0002751350402832031
ell 233, elapsed: 0.0002739429473876953
ell 232, elapsed: 0.00035309791564941406
ell 231, elapsed: 0.00026988983154296875
ell 230, elapsed: 0.0002741813659667969
ell 229, elapsed: 0.0002701282501220703
ell 228, elapsed: 0.0002770423889160156
ell 227, elapsed: 0.00028014183044433594
ell 226, elapsed: 0.00027108192443847656
ell 225, elapsed: 0.0002789497375488281
ell 224, elapsed: 0.0002739429473876953
ell 223, elapsed: 0.0002779960632324219
ell 222, elapsed: 0.0002689361572265625
ell 221, elapsed: 0.00028896331787109375
ell 220, elapsed: 0.0002741813659667969
ell 219, elapsed: 0.0002849102020263672
ell 218, elapsed: 0.0002720355987548828
ell 217, elapsed: 0.0002770423889160156
ell 216, elapsed: 0.00026917457580566406
ell 215, elapsed: 0.0002739429473876953
ell 214, elapsed: 0.00026988983154296875
ell 213, elapsed: 0.0002779960632324219
ell 212, elapsed: 0.00026488304138183594
ell 211, elapsed: 0.0002741813659667969
ell 210, elapsed: 0.0002682209014892578
ell 209, elapsed: 0.00027108192443847656
ell 208, elapsed: 0.0002751350402832031
ell 207, elapsed: 0.00027298927307128906
ell 206, elapsed: 0.0002760887145996094
ell 205, elapsed: 0.00029087066650390625
ell 204, elapsed: 0.0002689361572265625
ell 203, elapsed: 0.0002741813659667969
ell 202, elapsed: 0.00026702880859375
ell 201, elapsed: 0.0002760887145996094
ell 200, elapsed: 0.0002689361572265625
ell 199, elapsed: 0.0002720355987548828
ell 198, elapsed: 0.0002751350402832031
ell 197, elapsed: 0.0002689361572265625
ell 196, elapsed: 0.00027108192443847656
ell 195, elapsed: 0.0002570152282714844
ell 194, elapsed: 0.0002570152282714844
ell 193, elapsed: 0.00027298927307128906
ell 192, elapsed: 0.00026607513427734375
ell 191, elapsed: 0.0003139972686767578
ell 190, elapsed: 0.00027108192443847656
ell 189, elapsed: 0.00026917457580566406
ell 188, elapsed: 0.00027680397033691406
ell 187, elapsed: 0.00026798248291015625
ell 186, elapsed: 0.00027108192443847656
ell 185, elapsed: 0.0002830028533935547
ell 184, elapsed: 0.00027298927307128906
ell 183, elapsed: 0.0002770423889160156
ell 182, elapsed: 0.000270843505859375
ell 181, elapsed: 0.0002732276916503906
ell 180, elapsed: 0.0002751350402832031
ell 179, elapsed: 0.0002789497375488281
ell 178, elapsed: 0.0002951622009277344
ell 177, elapsed: 0.0002720355987548828
ell 176, elapsed: 0.0002799034118652344
ell 175, elapsed: 0.0002701282501220703
ell 174, elapsed: 0.000270843505859375
ell 173, elapsed: 0.00026798248291015625
ell 172, elapsed: 0.0002689361572265625
ell 171, elapsed: 0.0002739429473876953
ell 170, elapsed: 0.00027489662170410156
ell 169, elapsed: 0.0002779960632324219
ell 168, elapsed: 0.00027298927307128906
ell 167, elapsed: 0.0002720355987548828
ell 166, elapsed: 0.00027680397033691406
ell 165, elapsed: 0.0002841949462890625
ell 164, elapsed: 0.0002999305725097656
ell 163, elapsed: 0.0002570152282714844
ell 162, elapsed: 0.0002551078796386719
ell 161, elapsed: 0.00026702880859375
ell 160, elapsed: 0.0002548694610595703
ell 159, elapsed: 0.0002620220184326172
ell 158, elapsed: 0.0002639293670654297
ell 157, elapsed: 0.0002601146697998047
ell 156, elapsed: 0.000263214111328125
ell 155, elapsed: 0.0002620220184326172
ell 154, elapsed: 0.00027108192443847656
ell 153, elapsed: 0.0002892017364501953
ell 152, elapsed: 0.0002789497375488281
ell 151, elapsed: 0.00028705596923828125
ell 150, elapsed: 0.00032711029052734375
ell 149, elapsed: 0.0002918243408203125
ell 148, elapsed: 0.00024390220642089844
ell 147, elapsed: 0.00023984909057617188
ell 146, elapsed: 0.00023508071899414062
ell 145, elapsed: 0.00023698806762695312
ell 144, elapsed: 0.0002391338348388672
ell 143, elapsed: 0.0002498626708984375
ell 142, elapsed: 0.00024008750915527344
ell 141, elapsed: 0.0002770423889160156
ell 140, elapsed: 0.00026988983154296875
ell 139, elapsed: 0.00028204917907714844
ell 138, elapsed: 0.00026702880859375
ell 137, elapsed: 0.00027298927307128906
ell 136, elapsed: 0.00028896331787109375
ell 135, elapsed: 0.0002899169921875
ell 134, elapsed: 0.0002989768981933594
ell 133, elapsed: 0.0016138553619384766
ell 132, elapsed: 0.00028705596923828125
ell 131, elapsed: 0.0003170967102050781
ell 130, elapsed: 0.00031185150146484375
ell 129, elapsed: 0.0002880096435546875
ell 128, elapsed: 0.00031113624572753906
ell 127, elapsed: 0.0003418922424316406
ell 126, elapsed: 0.0002899169921875
ell 125, elapsed: 0.0002808570861816406
ell 124, elapsed: 0.00029087066650390625
ell 123, elapsed: 0.0002779960632324219
ell 122, elapsed: 0.0002789497375488281
ell 121, elapsed: 0.0002760887145996094
ell 120, elapsed: 0.0002658367156982422
ell 119, elapsed: 0.0002789497375488281
ell 118, elapsed: 0.0002849102020263672
ell 117, elapsed: 0.00028014183044433594
ell 116, elapsed: 0.00027489662170410156
ell 115, elapsed: 0.0002980232238769531
ell 114, elapsed: 0.0003528594970703125
ell 113, elapsed: 0.0002799034118652344
ell 112, elapsed: 0.0002849102020263672
ell 111, elapsed: 0.00029206275939941406
ell 110, elapsed: 0.0002799034118652344
ell 109, elapsed: 0.00028896331787109375
ell 108, elapsed: 0.000286102294921875
ell 107, elapsed: 0.00028204917907714844
ell 106, elapsed: 0.0002799034118652344
ell 105, elapsed: 0.00028014183044433594
ell 104, elapsed: 0.00030303001403808594
ell 103, elapsed: 0.0002970695495605469
ell 102, elapsed: 0.00029397010803222656
ell 101, elapsed: 0.0002989768981933594
ell 100, elapsed: 0.0002830028533935547
ell 99, elapsed: 0.00030684471130371094
ell 98, elapsed: 0.0002841949462890625
ell 97, elapsed: 0.00028395652770996094
ell 96, elapsed: 0.00029206275939941406
ell 95, elapsed: 0.0002949237823486328
ell 94, elapsed: 0.000286102294921875
ell 93, elapsed: 0.0002970695495605469
ell 92, elapsed: 0.0002970695495605469
ell 91, elapsed: 0.0002760887145996094
ell 90, elapsed: 0.0002830028533935547
ell 89, elapsed: 0.00030803680419921875
ell 88, elapsed: 0.00032401084899902344
ell 87, elapsed: 0.0002880096435546875
ell 86, elapsed: 0.0002849102020263672
ell 85, elapsed: 0.0002720355987548828
ell 84, elapsed: 0.00027489662170410156
ell 83, elapsed: 0.00028395652770996094
ell 82, elapsed: 0.00028395652770996094
ell 81, elapsed: 0.00026607513427734375
ell 80, elapsed: 0.0002880096435546875
ell 79, elapsed: 0.00028204917907714844
ell 78, elapsed: 0.00027298927307128906
ell 77, elapsed: 0.00028395652770996094
ell 76, elapsed: 0.0002410411834716797
ell 75, elapsed: 0.00025391578674316406
ell 74, elapsed: 0.00024509429931640625
ell 73, elapsed: 0.00024199485778808594
ell 72, elapsed: 0.00024509429931640625
ell 71, elapsed: 0.00026988983154296875
ell 70, elapsed: 0.00027108192443847656
ell 69, elapsed: 0.0002810955047607422
ell 68, elapsed: 0.000270843505859375
ell 67, elapsed: 0.000247955322265625
ell 66, elapsed: 0.0002338886260986328
ell 65, elapsed: 0.00023698806762695312
ell 64, elapsed: 0.0002410411834716797
ell 63, elapsed: 0.0002491474151611328
ell 62, elapsed: 0.00027179718017578125
ell 61, elapsed: 0.0002741813659667969
ell 60, elapsed: 0.0003027915954589844
ell 59, elapsed: 0.0002651214599609375
ell 58, elapsed: 0.0002639293670654297
ell 57, elapsed: 0.0002760887145996094
ell 56, elapsed: 0.0002639293670654297
ell 55, elapsed: 0.0002639293670654297
ell 54, elapsed: 0.0002620220184326172
ell 53, elapsed: 0.0002601146697998047
ell 52, elapsed: 0.00026702880859375
ell 51, elapsed: 0.00026416778564453125
ell 50, elapsed: 0.00026702880859375
ell 49, elapsed: 0.00026106834411621094
ell 48, elapsed: 0.0002658367156982422
ell 47, elapsed: 0.00028204917907714844
ell 46, elapsed: 0.00030612945556640625
ell 45, elapsed: 0.00026988983154296875
ell 44, elapsed: 0.0002689361572265625
ell 43, elapsed: 0.0002651214599609375
ell 42, elapsed: 0.0002739429473876953
ell 41, elapsed: 0.0002720355987548828
ell 40, elapsed: 0.0002810955047607422
ell 39, elapsed: 0.00028395652770996094
ell 38, elapsed: 0.00028014183044433594
ell 37, elapsed: 0.00028896331787109375
ell 36, elapsed: 0.0002791881561279297
ell 35, elapsed: 0.0003101825714111328
ell 34, elapsed: 0.0002810955047607422
ell 33, elapsed: 0.0002930164337158203
ell 32, elapsed: 0.0003311634063720703
ell 31, elapsed: 0.0002799034118652344
ell 30, elapsed: 0.00028705596923828125
ell 29, elapsed: 0.0002799034118652344
ell 28, elapsed: 0.00028395652770996094
ell 27, elapsed: 0.00028014183044433594
ell 26, elapsed: 0.0002319812774658203
ell 25, elapsed: 0.00023889541625976562
ell 24, elapsed: 0.00022983551025390625
ell 23, elapsed: 0.000247955322265625
ell 22, elapsed: 0.00023698806762695312
ell 21, elapsed: 0.00023102760314941406
ell 20, elapsed: 0.00023508071899414062
ell 19, elapsed: 0.0002701282501220703
ell 18, elapsed: 0.00032401084899902344
ell 17, elapsed: 0.00028204917907714844
ell 16, elapsed: 0.00028395652770996094
ell 15, elapsed: 0.00026607513427734375
ell 14, elapsed: 0.0002269744873046875
ell 13, elapsed: 0.00024700164794921875
ell 12, elapsed: 0.0002841949462890625
ell 11, elapsed: 0.00028014183044433594
ell 10, elapsed: 0.00028896331787109375
ell 9, elapsed: 0.00028705596923828125
ell 8, elapsed: 0.0002880096435546875
ell 7, elapsed: 0.00029397010803222656
ell 6, elapsed: 0.0002548694610595703
ell 5, elapsed: 0.0002779960632324219
ell 4, elapsed: 0.0003230571746826172
ell 3, elapsed: 0.00025391578674316406
ell 2, elapsed: 0.0002739429473876953
ell 1, elapsed: 0.0002951622009277344
ell 0, elapsed: 0.00028395652770996094
  0.425916 seconds (46.03 k allocations: 3.091 MiB, 6.17% compilation time)
elapsed: 0.00032401084899902344
step:          0.046182 sec (0 allocations: 0 byte, 0.0% gc time)
swapping:      0.000393 sec (0 allocations: 0 byte, 0.0% gc time)
calc_Mellell!: 0.005759 sec (0 allocations: 0 byte, 0.0% gc time)
  t0 :  0.00123 sec (0 allocations: 0 byte, 0.0% gc time)
  tm2 : 0.068168 sec (0 allocations: 0 byte, 0.0% gc time)
  tm2s: 0.000885 sec (0 allocations: 0 byte, 0.0% gc time)
  tm4 : 0.163229 sec (0 allocations: 0 byte, 0.0% gc time)
  tp2 : 0.0 sec (0 allocations: 0 byte, 0.0% gc time)
  tp2s: 0.0 sec (0 allocations: 0 byte, 0.0% gc time)
  tp4 : 0.0 sec (0 allocations: 0 byte, 0.0% gc time)
calc_wtdll!:   0.261921 sec (9.9 k allocations: 1.047 MB, 0.0% gc time)
calc_wljj!:    0.01985 sec (689 allocations: 10.766 KB, 0.0% gc time)
mult_prefac!:  0.0 sec (0 allocations: 0 byte, 0.0% gc time)
convert:       0.0 sec (0 allocations: 0 byte, 0.0% gc time)
write:         0.028022 sec (0 allocations: 0 byte, 0.0% gc time)
test_rand_2f1: 0.0 sec (0 allocations: 0 byte, 0.0% gc time)
Closing outfile out/Ml21-cache.bin...   0.000006 seconds
  0.000337 seconds (36 allocations: 27.953 KiB)
make_phi():   0.001231 seconds (8.18 k allocations: 237.844 KiB)
  0.127101 seconds (141.90 k allocations: 3.483 MiB)
tskip:       0.00101 sec (0 allocations: 0 byte, 0.0% gc time)
tread:       0.020856 sec (17 allocations: 10.641 KB, 0.0% gc time)
tmultphi:    0.008662 sec (0 allocations: 0 byte, 0.0% gc time)
tbrfft:      0.040365 sec (0 allocations: 0 byte, 0.0% gc time)
tmultprefac: 0.020533 sec (0 allocations: 0 byte, 0.0% gc time)
toutfunc:    0.032341 sec (127.507 k allocations: 2.312 MB, 0.0% gc time)
Testing R=1.0 ... passed
Calculating fmax: 
  dlrec    = 4
  dlrecRg1 = -4
  q=1.1, R=0.9:	  0.252821 seconds (105.72 k allocations: 15.273 MiB, 7.81% gc time)

  0.252972 seconds (105.78 k allocations: 15.307 MiB, 7.81% gc time)
ℓ = 1202
Δℓ = 4
ΔℓRg1 = -4
N = 1600
q = 1.1
kmin = 1.0e-5
kmax = 100000.00000000004
χ0 = 0.023029999999999995
RR = RR.tsv
ℓmax = ℓmax.bin
f21 = f21.bin
kmin = 1.0e-5
kmax = 100000.0
dlrec    = 4
dlrecRg1 = -4
Output size: 5741568 bytes = 0.005347251892089844 GiB
Output size: 51264 bytes = 4.774332046508789e-5 GiB
Reading 'out/F21EllCache'...   0.001259 seconds (197 allocations: 84.203 KiB)
ellmax: 1202
lmaxcache: 1202
fell[:,1,1] = ComplexF64[1.3482014726274674e-57 - 3.302141236118086e-73im, 1.357860004724329e-57 - 3.3257978169518355e-73im]
ell 1202, elapsed: 1.5974044799804688e-5
ell 1201, elapsed: 0.0002791881561279297
ell 1200, elapsed: 0.0002570152282714844
ell 1199, elapsed: 0.00025391578674316406
ell 1198, elapsed: 0.0002551078796386719
ell 1002, elapsed: 0.008337020874023438
ell 1001, elapsed: 0.00026607513427734375
ell 1000, elapsed: 0.0002601146697998047
ell 999, elapsed: 0.0002830028533935547
ell 998, elapsed: 0.0002598762512207031
ell 902, elapsed: 0.004299163818359375
ell 901, elapsed: 0.0002589225769042969
ell 900, elapsed: 0.00025391578674316406
ell 899, elapsed: 0.0002541542053222656
ell 898, elapsed: 0.0002548694610595703
ell 802, elapsed: 0.004216909408569336
ell 801, elapsed: 0.0002541542053222656
ell 800, elapsed: 0.0002200603485107422
ell 799, elapsed: 0.00021886825561523438
ell 798, elapsed: 0.0002319812774658203
ell 702, elapsed: 0.004018068313598633
ell 701, elapsed: 0.0002620220184326172
ell 700, elapsed: 0.0002608299255371094
ell 699, elapsed: 0.00026702880859375
ell 698, elapsed: 0.00030493736267089844
ell 602, elapsed: 0.004086971282958984
ell 601, elapsed: 0.0002589225769042969
ell 600, elapsed: 0.0002460479736328125
ell 599, elapsed: 0.00024700164794921875
ell 598, elapsed: 0.0002548694610595703
ell 502, elapsed: 0.004042863845825195
ell 501, elapsed: 0.0002589225769042969
ell 500, elapsed: 0.0002570152282714844
ell 499, elapsed: 0.0002541542053222656
ell 498, elapsed: 0.0002579689025878906
ell 402, elapsed: 0.004137992858886719
ell 401, elapsed: 0.00026416778564453125
ell 400, elapsed: 0.0002570152282714844
ell 399, elapsed: 0.0002601146697998047
ell 398, elapsed: 0.00024700164794921875
ell 302, elapsed: 0.004050016403198242
ell 301, elapsed: 0.00030493736267089844
ell 300, elapsed: 0.00025916099548339844
ell 299, elapsed: 0.0002570152282714844
ell 298, elapsed: 0.0002579689025878906
ell 202, elapsed: 0.00403285026550293
ell 201, elapsed: 0.0002548694610595703
ell 200, elapsed: 0.00024890899658203125
ell 199, elapsed: 0.000247955322265625
ell 198, elapsed: 0.0002551078796386719
ell 152, elapsed: 0.0020639896392822266
ell 151, elapsed: 0.00024700164794921875
ell 150, elapsed: 0.00024580955505371094
ell 149, elapsed: 0.00024390220642089844
ell 148, elapsed: 0.0002460479736328125
ell 127, elapsed: 0.0010089874267578125
ell 126, elapsed: 0.0002448558807373047
ell 125, elapsed: 0.00025582313537597656
ell 124, elapsed: 0.0002300739288330078
ell 123, elapsed: 0.00023293495178222656
ell 114, elapsed: 0.0006098747253417969
ell 113, elapsed: 0.00022101402282714844
ell 112, elapsed: 0.00021195411682128906
ell 111, elapsed: 0.0002110004425048828
ell 110, elapsed: 0.0002110004425048828
ell 102, elapsed: 0.0005609989166259766
ell 101, elapsed: 0.0002460479736328125
ell 100, elapsed: 0.0002429485321044922
ell 99, elapsed: 0.00024700164794921875
ell 98, elapsed: 0.00024509429931640625
ell 97, elapsed: 0.0002868175506591797
ell 96, elapsed: 0.00029397010803222656
ell 95, elapsed: 0.0002830028533935547
ell 94, elapsed: 0.0002849102020263672
ell 93, elapsed: 0.0003199577331542969
ell 92, elapsed: 0.0002830028533935547
ell 91, elapsed: 0.0002968311309814453
ell 90, elapsed: 0.0002911090850830078
ell 89, elapsed: 0.000286102294921875
ell 88, elapsed: 0.00029397010803222656
ell 87, elapsed: 0.00028204917907714844
ell 86, elapsed: 0.00028514862060546875
ell 85, elapsed: 0.0002830028533935547
ell 84, elapsed: 0.00024509429931640625
ell 83, elapsed: 0.00024700164794921875
ell 82, elapsed: 0.00023603439331054688
ell 81, elapsed: 0.00023698806762695312
ell 80, elapsed: 0.00023293495178222656
ell 79, elapsed: 0.0002570152282714844
ell 78, elapsed: 0.0002529621124267578
ell 77, elapsed: 0.00029015541076660156
ell 76, elapsed: 0.0002951622009277344
ell 75, elapsed: 0.00028705596923828125
ell 74, elapsed: 0.00029778480529785156
ell 73, elapsed: 0.0002760887145996094
ell 72, elapsed: 0.0002460479736328125
ell 71, elapsed: 0.00024580955505371094
ell 70, elapsed: 0.00023794174194335938
ell 69, elapsed: 0.0002579689025878906
ell 68, elapsed: 0.00028586387634277344
ell 67, elapsed: 0.00028204917907714844
ell 66, elapsed: 0.0002791881561279297
ell 65, elapsed: 0.00034689903259277344
ell 64, elapsed: 0.00028896331787109375
ell 63, elapsed: 0.0002448558807373047
ell 62, elapsed: 0.0002410411834716797
ell 61, elapsed: 0.00024390220642089844
ell 60, elapsed: 0.0002601146697998047
ell 59, elapsed: 0.0002999305725097656
ell 58, elapsed: 0.0002961158752441406
ell 57, elapsed: 0.0002841949462890625
ell 56, elapsed: 0.000286102294921875
ell 55, elapsed: 0.0002429485321044922
ell 54, elapsed: 0.0002529621124267578
ell 53, elapsed: 0.00029206275939941406
ell 52, elapsed: 0.00025200843811035156
ell 51, elapsed: 0.0002682209014892578
ell 50, elapsed: 0.00028896331787109375
ell 49, elapsed: 0.00031280517578125
ell 48, elapsed: 0.0002830028533935547
ell 47, elapsed: 0.0002892017364501953
ell 46, elapsed: 0.00029587745666503906
ell 45, elapsed: 0.00028514862060546875
ell 44, elapsed: 0.00029206275939941406
ell 43, elapsed: 0.00028395652770996094
ell 42, elapsed: 0.00028514862060546875
ell 41, elapsed: 0.0002970695495605469
ell 40, elapsed: 0.0002849102020263672
ell 39, elapsed: 0.00030112266540527344
ell 38, elapsed: 0.0003101825714111328
ell 37, elapsed: 0.00028896331787109375
ell 36, elapsed: 0.0003008842468261719
ell 35, elapsed: 0.0002880096435546875
ell 34, elapsed: 0.0002961158752441406
ell 33, elapsed: 0.0002911090850830078
ell 32, elapsed: 0.00029206275939941406
ell 31, elapsed: 0.0002930164337158203
ell 30, elapsed: 0.0002911090850830078
ell 29, elapsed: 0.00029397010803222656
ell 28, elapsed: 0.0002899169921875
ell 27, elapsed: 0.0002868175506591797
ell 26, elapsed: 0.00029587745666503906
ell 25, elapsed: 0.0003559589385986328
ell 24, elapsed: 0.0002989768981933594
ell 23, elapsed: 0.00029397010803222656
ell 22, elapsed: 0.0002949237823486328
ell 21, elapsed: 0.00029087066650390625
ell 20, elapsed: 0.0002942085266113281
ell 19, elapsed: 0.0002949237823486328
ell 18, elapsed: 0.00029397010803222656
ell 17, elapsed: 0.0002999305725097656
ell 16, elapsed: 0.0002918243408203125
ell 15, elapsed: 0.0002892017364501953
ell 14, elapsed: 0.0002999305725097656
ell 13, elapsed: 0.0003108978271484375
ell 12, elapsed: 0.0002970695495605469
ell 11, elapsed: 0.0002911090850830078
ell 10, elapsed: 0.00028896331787109375
ell 9, elapsed: 0.0002961158752441406
ell 8, elapsed: 0.0002899169921875
ell 7, elapsed: 0.0002999305725097656
ell 6, elapsed: 0.0002880096435546875
ell 5, elapsed: 0.0002880096435546875
ell 4, elapsed: 0.0003001689910888672
ell 3, elapsed: 0.0002930164337158203
ell 2, elapsed: 0.0002970695495605469
ell 1, elapsed: 0.00029397010803222656
ell 0, elapsed: 0.0003218650817871094
  0.090751 seconds (11.51 k allocations: 719.594 KiB)
elapsed: 0.0003581047058105469
step:          0.046745 sec (0 allocations: 0 byte, 0.0% gc time)
swapping:      0.000295 sec (0 allocations: 0 byte, 0.0% gc time)
calc_Mellell!: 0.000757 sec (0 allocations: 0 byte, 0.0% gc time)
  t0 :  0.000178 sec (0 allocations: 0 byte, 0.0% gc time)
  tm2 : 0.009513 sec (0 allocations: 0 byte, 0.0% gc time)
  tm2s: 0.000141 sec (0 allocations: 0 byte, 0.0% gc time)
  tm4 : 0.0223 sec (0 allocations: 0 byte, 0.0% gc time)
  tp2 : 0.0 sec (0 allocations: 0 byte, 0.0% gc time)
  tp2s: 0.0 sec (0 allocations: 0 byte, 0.0% gc time)
  tp4 : 0.0 sec (0 allocations: 0 byte, 0.0% gc time)
calc_wtdll!:   0.032432 sec (1.344 k allocations: 147.0 KB, 0.0% gc time)
calc_wljj!:    0.001806 sec (6 allocations: 96 byte, 0.0% gc time)
mult_prefac!:  0.0 sec (0 allocations: 0 byte, 0.0% gc time)
convert:       0.0 sec (0 allocations: 0 byte, 0.0% gc time)
write:         0.002628 sec (0 allocations: 0 byte, 0.0% gc time)
test_rand_2f1: 0.0 sec (0 allocations: 0 byte, 0.0% gc time)
Closing outfile out/Ml21-cache.bin...   0.000006 seconds
  0.000328 seconds (36 allocations: 27.953 KiB)
make_phi():   0.001464 seconds (8.18 k allocations: 237.844 KiB)
  0.011598 seconds (11.65 k allocations: 308.688 KiB)
tskip:       1.7e-5 sec (0 allocations: 0 byte, 0.0% gc time)
tread:       0.001976 sec (17 allocations: 2.125 KB, 0.0% gc time)
tmultphi:    0.000813 sec (0 allocations: 0 byte, 0.0% gc time)
tbrfft:      0.00388 sec (0 allocations: 0 byte, 0.0% gc time)
tmultprefac: 0.001595 sec (0 allocations: 0 byte, 0.0% gc time)
toutfunc:    0.003078 sec (10.304 k allocations: 196.0 KB, 0.0% gc time)
Testing R=0.9 ... passed
Calculating fmax: 
  dlrec    = 4
  dlrecRg1 = -4
  q=1.1, R=0.8:	  0.222919 seconds (103.21 k allocations: 14.840 MiB)

  0.223093 seconds (103.26 k allocations: 14.874 MiB)
ℓ = 1202
Δℓ = 4
ΔℓRg1 = -4
N = 1600
q = 1.1
kmin = 1.0e-5
kmax = 100000.00000000004
χ0 = 0.023029999999999995
RR = RR.tsv
ℓmax = ℓmax.bin
f21 = f21.bin
kmin = 1.0e-5
kmax = 100000.0
dlrec    = 4
dlrecRg1 = -4
Output size: 5741568 bytes = 0.005347251892089844 GiB
Output size: 51264 bytes = 4.774332046508789e-5 GiB
Reading 'out/F21EllCache'...   0.001363 seconds (197 allocations: 84.203 KiB)
ellmax: 1202
lmaxcache: 1202
fell[:,1,1] = ComplexF64[7.519068145690986e-120 - 1.8416405474382574e-135im, 7.541664537386155e-120 - 1.847175067190611e-135im]
ell 1202, elapsed: 1.6927719116210938e-5
ell 1201, elapsed: 0.00033402442932128906
ell 1200, elapsed: 0.00029206275939941406
ell 1199, elapsed: 0.0002760887145996094
ell 1198, elapsed: 0.00028896331787109375
ell 1002, elapsed: 0.007918119430541992
ell 1001, elapsed: 0.00026416778564453125
ell 1000, elapsed: 0.00026297569274902344
ell 999, elapsed: 0.0002589225769042969
ell 998, elapsed: 0.0002770423889160156
ell 902, elapsed: 0.004108905792236328
ell 901, elapsed: 0.0002601146697998047
ell 900, elapsed: 0.0002579689025878906
ell 899, elapsed: 0.0002551078796386719
ell 898, elapsed: 0.0002548694610595703
ell 802, elapsed: 0.008905887603759766
ell 801, elapsed: 0.00025916099548339844
ell 800, elapsed: 0.0002551078796386719
ell 799, elapsed: 0.0002429485321044922
ell 798, elapsed: 0.000247955322265625
ell 702, elapsed: 0.00706791877746582
ell 701, elapsed: 0.00026988983154296875
ell 700, elapsed: 0.0002570152282714844
ell 699, elapsed: 0.0002551078796386719
ell 698, elapsed: 0.0002570152282714844
ell 602, elapsed: 0.005204916000366211
ell 601, elapsed: 0.0003879070281982422
ell 600, elapsed: 0.00037217140197753906
ell 599, elapsed: 0.0003840923309326172
ell 598, elapsed: 0.0003848075866699219
ell 502, elapsed: 0.004741191864013672
ell 501, elapsed: 0.0002620220184326172
ell 500, elapsed: 0.0002570152282714844
ell 499, elapsed: 0.0002818107604980469
ell 498, elapsed: 0.00025391578674316406
ell 402, elapsed: 0.004168987274169922
ell 401, elapsed: 0.00026798248291015625
ell 400, elapsed: 0.0002739429473876953
ell 399, elapsed: 0.00026297569274902344
ell 398, elapsed: 0.0002620220184326172
ell 302, elapsed: 0.004240989685058594
ell 301, elapsed: 0.00026607513427734375
ell 300, elapsed: 0.0002541542053222656
ell 299, elapsed: 0.0002570152282714844
ell 298, elapsed: 0.00026702880859375
ell 202, elapsed: 0.004185914993286133
ell 201, elapsed: 0.00027298927307128906
ell 200, elapsed: 0.00030684471130371094
ell 199, elapsed: 0.00026297569274902344
ell 198, elapsed: 0.00026106834411621094
ell 152, elapsed: 0.003854990005493164
ell 151, elapsed: 0.0009520053863525391
ell 150, elapsed: 0.0002620220184326172
ell 149, elapsed: 0.0008568763732910156
ell 148, elapsed: 0.0002589225769042969
ell 127, elapsed: 0.0034749507904052734
ell 126, elapsed: 0.0002570152282714844
ell 125, elapsed: 0.0002532005310058594
ell 124, elapsed: 0.001171112060546875
ell 123, elapsed: 0.00026702880859375
ell 114, elapsed: 0.0013921260833740234
ell 113, elapsed: 0.0002608299255371094
ell 112, elapsed: 0.0018770694732666016
ell 111, elapsed: 0.00024008750915527344
ell 110, elapsed: 0.00024390220642089844
ell 102, elapsed: 0.0005359649658203125
ell 101, elapsed: 0.0002410411834716797
ell 100, elapsed: 0.00023603439331054688
ell 99, elapsed: 0.00023818016052246094
ell 98, elapsed: 0.00023698806762695312
ell 97, elapsed: 0.0002689361572265625
ell 96, elapsed: 0.0002849102020263672
ell 95, elapsed: 0.0002701282501220703
ell 94, elapsed: 0.00027489662170410156
ell 93, elapsed: 0.00026702880859375
ell 92, elapsed: 0.0002689361572265625
ell 91, elapsed: 0.0003490447998046875
ell 90, elapsed: 0.0002880096435546875
ell 89, elapsed: 0.0002949237823486328
ell 88, elapsed: 0.00028395652770996094
ell 87, elapsed: 0.0002779960632324219
ell 86, elapsed: 0.0002899169921875
ell 85, elapsed: 0.00028514862060546875
ell 84, elapsed: 0.0002911090850830078
ell 83, elapsed: 0.0002830028533935547
ell 82, elapsed: 0.0002830028533935547
ell 81, elapsed: 0.0002899169921875
ell 80, elapsed: 0.000286102294921875
ell 79, elapsed: 0.0002930164337158203
ell 78, elapsed: 0.00030803680419921875
ell 77, elapsed: 0.0002799034118652344
ell 76, elapsed: 0.00029015541076660156
ell 75, elapsed: 0.00028204917907714844
ell 74, elapsed: 0.0002942085266113281
ell 73, elapsed: 0.00028204917907714844
ell 72, elapsed: 0.00030493736267089844
ell 71, elapsed: 0.0002830028533935547
ell 70, elapsed: 0.00028705596923828125
ell 69, elapsed: 0.0002999305725097656
ell 68, elapsed: 0.00027108192443847656
ell 67, elapsed: 0.00027489662170410156
ell 66, elapsed: 0.0002760887145996094
ell 65, elapsed: 0.00033283233642578125
ell 64, elapsed: 0.0002999305725097656
ell 63, elapsed: 0.00028896331787109375
ell 62, elapsed: 0.0003008842468261719
ell 61, elapsed: 0.0002911090850830078
ell 60, elapsed: 0.0002899169921875
ell 59, elapsed: 0.0002980232238769531
ell 58, elapsed: 0.0002849102020263672
[...]
ell 782, elapsed: 0.0009698867797851562
ell 781, elapsed: 0.0005271434783935547
ell 780, elapsed: 0.0005471706390380859
ell 779, elapsed: 0.0005431175231933594
ell 778, elapsed: 0.0005440711975097656
ell 772, elapsed: 0.0009891986846923828
ell 771, elapsed: 0.0005290508270263672
ell 770, elapsed: 0.0005321502685546875
ell 769, elapsed: 0.0005381107330322266
ell 768, elapsed: 0.0005428791046142578
ell 762, elapsed: 0.0009770393371582031
ell 761, elapsed: 0.0004889965057373047
ell 760, elapsed: 0.0004868507385253906
ell 759, elapsed: 0.00047707557678222656
ell 758, elapsed: 0.0004940032958984375
ell 752, elapsed: 0.0008308887481689453
ell 751, elapsed: 0.00047707557678222656
ell 750, elapsed: 0.0005030632019042969
ell 749, elapsed: 0.0005857944488525391
ell 748, elapsed: 0.0005459785461425781
ell 742, elapsed: 0.0009617805480957031
ell 741, elapsed: 0.0005371570587158203
ell 740, elapsed: 0.0005440711975097656
ell 739, elapsed: 0.0005500316619873047
ell 738, elapsed: 0.0005891323089599609
ell 732, elapsed: 0.0009667873382568359
ell 731, elapsed: 0.0005381107330322266
ell 730, elapsed: 0.000553131103515625
ell 729, elapsed: 0.0005459785461425781
ell 728, elapsed: 0.0005609989166259766
ell 722, elapsed: 0.0010428428649902344
ell 721, elapsed: 0.0005350112915039062
ell 720, elapsed: 0.0005478858947753906
ell 719, elapsed: 0.0005371570587158203
ell 718, elapsed: 0.0005478858947753906
ell 712, elapsed: 0.0009698867797851562
ell 711, elapsed: 0.0005807876586914062
ell 710, elapsed: 0.0005540847778320312
ell 709, elapsed: 0.0005412101745605469
ell 708, elapsed: 0.0005600452423095703
ell 702, elapsed: 0.0009601116180419922
ell 701, elapsed: 0.0005228519439697266
ell 700, elapsed: 0.0005888938903808594
ell 699, elapsed: 0.0005500316619873047
ell 698, elapsed: 0.0005519390106201172
ell 692, elapsed: 0.0009860992431640625
ell 691, elapsed: 0.0005400180816650391
ell 690, elapsed: 0.0005509853363037109
ell 689, elapsed: 0.0005991458892822266
ell 688, elapsed: 0.0005540847778320312
ell 682, elapsed: 0.0009601116180419922
ell 681, elapsed: 0.0005390644073486328
ell 680, elapsed: 0.0005509853363037109
ell 679, elapsed: 0.0005419254302978516
ell 678, elapsed: 0.0005970001220703125
ell 672, elapsed: 0.0009701251983642578
ell 671, elapsed: 0.0005359649658203125
ell 670, elapsed: 0.0005600452423095703
ell 669, elapsed: 0.0005521774291992188
ell 668, elapsed: 0.0005538463592529297
ell 662, elapsed: 0.0010199546813964844
ell 661, elapsed: 0.0005440711975097656
ell 660, elapsed: 0.0005471706390380859
ell 659, elapsed: 0.0005428791046142578
ell 658, elapsed: 0.0005519390106201172
ell 652, elapsed: 0.0009760856628417969
ell 651, elapsed: 0.0005991458892822266
ell 650, elapsed: 0.000553131103515625
ell 649, elapsed: 0.0005362033843994141
ell 648, elapsed: 0.0005600452423095703
ell 642, elapsed: 0.0009448528289794922
ell 641, elapsed: 0.0005340576171875
ell 640, elapsed: 0.0005779266357421875
ell 639, elapsed: 0.0004889965057373047
ell 638, elapsed: 0.0004949569702148438
ell 632, elapsed: 0.0008449554443359375
ell 631, elapsed: 0.0004749298095703125
ell 630, elapsed: 0.0004839897155761719
ell 629, elapsed: 0.000476837158203125
ell 628, elapsed: 0.0004849433898925781
ell 622, elapsed: 0.0009541511535644531
ell 621, elapsed: 0.0005249977111816406
ell 620, elapsed: 0.0005300045013427734
ell 619, elapsed: 0.0005321502685546875
ell 618, elapsed: 0.0005331039428710938
ell 612, elapsed: 0.001004934310913086
ell 611, elapsed: 0.0005280971527099609
ell 610, elapsed: 0.0005369186401367188
ell 609, elapsed: 0.0005447864532470703
ell 608, elapsed: 0.0005409717559814453
ell 602, elapsed: 0.0009751319885253906
ell 601, elapsed: 0.0005440711975097656
ell 600, elapsed: 0.0005900859832763672
ell 599, elapsed: 0.0005412101745605469
ell 598, elapsed: 0.0005509853363037109
ell 592, elapsed: 0.0009739398956298828
ell 591, elapsed: 0.0005359649658203125
ell 590, elapsed: 0.0005359649658203125
ell 589, elapsed: 0.0006518363952636719
ell 588, elapsed: 0.0005540847778320312
ell 582, elapsed: 0.0009601116180419922
ell 581, elapsed: 0.0005390644073486328
ell 580, elapsed: 0.0005478858947753906
ell 579, elapsed: 0.0005459785461425781
ell 578, elapsed: 0.0006010532379150391
ell 572, elapsed: 0.000993967056274414
ell 571, elapsed: 0.0005478858947753906
ell 570, elapsed: 0.0005550384521484375
ell 569, elapsed: 0.0016181468963623047
ell 568, elapsed: 0.0005631446838378906
ell 562, elapsed: 0.0010089874267578125
ell 561, elapsed: 0.0005471706390380859
ell 560, elapsed: 0.0005600452423095703
ell 559, elapsed: 0.0005419254302978516
ell 558, elapsed: 0.0005338191986083984
ell 552, elapsed: 0.0010449886322021484
ell 551, elapsed: 0.0005469322204589844
ell 550, elapsed: 0.0005629062652587891
ell 549, elapsed: 0.0005540847778320312
ell 548, elapsed: 0.0005559921264648438
ell 542, elapsed: 0.0010290145874023438
ell 541, elapsed: 0.0005409717559814453
ell 540, elapsed: 0.0005528926849365234
ell 539, elapsed: 0.0005412101745605469
ell 538, elapsed: 0.0005559921264648438
ell 532, elapsed: 0.0009760856628417969
ell 531, elapsed: 0.0005710124969482422
ell 530, elapsed: 0.00055694580078125
ell 529, elapsed: 0.0005428791046142578
ell 528, elapsed: 0.0005619525909423828
ell 522, elapsed: 0.000985860824584961
ell 521, elapsed: 0.0005388259887695312
ell 520, elapsed: 0.0006110668182373047
ell 519, elapsed: 0.0005388259887695312
ell 518, elapsed: 0.0005447864532470703
ell 512, elapsed: 0.0009710788726806641
ell 511, elapsed: 0.0005500316619873047
ell 510, elapsed: 0.0005440711975097656
ell 509, elapsed: 0.0005331039428710938
ell 508, elapsed: 0.0005950927734375
ell 502, elapsed: 0.0009810924530029297
ell 501, elapsed: 0.0005359649658203125
ell 500, elapsed: 0.0005450248718261719
ell 499, elapsed: 0.0005421638488769531
ell 498, elapsed: 0.0005462169647216797
ell 492, elapsed: 0.001043081283569336
ell 491, elapsed: 0.0005350112915039062
ell 490, elapsed: 0.0005409717559814453
ell 489, elapsed: 0.0005400180816650391
ell 488, elapsed: 0.0005409717559814453
ell 482, elapsed: 0.0009930133819580078
ell 481, elapsed: 0.0005230903625488281
ell 480, elapsed: 0.0005400180816650391
ell 479, elapsed: 0.0005311965942382812
ell 478, elapsed: 0.0005369186401367188
ell 472, elapsed: 0.0009479522705078125
ell 471, elapsed: 0.0005450248718261719
ell 470, elapsed: 0.0005769729614257812
ell 469, elapsed: 0.0005350112915039062
ell 468, elapsed: 0.0005421638488769531
ell 462, elapsed: 0.000965118408203125
ell 461, elapsed: 0.0005381107330322266
ell 460, elapsed: 0.0005421638488769531
ell 459, elapsed: 0.0024580955505371094
ell 458, elapsed: 0.0005540847778320312
ell 452, elapsed: 0.0009629726409912109
ell 451, elapsed: 0.0005719661712646484
ell 450, elapsed: 0.0005481243133544922
ell 449, elapsed: 0.0005300045013427734
ell 448, elapsed: 0.0005390644073486328
ell 442, elapsed: 0.0009870529174804688
ell 441, elapsed: 0.0005421638488769531
ell 440, elapsed: 0.0006160736083984375
ell 439, elapsed: 0.0005679130554199219
ell 438, elapsed: 0.0005578994750976562
ell 432, elapsed: 0.0010290145874023438
ell 431, elapsed: 0.0005469322204589844
ell 430, elapsed: 0.0005500316619873047
ell 429, elapsed: 0.0005891323089599609
ell 428, elapsed: 0.0005621910095214844
ell 422, elapsed: 0.0009899139404296875
ell 421, elapsed: 0.0005269050598144531
ell 420, elapsed: 0.000537872314453125
ell 419, elapsed: 0.0005159378051757812
ell 418, elapsed: 0.0005288124084472656
ell 412, elapsed: 0.0009849071502685547
ell 411, elapsed: 0.0005071163177490234
ell 410, elapsed: 0.0005319118499755859
ell 409, elapsed: 0.0005199909210205078
ell 408, elapsed: 0.0005438327789306641
ell 402, elapsed: 0.0009400844573974609
ell 401, elapsed: 0.0005309581756591797
ell 400, elapsed: 0.0005428791046142578
ell 399, elapsed: 0.0005300045013427734
ell 398, elapsed: 0.0005381107330322266
ell 392, elapsed: 0.0009601116180419922
ell 391, elapsed: 0.0005249977111816406
ell 390, elapsed: 0.0006570816040039062
ell 389, elapsed: 0.0005359649658203125
ell 388, elapsed: 0.0005319118499755859
ell 382, elapsed: 0.000926971435546875
ell 381, elapsed: 0.0005328655242919922
ell 380, elapsed: 0.0005340576171875
ell 379, elapsed: 0.0005440711975097656
ell 378, elapsed: 0.0005280971527099609
ell 372, elapsed: 0.000843048095703125
ell 371, elapsed: 0.0004367828369140625
ell 370, elapsed: 0.0004467964172363281
ell 369, elapsed: 0.0004458427429199219
ell 368, elapsed: 0.0004489421844482422
ell 362, elapsed: 0.0007901191711425781
ell 361, elapsed: 0.00044798851013183594
ell 360, elapsed: 0.00045299530029296875
ell 359, elapsed: 0.0004451274871826172
ell 358, elapsed: 0.0004532337188720703
ell 352, elapsed: 0.0007488727569580078
ell 351, elapsed: 0.00045609474182128906
ell 350, elapsed: 0.0004620552062988281
ell 349, elapsed: 0.0004570484161376953
ell 348, elapsed: 0.0004508495330810547
ell 342, elapsed: 0.0007829666137695312
ell 341, elapsed: 0.0004608631134033203
ell 340, elapsed: 0.0004520416259765625
ell 339, elapsed: 0.00044608116149902344
ell 338, elapsed: 0.0004482269287109375
ell 332, elapsed: 0.0007801055908203125
ell 331, elapsed: 0.0004439353942871094
ell 330, elapsed: 0.0004379749298095703
ell 329, elapsed: 0.0004329681396484375
ell 328, elapsed: 0.0004379749298095703
ell 322, elapsed: 0.0007171630859375
ell 321, elapsed: 0.0005629062652587891
ell 320, elapsed: 0.0004329681396484375
ell 319, elapsed: 0.00047516822814941406
ell 318, elapsed: 0.0004429817199707031
ell 312, elapsed: 0.0007538795471191406
ell 311, elapsed: 0.0004298686981201172
ell 310, elapsed: 0.0004391670227050781
ell 309, elapsed: 0.000431060791015625
ell 308, elapsed: 0.0004379749298095703
ell 302, elapsed: 0.0007600784301757812
ell 301, elapsed: 0.0004279613494873047
ell 300, elapsed: 0.0004329681396484375
ell 299, elapsed: 0.0004260540008544922
ell 298, elapsed: 0.000431060791015625
ell 292, elapsed: 0.0007178783416748047
ell 291, elapsed: 0.0004229545593261719
ell 290, elapsed: 0.0004260540008544922
ell 289, elapsed: 0.00042510032653808594
ell 288, elapsed: 0.0004508495330810547
ell 282, elapsed: 0.0007219314575195312
ell 281, elapsed: 0.0004220008850097656
ell 280, elapsed: 0.00042700767517089844
ell 279, elapsed: 0.00042700767517089844
ell 278, elapsed: 0.00043892860412597656
ell 272, elapsed: 0.0007271766662597656
ell 271, elapsed: 0.00042700767517089844
ell 270, elapsed: 0.00045609474182128906
ell 269, elapsed: 0.000431060791015625
ell 268, elapsed: 0.0004329681396484375
ell 262, elapsed: 0.0007281303405761719
ell 261, elapsed: 0.0004260540008544922
ell 260, elapsed: 0.00043392181396484375
ell 259, elapsed: 0.0004258155822753906
ell 258, elapsed: 0.00043511390686035156
ell 252, elapsed: 0.0007519721984863281
ell 251, elapsed: 0.00043082237243652344
ell 250, elapsed: 0.00042891502380371094
ell 249, elapsed: 0.0004420280456542969
ell 248, elapsed: 0.0004401206970214844
ell 242, elapsed: 0.0007610321044921875
ell 241, elapsed: 0.0008180141448974609
ell 240, elapsed: 0.001024007797241211
ell 239, elapsed: 0.001007080078125
ell 238, elapsed: 0.00109100341796875
ell 232, elapsed: 0.0021810531616210938
ell 231, elapsed: 0.0017049312591552734
ell 230, elapsed: 0.0010349750518798828
ell 229, elapsed: 0.0009350776672363281
ell 228, elapsed: 0.0006561279296875
ell 222, elapsed: 0.0010721683502197266
ell 221, elapsed: 0.0007219314575195312
ell 220, elapsed: 0.0007081031799316406
ell 219, elapsed: 0.0006589889526367188
ell 218, elapsed: 0.0006649494171142578
ell 212, elapsed: 0.0010869503021240234
ell 211, elapsed: 0.0006539821624755859
ell 210, elapsed: 0.0008988380432128906
ell 209, elapsed: 0.0008330345153808594
ell 208, elapsed: 0.0008020401000976562
ell 202, elapsed: 0.001394033432006836
ell 201, elapsed: 0.0008418560028076172
ell 200, elapsed: 0.0007348060607910156
ell 199, elapsed: 0.0006899833679199219
ell 198, elapsed: 0.0007381439208984375
ell 192, elapsed: 0.001255035400390625
ell 191, elapsed: 0.0007450580596923828
ell 190, elapsed: 0.0004901885986328125
ell 189, elapsed: 0.0004889965057373047
ell 188, elapsed: 0.0004868507385253906
ell 182, elapsed: 0.0008549690246582031
ell 181, elapsed: 0.000492095947265625
ell 180, elapsed: 0.0006010532379150391
ell 179, elapsed: 0.0005497932434082031
ell 178, elapsed: 0.0005590915679931641
ell 172, elapsed: 0.0009799003601074219
ell 171, elapsed: 0.0005390644073486328
ell 170, elapsed: 0.0005609989166259766
ell 169, elapsed: 0.0005741119384765625
ell 168, elapsed: 0.0005619525909423828
ell 162, elapsed: 0.0009567737579345703
ell 161, elapsed: 0.0005300045013427734
ell 160, elapsed: 0.0005688667297363281
ell 159, elapsed: 0.0005581378936767578
ell 158, elapsed: 0.00057220458984375
ell 152, elapsed: 0.0009810924530029297
ell 151, elapsed: 0.0005469322204589844
ell 150, elapsed: 0.0005571842193603516
ell 149, elapsed: 0.0005631446838378906
ell 148, elapsed: 0.0005679130554199219
ell 142, elapsed: 0.0010151863098144531
ell 141, elapsed: 0.0005571842193603516
ell 140, elapsed: 0.0005609989166259766
ell 139, elapsed: 0.0005671977996826172
ell 138, elapsed: 0.0005738735198974609
ell 132, elapsed: 0.00096893310546875
ell 131, elapsed: 0.0005939006805419922
ell 130, elapsed: 0.00057220458984375
ell 129, elapsed: 0.0005629062652587891
ell 128, elapsed: 0.000579833984375
ell 122, elapsed: 0.0009720325469970703
ell 121, elapsed: 0.0005509853363037109
ell 120, elapsed: 0.0006170272827148438
ell 119, elapsed: 0.0005669593811035156
ell 118, elapsed: 0.00055694580078125
ell 112, elapsed: 0.0009660720825195312
ell 111, elapsed: 0.0005600452423095703
ell 110, elapsed: 0.0005648136138916016
ell 109, elapsed: 0.0005879402160644531
ell 108, elapsed: 0.0005691051483154297
ell 102, elapsed: 0.0009529590606689453
ell 101, elapsed: 0.0023310184478759766
ell 100, elapsed: 0.0023109912872314453
ell 99, elapsed: 0.0023691654205322266
ell 98, elapsed: 0.0023488998413085938
ell 92, elapsed: 0.00452113151550293
ell 91, elapsed: 0.0023241043090820312
ell 90, elapsed: 0.002071857452392578
ell 89, elapsed: 0.0019960403442382812
ell 88, elapsed: 0.002026081085205078
ell 82, elapsed: 0.0040209293365478516
ell 81, elapsed: 0.0022339820861816406
ell 80, elapsed: 0.002321004867553711
ell 79, elapsed: 0.0022728443145751953
ell 78, elapsed: 0.002267122268676758
ell 72, elapsed: 0.004301786422729492
ell 71, elapsed: 0.0022439956665039062
ell 70, elapsed: 0.002012968063354492
ell 69, elapsed: 0.002067089080810547
ell 68, elapsed: 0.0022079944610595703
ell 62, elapsed: 0.004209041595458984
ell 61, elapsed: 0.002123117446899414
ell 60, elapsed: 0.002084970474243164
ell 59, elapsed: 0.001992940902709961
ell 58, elapsed: 0.002106904983520508
ell 52, elapsed: 0.004115104675292969
ell 51, elapsed: 0.002174854278564453
ell 50, elapsed: 0.002174854278564453
ell 49, elapsed: 0.002123117446899414
ell 48, elapsed: 0.0021719932556152344
ell 42, elapsed: 0.004116058349609375
ell 41, elapsed: 0.0021982192993164062
ell 40, elapsed: 0.0022068023681640625
ell 39, elapsed: 0.0020978450775146484
ell 38, elapsed: 0.0021619796752929688
ell 32, elapsed: 0.0043790340423583984
ell 31, elapsed: 0.002298116683959961
ell 30, elapsed: 0.0023381710052490234
ell 29, elapsed: 0.0023398399353027344
ell 28, elapsed: 0.0022630691528320312
ell 22, elapsed: 0.00431513786315918
ell 21, elapsed: 0.002110004425048828
ell 20, elapsed: 0.002145051956176758
ell 19, elapsed: 0.0021860599517822266
ell 18, elapsed: 0.002070903778076172
ell 12, elapsed: 0.0043811798095703125
ell 11, elapsed: 0.0022461414337158203
ell 10, elapsed: 0.002262115478515625
ell 9, elapsed: 0.002195119857788086
ell 8, elapsed: 0.002249002456665039
  0.496442 seconds (68.56 k allocations: 12.176 MiB)
elapsed: 0.002686023712158203
step:          0.040952 sec (0 allocations: 0 byte, 0.0% gc time)
swapping:      0.000379 sec (0 allocations: 0 byte, 0.0% gc time)
calc_Mellell!: 0.018564 sec (0 allocations: 0 byte, 0.0% gc time)
  t0 :  0.00652 sec (0 allocations: 0 byte, 0.0% gc time)
  tm2 : 0.048679 sec (0 allocations: 0 byte, 0.0% gc time)
  tm2s: 0.005575 sec (0 allocations: 0 byte, 0.0% gc time)
  tm4 : 0.109427 sec (0 allocations: 0 byte, 0.0% gc time)
  tp2 : 0.0 sec (0 allocations: 0 byte, 0.0% gc time)
  tp2s: 0.0 sec (0 allocations: 0 byte, 0.0% gc time)
  tp4 : 0.0 sec (0 allocations: 0 byte, 0.0% gc time)
calc_wtdll!:   0.365005 sec (48.6 k allocations: 11.096 MB, 0.0% gc time)
calc_wljj!:    0.018348 sec (69 allocations: 1.078 KB, 0.0% gc time)
mult_prefac!:  0.0 sec (0 allocations: 0 byte, 0.0% gc time)
convert:       0.0 sec (0 allocations: 0 byte, 0.0% gc time)
write:         0.023902 sec (0 allocations: 0 byte, 0.0% gc time)
test_rand_2f1: 0.0 sec (0 allocations: 0 byte, 0.0% gc time)
Closing outfile out/MlCache/MlCache.bin...   0.000005 seconds
xi, l=0, nu=0:   0.406723 seconds (603.23 k allocations: 32.994 MiB, 99.66% compilation time)
xi, l=0, nu=-2:  0.001669 seconds (114 allocations: 148.969 KiB)
Created 'out/xi.tsv'.
  q=1.1, R=0.6:	  0.411647 seconds (264.58 k allocations: 38.109 MiB, 1.95% gc time)
  q=1.1, R=0.7:	  0.493773 seconds (276.43 k allocations: 40.113 MiB, 5.16% gc time)
  q=1.1, R=0.8:	  0.487909 seconds (271.87 k allocations: 39.334 MiB, 2.61% gc time)
  q=1.1, R=0.9:	  0.523596 seconds (266.68 k allocations: 38.464 MiB, 1.24% gc time)
  q=1.1, R=0.998:	 13.548696 seconds (114.96 k allocations: 7.588 MiB)
  q=1.1, R=1.0:	  0.002910 seconds (8.20 k allocations: 704.344 KiB)

ℓ = 1000
Δℓ = 4
ΔℓRg1 = -4
N = 4096
q = 1.1
kmin = 1.0e-5
kmax = 1000.0
χ0 = 0.001
RR = RR.tsv
ℓmax = ℓmax.bin
f21 = f21.bin
kmin = 1.0e-5
kmax = 1000.0
dlrec    = 4
dlrecRg1 = -4
Output size: 1573632 bytes = 0.0014655590057373047 GiB
Output size: 786816 bytes = 0.0007327795028686523 GiB
Reading 'out/F21EllCache'...   0.001265 seconds (198 allocations: 533.078 KiB)
ellmax: 1002
lmaxcache: 1000
fell[:,1,1] = ComplexF64[1.726292812820208e-224 - 4.2281979352226965e-240im, 1.7282693092099638e-224 - 4.233038955177178e-240im]
ell 1002, elapsed: 3.695487976074219e-5
ell 1001, elapsed: 0.0007581710815429688
ell 1000, elapsed: 0.0006029605865478516
ell 999, elapsed: 0.003942966461181641
ell 998, elapsed: 0.003921031951904297
ell 44, elapsed: 0.6112031936645508
ell 43, elapsed: 0.0039250850677490234
ell 42, elapsed: 0.003922939300537109
ell 41, elapsed: 0.003973960876464844
ell 40, elapsed: 0.0039730072021484375
  0.641280 seconds (4.59 k allocations: 321.938 KiB)
elapsed: 0.004827022552490234
step:          0.590036 sec (0 allocations: 0 byte, 0.0% gc time)
swapping:      0.000349 sec (0 allocations: 0 byte, 0.0% gc time)
calc_Mellell!: 0.000797 sec (0 allocations: 0 byte, 0.0% gc time)
  t0 :  0.000408 sec (0 allocations: 0 byte, 0.0% gc time)
  tm2 : 0.007182 sec (0 allocations: 0 byte, 0.0% gc time)
  tm2s: 0.000438 sec (0 allocations: 0 byte, 0.0% gc time)
  tm4 : 0.01877 sec (0 allocations: 0 byte, 0.0% gc time)
  tp2 : 0.0 sec (0 allocations: 0 byte, 0.0% gc time)
  tp2s: 0.0 sec (0 allocations: 0 byte, 0.0% gc time)
  tp4 : 0.0 sec (0 allocations: 0 byte, 0.0% gc time)
calc_wtdll!:   0.026964 sec (480 allocations: 52.5 KB, 0.0% gc time)
calc_wljj!:    0.000775 sec (1 allocations: 16 byte, 0.0% gc time)
mult_prefac!:  0.0 sec (0 allocations: 0 byte, 0.0% gc time)
convert:       0.0 sec (0 allocations: 0 byte, 0.0% gc time)
write:         0.000672 sec (0 allocations: 0 byte, 0.0% gc time)
test_rand_2f1: 0.0 sec (0 allocations: 0 byte, 0.0% gc time)
Closing outfile out/MlCache/MlCache.bin...   0.000005 seconds
  0.377567 seconds (38 allocations: 66.859 KiB)
make_phi():   0.006281 seconds (65 allocations: 275.984 KiB)
  0.034822 seconds (11.42 k allocations: 711.960 KiB, 91.56% compilation time)
tskip:       0.0 sec (0 allocations: 0 byte, 0.0% gc time)
tread:       0.000569 sec (17 allocations: 1.266 KB, 0.0% gc time)
tmultphi:    0.000195 sec (0 allocations: 0 byte, 0.0% gc time)
tbrfft:      0.000874 sec (0 allocations: 0 byte, 0.0% gc time)
tmultprefac: 0.000394 sec (0 allocations: 0 byte, 0.0% gc time)
toutfunc:    0.000125 sec (0 allocations: 0 byte, 0.0% gc time)
Created 'out/wl42_jj00.tsv'.
Created 'out/wl42_jj02.tsv'.
    Testing TwoFAST tests passed 
