Julia Version 1.4.0-DEV.577
Commit 1432c5a085 (2019-12-11 08:20 UTC)
Platform Info:
  OS: Linux (x86_64-pc-linux-gnu)
  CPU: Intel(R) Xeon(R) Silver 4114 CPU @ 2.20GHz
  WORD_SIZE: 64
  LIBM: libopenlibm
  LLVM: libLLVM-8.0.1 (ORCJIT, skylake)
Environment:
  JULIA_DEPOT_PATH = ::/usr/local/share/julia

 Resolving package versions...
 Installed Reexport ───────── v0.2.0
 Installed IncGammaBeta ───── v0.1.0
 Installed Conda ──────────── v1.3.0
 Installed AbstractFFTs ───── v0.5.0
 Installed BinDeps ────────── v1.0.0
 Installed FFTW ───────────── v1.1.0
 Installed SpecialFunctions ─ v0.8.0
 Installed VersionParsing ─── v1.1.3
 Installed URIParser ──────── v0.4.0
 Installed Compat ─────────── v2.2.0
 Installed Parsers ────────── v0.3.10
 Installed TwoFAST ────────── v0.1.0
 Installed BinaryProvider ─── v0.5.8
 Installed AbstractAlgebra ── v0.7.1
 Installed Nemo ───────────── v0.15.1
 Installed JSON ───────────── v0.21.0
  Updating `~/.julia/environments/v1.4/Project.toml`
  [0dd23c3e] + TwoFAST v0.1.0
  Updating `~/.julia/environments/v1.4/Manifest.toml`
  [c3fe647b] + AbstractAlgebra v0.7.1
  [621f4979] + AbstractFFTs v0.5.0
  [9e28174c] + BinDeps v1.0.0
  [b99e7846] + BinaryProvider v0.5.8
  [34da2185] + Compat v2.2.0
  [8f4d0f93] + Conda v1.3.0
  [7a1cc6ca] + FFTW v1.1.0
  [5087d2c0] + IncGammaBeta v0.1.0
  [682c06a0] + JSON v0.21.0
  [2edaba10] + Nemo v0.15.1
  [69de0a69] + Parsers v0.3.10
  [189a3867] + Reexport v0.2.0
  [276daf66] + SpecialFunctions v0.8.0
  [0dd23c3e] + TwoFAST v0.1.0
  [30578b45] + URIParser v0.4.0
  [81def892] + VersionParsing v1.1.3
  [2a0f44e3] + Base64 
  [ade2ca70] + Dates 
  [8bb1440f] + DelimitedFiles 
  [8ba89e20] + Distributed 
  [b77e0a4c] + InteractiveUtils 
  [76f85450] + LibGit2 
  [8f399da3] + Libdl 
  [37e2e46d] + LinearAlgebra 
  [56ddb016] + Logging 
  [d6f4376e] + Markdown 
  [a63ad114] + Mmap 
  [44cfe95a] + Pkg 
  [de0858da] + Printf 
  [3fa0cd96] + REPL 
  [9a3f8284] + Random 
  [ea8e919c] + SHA 
  [9e88b42a] + Serialization 
  [1a1011a3] + SharedArrays 
  [6462fe0b] + Sockets 
  [2f01184e] + SparseArrays 
  [10745b16] + Statistics 
  [8dfed614] + Test 
  [cf7118a7] + UUIDs 
  [4ec0a83e] + Unicode 
  Building Conda ───────────→ `~/.julia/packages/Conda/kLXeC/deps/build.log`
  Building FFTW ────────────→ `~/.julia/packages/FFTW/loJ3F/deps/build.log`
  Building SpecialFunctions → `~/.julia/packages/SpecialFunctions/ne2iw/deps/build.log`
  Building Nemo ────────────→ `~/.julia/packages/Nemo/qzx0m/deps/build.log`
   Testing TwoFAST
 Resolving package versions...

gzip: stdin: not in gzip format
tar: Child returned status 1
tar: Error is not recoverable: exiting now
┌ Warning: failed to extract archive downloaded from https://github.com/kbarbary/Dierckx.jl.git
└ @ Pkg.Operations /buildworker/worker/package_linux64/build/usr/share/julia/stdlib/v1.4/Pkg/src/Operations.jl:481
   Cloning [39dd38d3-220a-591b-8e3c-4c3a8c710a94] Dierckx from https://github.com/kbarbary/Dierckx.jl.git
[?25l    Fetching: [>                                        ]  0.0 %[2K[?25h Installed Dierckx ─ v0.4.1
  Building Dierckx → `~/.julia/packages/Dierckx/9SY4A/deps/build.log`
Status `/tmp/jl_YQ32ji/Manifest.toml`
  [c3fe647b] AbstractAlgebra v0.7.1
  [621f4979] AbstractFFTs v0.5.0
  [9e28174c] BinDeps v1.0.0
  [b99e7846] BinaryProvider v0.5.8
  [34da2185] Compat v2.2.0
  [8f4d0f93] Conda v1.3.0
  [39dd38d3] Dierckx v0.4.1
  [7a1cc6ca] FFTW v1.1.0
  [5087d2c0] IncGammaBeta v0.1.0
  [682c06a0] JSON v0.21.0
  [2edaba10] Nemo v0.15.1
  [69de0a69] Parsers v0.3.10
  [189a3867] Reexport v0.2.0
  [276daf66] SpecialFunctions v0.8.0
  [0dd23c3e] TwoFAST v0.1.0
  [30578b45] URIParser v0.4.0
  [81def892] VersionParsing v1.1.3
  [2a0f44e3] Base64  [`@stdlib/Base64`]
  [ade2ca70] Dates  [`@stdlib/Dates`]
  [8bb1440f] DelimitedFiles  [`@stdlib/DelimitedFiles`]
  [8ba89e20] Distributed  [`@stdlib/Distributed`]
  [b77e0a4c] InteractiveUtils  [`@stdlib/InteractiveUtils`]
  [76f85450] LibGit2  [`@stdlib/LibGit2`]
  [8f399da3] Libdl  [`@stdlib/Libdl`]
  [37e2e46d] LinearAlgebra  [`@stdlib/LinearAlgebra`]
  [56ddb016] Logging  [`@stdlib/Logging`]
  [d6f4376e] Markdown  [`@stdlib/Markdown`]
  [a63ad114] Mmap  [`@stdlib/Mmap`]
  [44cfe95a] Pkg  [`@stdlib/Pkg`]
  [de0858da] Printf  [`@stdlib/Printf`]
  [3fa0cd96] REPL  [`@stdlib/REPL`]
  [9a3f8284] Random  [`@stdlib/Random`]
  [ea8e919c] SHA  [`@stdlib/SHA`]
  [9e88b42a] Serialization  [`@stdlib/Serialization`]
  [1a1011a3] SharedArrays  [`@stdlib/SharedArrays`]
  [6462fe0b] Sockets  [`@stdlib/Sockets`]
  [2f01184e] SparseArrays  [`@stdlib/SparseArrays`]
  [10745b16] Statistics  [`@stdlib/Statistics`]
  [8dfed614] Test  [`@stdlib/Test`]
  [cf7118a7] UUIDs  [`@stdlib/UUIDs`]
  [4ec0a83e] Unicode  [`@stdlib/Unicode`]

Welcome to Nemo version 0.15.1

Nemo comes with absolutely no warranty whatsoever


Welcome to Nemo version 0.15.1

Nemo comes with absolutely no warranty whatsoever

Testing ξ(r), ℓ=0, ν=-1 ... passed
Testing ξ(r), ℓ=0, ν=0 ... passed
Testing ξ(r), ℓ=0, ν=1 ... passed
Testing ξ(r), ℓ=0, ν=2 ... passed
Testing ξ(r), ℓ=0, ν=3 ... passed
Testing ξ(r), ℓ=1, ν=0 ... passed
Testing ξ(r), ℓ=1, ν=1 ... passed
Testing ξ(r), ℓ=1, ν=2 ... passed
Testing ξ(r), ℓ=1, ν=3 ... passed
Testing ξ(r), ℓ=2, ν=-1 ... passed
Testing ξ(r), ℓ=2, ν=0 ... passed
Testing ξ(r), ℓ=2, ν=1 ... passed
Testing ξ(r), ℓ=2, ν=2 ... passed
Testing ξ(r), ℓ=2, ν=3 ... passed
Testing ξ(r), ℓ=3, ν=-1 ... passed
Testing ξ(r), ℓ=3, ν=0 ... passed
Testing ξ(r), ℓ=3, ν=1 ... passed
Testing ξ(r), ℓ=3, ν=2 ... passed
Testing ξ(r), ℓ=3, ν=3 ... passed
Testing ξ(r), ℓ=4, ν=-1 ... passed
Testing ξ(r), ℓ=4, ν=0 ... passed
Testing ξ(r), ℓ=4, ν=1 ... passed
Testing ξ(r), ℓ=4, ν=2 ... passed
Testing ξ(r), ℓ=4, ν=3 ... passed
Testing ξ(r) ... passed
Testing ξ′(r) ... passed
Testing ξ″(r) ... passed
Calculating fmax: 
  dlrec    = 4
  dlrecRg1 = -4
  q=1.1, R=1.1:	  4.613814 seconds (1.20 M allocations: 67.974 MiB, 1.55% gc time)

  4.651404 seconds (1.22 M allocations: 69.084 MiB, 1.53% gc time)
ℓ = 1202
Δℓ = 4
ΔℓRg1 = -4
N = 1600
q = 1.1
kmin = 1.0e-5
kmax = 100000.00000000004
χ0 = 0.023029999999999995
RR = RR.tsv
ℓmax = ℓmax.bin
f21 = f21.bin
kmin = 1.0e-5
kmax = 100000.0
dlrec    = 4
dlrecRg1 = -4
Output size: 5741568 bytes = 0.005347251892089844 GiB
Output size: 51264 bytes = 4.774332046508789e-5 GiB
Reading 'out/F21EllCache'...   0.604649 seconds (314.60 k allocations: 16.146 MiB)
ellmax: 1202
lmaxcache: 1202
fell[:,1,1] = Complex{Float64}[3.9583795592771634e-52 - 9.695233714158177e-68im, 3.990121772925759e-52 - 9.772979714843386e-68im]
ell 1202, elapsed: 9.202957153320312e-5
ell 1201, elapsed: 2.2209508419036865
ell 1200, elapsed: 0.0006568431854248047
ell 1199, elapsed: 0.0005910396575927734
ell 1198, elapsed: 0.0005919933319091797
ell 1002, elapsed: 0.010632991790771484
ell 1001, elapsed: 0.0004611015319824219
ell 1000, elapsed: 0.000453948974609375
ell 999, elapsed: 0.000453948974609375
ell 998, elapsed: 0.0004639625549316406
ell 902, elapsed: 0.005045175552368164
ell 901, elapsed: 0.0005478858947753906
ell 900, elapsed: 0.0005321502685546875
ell 899, elapsed: 0.0005850791931152344
ell 898, elapsed: 0.0005931854248046875
ell 802, elapsed: 0.006298065185546875
ell 801, elapsed: 0.0006120204925537109
ell 800, elapsed: 0.0005841255187988281
ell 799, elapsed: 0.0006098747253417969
ell 798, elapsed: 0.0007240772247314453
ell 702, elapsed: 0.0060961246490478516
ell 701, elapsed: 0.0005719661712646484
ell 700, elapsed: 0.0005190372467041016
ell 699, elapsed: 0.0005140304565429688
ell 698, elapsed: 0.0005171298980712891
ell 602, elapsed: 0.006202220916748047
ell 601, elapsed: 0.05213522911071777
ell 600, elapsed: 0.0007951259613037109
ell 599, elapsed: 0.0006480216979980469
ell 598, elapsed: 0.0006530284881591797
ell 502, elapsed: 0.008059978485107422
ell 501, elapsed: 0.0006880760192871094
ell 500, elapsed: 0.000579833984375
ell 499, elapsed: 0.0007059574127197266
ell 498, elapsed: 0.0005679130554199219
ell 402, elapsed: 0.005568027496337891
ell 401, elapsed: 0.0004940032958984375
ell 400, elapsed: 0.0004830360412597656
ell 399, elapsed: 0.00048089027404785156
ell 398, elapsed: 0.0005249977111816406
ell 302, elapsed: 0.00665593147277832
ell 301, elapsed: 0.0005609989166259766
ell 300, elapsed: 0.0005359649658203125
ell 299, elapsed: 0.00047016143798828125
ell 298, elapsed: 0.00047087669372558594
ell 202, elapsed: 0.005014896392822266
ell 201, elapsed: 0.0004870891571044922
ell 200, elapsed: 0.0005328655242919922
ell 199, elapsed: 0.0005459785461425781
ell 198, elapsed: 0.0005459785461425781
ell 152, elapsed: 0.0027251243591308594
ell 151, elapsed: 0.0005350112915039062
ell 150, elapsed: 0.0005300045013427734
ell 149, elapsed: 0.0005419254302978516
ell 148, elapsed: 0.0006058216094970703
ell 127, elapsed: 0.0018169879913330078
ell 126, elapsed: 0.0005960464477539062
ell 125, elapsed: 0.0004811286926269531
ell 124, elapsed: 0.0005900859832763672
ell 123, elapsed: 0.0005509853363037109
ell 114, elapsed: 0.001013040542602539
ell 113, elapsed: 0.0005629062652587891
ell 112, elapsed: 0.0005381107330322266
ell 111, elapsed: 0.0006890296936035156
ell 110, elapsed: 0.0005009174346923828
ell 102, elapsed: 0.0009829998016357422
ell 101, elapsed: 0.0005400180816650391
ell 100, elapsed: 0.0005180835723876953
ell 99, elapsed: 0.0005218982696533203
ell 98, elapsed: 0.0005319118499755859
ell 97, elapsed: 0.0006508827209472656
ell 96, elapsed: 0.0011448860168457031
ell 95, elapsed: 0.0010690689086914062
ell 94, elapsed: 0.0011208057403564453
ell 93, elapsed: 0.0012238025665283203
ell 92, elapsed: 0.0008771419525146484
ell 91, elapsed: 0.0007741451263427734
ell 90, elapsed: 0.0008649826049804688
ell 89, elapsed: 0.000782012939453125
ell 88, elapsed: 0.0008890628814697266
ell 87, elapsed: 0.0007741451263427734
ell 86, elapsed: 0.0008649826049804688
ell 85, elapsed: 0.0007870197296142578
ell 84, elapsed: 0.0007810592651367188
ell 83, elapsed: 0.0006849765777587891
ell 82, elapsed: 0.0007700920104980469
ell 81, elapsed: 0.0006830692291259766
ell 80, elapsed: 0.0007719993591308594
ell 79, elapsed: 0.0007600784301757812
ell 78, elapsed: 0.0007739067077636719
ell 77, elapsed: 0.0006999969482421875
ell 76, elapsed: 0.0007729530334472656
ell 75, elapsed: 0.0006868839263916016
ell 74, elapsed: 0.0007688999176025391
ell 73, elapsed: 0.0006799697875976562
ell 72, elapsed: 0.000782012939453125
ell 71, elapsed: 0.0006821155548095703
ell 70, elapsed: 0.0007708072662353516
ell 69, elapsed: 0.0007531642913818359
ell 68, elapsed: 0.0007770061492919922
ell 67, elapsed: 0.0006880760192871094
ell 66, elapsed: 0.0007789134979248047
ell 65, elapsed: 0.0006771087646484375
ell 64, elapsed: 0.0007791519165039062
ell 63, elapsed: 0.0006799697875976562
ell 62, elapsed: 0.0007688999176025391
ell 61, elapsed: 0.0006811618804931641
ell 60, elapsed: 0.0007829666137695312
ell 59, elapsed: 0.0007331371307373047
ell 58, elapsed: 0.0007810592651367188
ell 57, elapsed: 0.00067901611328125
ell 56, elapsed: 0.0007779598236083984
ell 55, elapsed: 0.0006830692291259766
ell 54, elapsed: 0.0007779598236083984
ell 53, elapsed: 0.0006809234619140625
ell 52, elapsed: 0.0007688999176025391
ell 51, elapsed: 0.0006811618804931641
ell 50, elapsed: 0.000762939453125
ell 49, elapsed: 0.0006978511810302734
ell 48, elapsed: 0.0007688999176025391
ell 47, elapsed: 0.0006940364837646484
ell 46, elapsed: 0.0008039474487304688
ell 45, elapsed: 0.0007088184356689453
ell 44, elapsed: 0.0007998943328857422
ell 43, elapsed: 0.0007030963897705078
ell 42, elapsed: 0.0008320808410644531
ell 41, elapsed: 0.0008060932159423828
ell 40, elapsed: 0.0008890628814697266
ell 39, elapsed: 0.0006890296936035156
ell 38, elapsed: 0.0007510185241699219
ell 37, elapsed: 0.0006458759307861328
ell 36, elapsed: 0.0007350444793701172
ell 35, elapsed: 0.0006489753723144531
ell 34, elapsed: 0.0007338523864746094
ell 33, elapsed: 0.0006420612335205078
ell 32, elapsed: 0.0007309913635253906
ell 31, elapsed: 0.0006420612335205078
ell 30, elapsed: 0.0007269382476806641
ell 29, elapsed: 0.0006821155548095703
ell 28, elapsed: 0.0008249282836914062
ell 27, elapsed: 0.0007281303405761719
ell 26, elapsed: 0.0008931159973144531
ell 25, elapsed: 0.0007908344268798828
ell 24, elapsed: 0.0009129047393798828
ell 23, elapsed: 0.0008130073547363281
ell 22, elapsed: 0.0009329319000244141
ell 21, elapsed: 0.000885009765625
ell 20, elapsed: 0.001172780990600586
ell 19, elapsed: 0.0009238719940185547
ell 18, elapsed: 0.0011029243469238281
ell 17, elapsed: 0.0008940696716308594
ell 16, elapsed: 0.0008871555328369141
ell 15, elapsed: 0.0007131099700927734
ell 14, elapsed: 0.0008101463317871094
ell 13, elapsed: 0.0007131099700927734
ell 12, elapsed: 0.0008089542388916016
ell 11, elapsed: 0.0007140636444091797
ell 10, elapsed: 0.0008311271667480469
ell 9, elapsed: 0.001065969467163086
ell 8, elapsed: 0.00096893310546875
ell 7, elapsed: 0.0005140304565429688
ell 6, elapsed: 0.0005829334259033203
ell 5, elapsed: 0.0006759166717529297
ell 4, elapsed: 0.0008149147033691406
ell 3, elapsed: 0.0007190704345703125
ell 2, elapsed: 0.0008029937744140625
ell 1, elapsed: 0.0007138252258300781
ell 0, elapsed: 0.00090789794921875
  3.113528 seconds (1.73 M allocations: 84.819 MiB, 2.61% gc time)
elapsed: 0.0006589889526367188
step:          0.841502 sec (402.829 k allocations: 20.29 MB, 0.0% gc time)
swapping:      0.000653 sec (0 allocations: 0 byte, 0.0% gc time)
calc_Mellell!: 0.532511 sec (296.625 k allocations: 14.967 MB, 5.62% gc time)
  t0 :  0.0 sec (0 allocations: 0 byte, 0.0% gc time)
  tm2 : 0.0 sec (0 allocations: 0 byte, 0.0% gc time)
  tm2s: 0.0 sec (0 allocations: 0 byte, 0.0% gc time)
  tm4 : 0.0 sec (0 allocations: 0 byte, 0.0% gc time)
  tp2 : 0.0 sec (0 allocations: 0 byte, 0.0% gc time)
  tp2s: 0.0 sec (0 allocations: 0 byte, 0.0% gc time)
  tp4 : 0.0 sec (0 allocations: 0 byte, 0.0% gc time)
calc_wtdll!:   1.002114 sec (526.041 k allocations: 26.383 MB, 0.0% gc time)
calc_wljj!:    0.003824 sec (6 allocations: 96 byte, 0.0% gc time)
mult_prefac!:  0.0 sec (0 allocations: 0 byte, 0.0% gc time)
convert:       0.0 sec (0 allocations: 0 byte, 0.0% gc time)
write:         0.005753 sec (0 allocations: 0 byte, 0.0% gc time)
test_rand_2f1: 0.0 sec (0 allocations: 0 byte, 0.0% gc time)
Closing outfile out/Ml21-cache.bin...   0.000145 seconds
  1.035750 seconds (8.65 k allocations: 420.781 KiB)
make_phi():   0.015832 seconds (8.20 k allocations: 238.016 KiB)
  0.252244 seconds (121.79 k allocations: 5.904 MiB)
tskip:       2.2e-5 sec (0 allocations: 0 byte, 0.0% gc time)
tread:       0.002547 sec (19 allocations: 2.172 KB, 0.0% gc time)
tmultphi:    0.065267 sec (26.067 k allocations: 1.34 MB, 0.0% gc time)
tbrfft:      0.004372 sec (896 allocations: 42.0 KB, 0.0% gc time)
tmultprefac: 0.002763 sec (0 allocations: 0 byte, 0.0% gc time)
toutfunc:    0.177277 sec (94.159 k allocations: 4.452 MB, 0.0% gc time)
Testing R=1.1 ... passed
Calculating fmax: 
  dlrec    = 4
  dlrecRg1 = -4
  q=1.1, R=1.0:	  0.022695 seconds (4.00 k allocations: 300.375 KiB)

  0.029426 seconds (4.04 k allocations: 334.734 KiB)
ℓ = 1202
Δℓ = 4
ΔℓRg1 = -4
N = 1600
q = 1.1
kmin = 1.0e-5
kmax = 100000.00000000004
χ0 = 0.023029999999999995
RR = RR.tsv
ℓmax = ℓmax.bin
f21 = f21.bin
kmin = 1.0e-5
kmax = 100000.0
dlrec    = 4
dlrecRg1 = -4
Output size: 61465536 bytes = 0.05724424123764038 GiB
Output size: 51264 bytes = 4.774332046508789e-5 GiB
Reading 'out/F21EllCache'...   0.001304 seconds (267 allocations: 84.656 KiB)
ellmax: 1202
lmaxcache: 1202
fell[:,1,1] = Complex{Float64}[809.6031528389767 - 1.9829558194077161e-13im, 0.0 + 0.0im]
ell 1202, elapsed: 2.9087066650390625e-5
ell 1201, elapsed: 0.015051841735839844
ell 1200, elapsed: 0.0005140304565429688
ell 1199, elapsed: 0.0004780292510986328
ell 1198, elapsed: 0.0004930496215820312
ell 1197, elapsed: 0.0005199909210205078
ell 1196, elapsed: 0.0007469654083251953
ell 1195, elapsed: 0.0006229877471923828
ell 1194, elapsed: 0.0005309581756591797
ell 1193, elapsed: 0.0005929470062255859
ell 1192, elapsed: 0.0006470680236816406
ell 1191, elapsed: 0.0007939338684082031
ell 1190, elapsed: 0.0004980564117431641
ell 1189, elapsed: 0.0005869865417480469
ell 1188, elapsed: 0.0004868507385253906
ell 1187, elapsed: 0.0008389949798583984
ell 1186, elapsed: 0.0004642009735107422
ell 1185, elapsed: 0.0005390644073486328
ell 1184, elapsed: 0.0004930496215820312
ell 1183, elapsed: 0.000804901123046875
ell 1182, elapsed: 0.0007519721984863281
ell 1181, elapsed: 0.0006000995635986328
ell 1180, elapsed: 0.0006589889526367188
ell 1179, elapsed: 0.0005881786346435547
ell 1178, elapsed: 0.0004858970642089844
ell 1177, elapsed: 0.0007829666137695312
ell 1176, elapsed: 0.0004630088806152344
ell 1175, elapsed: 0.0007650852203369141
ell 1174, elapsed: 0.00047707557678222656
ell 1173, elapsed: 0.0006191730499267578
ell 1172, elapsed: 0.0006949901580810547
ell 1171, elapsed: 0.0008220672607421875
ell 1170, elapsed: 0.0006439685821533203
ell 1169, elapsed: 0.0008890628814697266
ell 1168, elapsed: 0.0005178451538085938
ell 1167, elapsed: 0.0008268356323242188
ell 1166, elapsed: 0.0007390975952148438
ell 1165, elapsed: 0.0005900859832763672
ell 1164, elapsed: 0.0004780292510986328
ell 1163, elapsed: 0.0005469322204589844
ell 1162, elapsed: 0.0004820823669433594
ell 1161, elapsed: 0.0006449222564697266
ell 1160, elapsed: 0.0007119178771972656
ell 1159, elapsed: 0.00080108642578125
ell 1158, elapsed: 0.0008008480072021484
ell 1157, elapsed: 0.0005800724029541016
ell 1156, elapsed: 0.0006818771362304688
ell 1155, elapsed: 0.0005600452423095703
ell 1154, elapsed: 0.0005609989166259766
ell 1153, elapsed: 0.000888824462890625
ell 1152, elapsed: 0.0004730224609375
ell 1151, elapsed: 0.0006208419799804688
ell 1150, elapsed: 0.0004930496215820312
ell 1149, elapsed: 0.0006778240203857422
ell 1148, elapsed: 0.0006268024444580078
ell 1147, elapsed: 0.0005710124969482422
ell 1146, elapsed: 0.0005350112915039062
ell 1145, elapsed: 0.0006780624389648438
ell 1144, elapsed: 0.0003910064697265625
ell 1143, elapsed: 0.0006210803985595703
ell 1142, elapsed: 0.0004730224609375
ell 1141, elapsed: 0.0004620552062988281
ell 1140, elapsed: 0.0005400180816650391
ell 1139, elapsed: 0.0006420612335205078
ell 1138, elapsed: 0.0005669593811035156
ell 1137, elapsed: 0.0007200241088867188
ell 1136, elapsed: 0.0004448890686035156
ell 1135, elapsed: 0.0006740093231201172
ell 1134, elapsed: 0.0006182193756103516
ell 1133, elapsed: 0.0006048679351806641
ell 1132, elapsed: 0.0004029273986816406
ell 1131, elapsed: 0.0006589889526367188
ell 1130, elapsed: 0.0006151199340820312
ell 1129, elapsed: 0.0007338523864746094
ell 1128, elapsed: 0.0006120204925537109
ell 1127, elapsed: 0.0006241798400878906
ell 1126, elapsed: 0.0004010200500488281
ell 1125, elapsed: 0.0004749298095703125
ell 1124, elapsed: 0.0005180835723876953
ell 1123, elapsed: 0.0006430149078369141
ell 1122, elapsed: 0.0005280971527099609
ell 1121, elapsed: 0.0006010532379150391
ell 1120, elapsed: 0.00038909912109375
ell 1119, elapsed: 0.0005950927734375
ell 1118, elapsed: 0.000614166259765625
ell 1117, elapsed: 0.0007300376892089844
ell 1116, elapsed: 0.0005259513854980469
ell 1115, elapsed: 0.0006530284881591797
ell 1114, elapsed: 0.00045299530029296875
ell 1113, elapsed: 0.000698089599609375
ell 1112, elapsed: 0.0004439353942871094
ell 1111, elapsed: 0.0006511211395263672
ell 1110, elapsed: 0.0006117820739746094
ell 1109, elapsed: 0.0006468296051025391
ell 1108, elapsed: 0.0005300045013427734
ell 1107, elapsed: 0.0007419586181640625
ell 1106, elapsed: 0.0004911422729492188
ell 1105, elapsed: 0.0005950927734375
ell 1104, elapsed: 0.0006079673767089844
ell 1103, elapsed: 0.0006470680236816406
ell 1102, elapsed: 0.000514984130859375
ell 1101, elapsed: 0.0007510185241699219
ell 1100, elapsed: 0.0004999637603759766
ell 1099, elapsed: 0.0004730224609375
ell 1098, elapsed: 0.0004620552062988281
ell 1097, elapsed: 0.0007081031799316406
ell 1096, elapsed: 0.0005879402160644531
ell 1095, elapsed: 0.0005829334259033203
ell 1094, elapsed: 0.0005371570587158203
ell 1093, elapsed: 0.0006079673767089844
ell 1092, elapsed: 0.0003809928894042969
ell 1091, elapsed: 0.0005807876586914062
ell 1090, elapsed: 0.0005040168762207031
ell 1089, elapsed: 0.0004699230194091797
ell 1088, elapsed: 0.0003859996795654297
ell 1087, elapsed: 0.0004749298095703125
ell 1086, elapsed: 0.0003998279571533203
ell 1085, elapsed: 0.00047087669372558594
ell 1084, elapsed: 0.0003910064697265625
ell 1083, elapsed: 0.0004839897155761719
ell 1082, elapsed: 0.0003871917724609375
ell 1081, elapsed: 0.0004830360412597656
ell 1080, elapsed: 0.00039196014404296875
ell 1079, elapsed: 0.0004830360412597656
ell 1078, elapsed: 0.0003979206085205078
ell 1077, elapsed: 0.000476837158203125
ell 1076, elapsed: 0.000392913818359375
ell 1075, elapsed: 0.0004680156707763672
ell 1074, elapsed: 0.00039196014404296875
ell 1073, elapsed: 0.00047397613525390625
ell 1072, elapsed: 0.00038909912109375
ell 1071, elapsed: 0.0004661083221435547
ell 1070, elapsed: 0.00039196014404296875
ell 1069, elapsed: 0.0004918575286865234
ell 1068, elapsed: 0.0003910064697265625
ell 1067, elapsed: 0.00048089027404785156
ell 1066, elapsed: 0.00038814544677734375
ell 1065, elapsed: 0.0004680156707763672
ell 1064, elapsed: 0.00038909912109375
ell 1063, elapsed: 0.0004780292510986328
ell 1062, elapsed: 0.00038909912109375
ell 1061, elapsed: 0.0004799365997314453
ell 1060, elapsed: 0.00039505958557128906
ell 1059, elapsed: 0.0004839897155761719
ell 1058, elapsed: 0.00039005279541015625
ell 1057, elapsed: 0.00047898292541503906
ell 1056, elapsed: 0.00039505958557128906
ell 1055, elapsed: 0.00047898292541503906
ell 1054, elapsed: 0.0004019737243652344
ell 1053, elapsed: 0.00047898292541503906
ell 1052, elapsed: 0.0004019737243652344
ell 1051, elapsed: 0.00047016143798828125
ell 1050, elapsed: 0.0003960132598876953
ell 1049, elapsed: 0.0004839897155761719
ell 1048, elapsed: 0.0005269050598144531
ell 1047, elapsed: 0.0005979537963867188
ell 1046, elapsed: 0.00040221214294433594
ell 1045, elapsed: 0.00047588348388671875
ell 1044, elapsed: 0.0004918575286865234
ell 1043, elapsed: 0.0006549358367919922
ell 1042, elapsed: 0.0003859996795654297
ell 1041, elapsed: 0.0005011558532714844
ell 1040, elapsed: 0.0003879070281982422
ell 1039, elapsed: 0.0006661415100097656
ell 1038, elapsed: 0.0004150867462158203
ell 1037, elapsed: 0.00046706199645996094
ell 1036, elapsed: 0.00037407875061035156
ell 1035, elapsed: 0.00048089027404785156
ell 1034, elapsed: 0.0005440711975097656
ell 1033, elapsed: 0.0005450248718261719
ell 1032, elapsed: 0.00038695335388183594
ell 1031, elapsed: 0.0006780624389648438
ell 1030, elapsed: 0.0006108283996582031
ell 1029, elapsed: 0.0006399154663085938
ell 1028, elapsed: 0.00039005279541015625
ell 1027, elapsed: 0.00048613548278808594
ell 1026, elapsed: 0.0003910064697265625
ell 1025, elapsed: 0.0006668567657470703
ell 1024, elapsed: 0.00046896934509277344
ell 1023, elapsed: 0.00047707557678222656
ell 1022, elapsed: 0.0004057884216308594
ell 1021, elapsed: 0.00047206878662109375
ell 1020, elapsed: 0.0003838539123535156
ell 1019, elapsed: 0.0004799365997314453
ell 1018, elapsed: 0.0003859996795654297
ell 1017, elapsed: 0.0004830360412597656
ell 1016, elapsed: 0.000392913818359375
ell 1015, elapsed: 0.0004780292510986328
ell 1014, elapsed: 0.00038814544677734375
ell 1013, elapsed: 0.0004839897155761719
ell 1012, elapsed: 0.0003941059112548828
ell 1011, elapsed: 0.0004820823669433594
ell 1010, elapsed: 0.0003840923309326172
ell 1009, elapsed: 0.0004699230194091797
ell 1008, elapsed: 0.00038909912109375
ell 1007, elapsed: 0.0004780292510986328
ell 1006, elapsed: 0.00039196014404296875
ell 1005, elapsed: 0.0004830360412597656
ell 1004, elapsed: 0.00038814544677734375
ell 1003, elapsed: 0.00047516822814941406
ell 1002, elapsed: 0.00038504600524902344
ell 1001, elapsed: 0.0004780292510986328
ell 1000, elapsed: 0.0003941059112548828
ell 999, elapsed: 0.00047206878662109375
ell 998, elapsed: 0.0003941059112548828
ell 997, elapsed: 0.000476837158203125
ell 996, elapsed: 0.00040602684020996094
ell 995, elapsed: 0.0004811286926269531
ell 994, elapsed: 0.00039196014404296875
ell 993, elapsed: 0.0004761219024658203
ell 992, elapsed: 0.00039196014404296875
ell 991, elapsed: 0.00046896934509277344
ell 990, elapsed: 0.0003859996795654297
ell 989, elapsed: 0.00047588348388671875
ell 988, elapsed: 0.00039005279541015625
ell 987, elapsed: 0.0004830360412597656
ell 986, elapsed: 0.0003960132598876953
ell 985, elapsed: 0.0004839897155761719
ell 984, elapsed: 0.00039005279541015625
ell 983, elapsed: 0.0004830360412597656
ell 982, elapsed: 0.00038909912109375
ell 981, elapsed: 0.00047588348388671875
ell 980, elapsed: 0.00039076805114746094
ell 979, elapsed: 0.0004889965057373047
ell 978, elapsed: 0.00039005279541015625
ell 977, elapsed: 0.0004780292510986328
ell 976, elapsed: 0.00039005279541015625
ell 975, elapsed: 0.0004811286926269531
ell 974, elapsed: 0.0003979206085205078
ell 973, elapsed: 0.0004761219024658203
ell 972, elapsed: 0.00038909912109375
ell 971, elapsed: 0.00048804283142089844
ell 970, elapsed: 0.0003910064697265625
ell 969, elapsed: 0.00047397613525390625
ell 968, elapsed: 0.00039196014404296875
ell 967, elapsed: 0.00047707557678222656
ell 966, elapsed: 0.00039696693420410156
ell 965, elapsed: 0.0004799365997314453
ell 964, elapsed: 0.00039696693420410156
ell 963, elapsed: 0.0004968643188476562
ell 962, elapsed: 0.00040793418884277344
ell 961, elapsed: 0.00047588348388671875
ell 960, elapsed: 0.0004420280456542969
ell 959, elapsed: 0.0006570816040039062
ell 958, elapsed: 0.0004000663757324219
ell 957, elapsed: 0.0004630088806152344
ell 956, elapsed: 0.0003840923309326172
ell 955, elapsed: 0.0004801750183105469
ell 954, elapsed: 0.0004048347473144531
ell 953, elapsed: 0.0004780292510986328
ell 952, elapsed: 0.0003879070281982422
ell 951, elapsed: 0.00047397613525390625
ell 950, elapsed: 0.0003941059112548828
ell 949, elapsed: 0.0006530284881591797
ell 948, elapsed: 0.00045180320739746094
ell 947, elapsed: 0.0006740093231201172
ell 946, elapsed: 0.0004949569702148438
ell 945, elapsed: 0.0007710456848144531
ell 944, elapsed: 0.0006198883056640625
ell 943, elapsed: 0.0006670951843261719
ell 942, elapsed: 0.0004019737243652344
ell 941, elapsed: 0.0004849433898925781
ell 940, elapsed: 0.0004069805145263672
ell 939, elapsed: 0.00047087669372558594
ell 938, elapsed: 0.0003910064697265625
ell 937, elapsed: 0.0005688667297363281
ell 936, elapsed: 0.0005271434783935547
ell 935, elapsed: 0.0004830360412597656
ell 934, elapsed: 0.0003948211669921875
ell 933, elapsed: 0.00047588348388671875
ell 932, elapsed: 0.00040912628173828125
ell 931, elapsed: 0.000476837158203125
ell 930, elapsed: 0.0003898143768310547
ell 929, elapsed: 0.0004699230194091797
ell 928, elapsed: 0.0003871917724609375
ell 927, elapsed: 0.0004799365997314453
ell 926, elapsed: 0.0004010200500488281
ell 925, elapsed: 0.0004780292510986328
ell 924, elapsed: 0.0005259513854980469
ell 923, elapsed: 0.0007450580596923828
ell 922, elapsed: 0.00043201446533203125
ell 921, elapsed: 0.00047898292541503906
ell 920, elapsed: 0.0003948211669921875
ell 919, elapsed: 0.00046896934509277344
ell 918, elapsed: 0.0003829002380371094
ell 917, elapsed: 0.00047397613525390625
ell 916, elapsed: 0.0004010200500488281
ell 915, elapsed: 0.00047206878662109375
ell 914, elapsed: 0.0005030632019042969
ell 913, elapsed: 0.0007240772247314453
ell 912, elapsed: 0.00046706199645996094
ell 911, elapsed: 0.0004749298095703125
ell 910, elapsed: 0.00039196014404296875
ell 909, elapsed: 0.00047397613525390625
ell 908, elapsed: 0.0004069805145263672
ell 907, elapsed: 0.00047588348388671875
ell 906, elapsed: 0.00039505958557128906
ell 905, elapsed: 0.0004780292510986328
ell 904, elapsed: 0.0005099773406982422
ell 903, elapsed: 0.0006070137023925781
ell 902, elapsed: 0.00038909912109375
ell 901, elapsed: 0.0006549358367919922
ell 900, elapsed: 0.00047087669372558594
ell 899, elapsed: 0.0006248950958251953
ell 898, elapsed: 0.0006020069122314453
ell 897, elapsed: 0.0005810260772705078
ell 896, elapsed: 0.0004839897155761719
ell 895, elapsed: 0.0007197856903076172
ell 894, elapsed: 0.0006108283996582031
ell 893, elapsed: 0.0005519390106201172
ell 892, elapsed: 0.0004029273986816406
ell 891, elapsed: 0.0004799365997314453
ell 890, elapsed: 0.0003979206085205078
ell 889, elapsed: 0.0004801750183105469
ell 888, elapsed: 0.0004870891571044922
ell 887, elapsed: 0.0007491111755371094
ell 886, elapsed: 0.0004949569702148438
ell 885, elapsed: 0.0004799365997314453
ell 884, elapsed: 0.00039505958557128906
ell 883, elapsed: 0.0004820823669433594
ell 882, elapsed: 0.00039696693420410156
ell 881, elapsed: 0.00047397613525390625
ell 880, elapsed: 0.00038909912109375
ell 879, elapsed: 0.0005919933319091797
ell 878, elapsed: 0.000514984130859375
ell 877, elapsed: 0.0006561279296875
ell 876, elapsed: 0.0006048679351806641
ell 875, elapsed: 0.0006480216979980469
ell 874, elapsed: 0.0005319118499755859
ell 873, elapsed: 0.0007472038269042969
ell 872, elapsed: 0.0006101131439208984
ell 871, elapsed: 0.000659942626953125
ell 870, elapsed: 0.0005159378051757812
ell 869, elapsed: 0.0006389617919921875
ell 868, elapsed: 0.00039005279541015625
ell 867, elapsed: 0.00047898292541503906
ell 866, elapsed: 0.0004119873046875
ell 865, elapsed: 0.0004818439483642578
ell 864, elapsed: 0.0003921985626220703
ell 863, elapsed: 0.0004818439483642578
ell 862, elapsed: 0.0005431175231933594
ell 861, elapsed: 0.0007500648498535156
ell 860, elapsed: 0.0004220008850097656
ell 859, elapsed: 0.0006921291351318359
ell 858, elapsed: 0.0005240440368652344
ell 857, elapsed: 0.0007529258728027344
ell 856, elapsed: 0.0006220340728759766
ell 855, elapsed: 0.0005819797515869141
ell 854, elapsed: 0.0005340576171875
ell 853, elapsed: 0.0007531642913818359
ell 852, elapsed: 0.0005030632019042969
ell 851, elapsed: 0.0006630420684814453
ell 850, elapsed: 0.0006089210510253906
ell 849, elapsed: 0.0007379055023193359
ell 848, elapsed: 0.0005431175231933594
ell 847, elapsed: 0.0007941722869873047
ell 846, elapsed: 0.0005750656127929688
ell 845, elapsed: 0.0006098747253417969
ell 844, elapsed: 0.0005278587341308594
ell 843, elapsed: 0.0007350444793701172
ell 842, elapsed: 0.0004570484161376953
ell 841, elapsed: 0.0004780292510986328
ell 840, elapsed: 0.00039196014404296875
ell 839, elapsed: 0.0004820823669433594
ell 838, elapsed: 0.0003910064697265625
ell 837, elapsed: 0.0006260871887207031
ell 836, elapsed: 0.00048613548278808594
ell 835, elapsed: 0.0006580352783203125
ell 834, elapsed: 0.0006079673767089844
ell 833, elapsed: 0.0006210803985595703
ell 832, elapsed: 0.000492095947265625
ell 831, elapsed: 0.0007340908050537109
ell 830, elapsed: 0.0004699230194091797
ell 829, elapsed: 0.00047588348388671875
ell 828, elapsed: 0.0005118846893310547
ell 827, elapsed: 0.0007488727569580078
ell 826, elapsed: 0.0006151199340820312
ell 825, elapsed: 0.00074005126953125
ell 824, elapsed: 0.0006129741668701172
ell 823, elapsed: 0.0006449222564697266
ell 822, elapsed: 0.0003840923309326172
ell 821, elapsed: 0.0004718303680419922
ell 820, elapsed: 0.0004031658172607422
ell 819, elapsed: 0.0006091594696044922
ell 818, elapsed: 0.0006070137023925781
ell 817, elapsed: 0.0007190704345703125
ell 816, elapsed: 0.0006051063537597656
ell 815, elapsed: 0.0007288455963134766
ell 814, elapsed: 0.0005462169647216797
ell 813, elapsed: 0.00046181678771972656
ell 812, elapsed: 0.0003800392150878906
ell 811, elapsed: 0.0006668567657470703
ell 810, elapsed: 0.0006098747253417969
ell 809, elapsed: 0.0007340908050537109
ell 808, elapsed: 0.0006330013275146484
ell 807, elapsed: 0.0007488727569580078
ell 806, elapsed: 0.00043582916259765625
ell 805, elapsed: 0.0006201267242431641
ell 804, elapsed: 0.0006160736083984375
ell 803, elapsed: 0.0005590915679931641
ell 802, elapsed: 0.0004611015319824219
ell 801, elapsed: 0.0007560253143310547
ell 800, elapsed: 0.0005218982696533203
ell 799, elapsed: 0.0004799365997314453
ell 798, elapsed: 0.0003910064697265625
ell 797, elapsed: 0.0004761219024658203
ell 796, elapsed: 0.0003960132598876953
ell 795, elapsed: 0.0006380081176757812
ell 794, elapsed: 0.0004820823669433594
ell 793, elapsed: 0.00047087669372558594
ell 792, elapsed: 0.0005497932434082031
ell 791, elapsed: 0.0007278919219970703
ell 790, elapsed: 0.0005340576171875
ell 789, elapsed: 0.0006248950958251953
ell 788, elapsed: 0.0005800724029541016
ell 787, elapsed: 0.0006000995635986328
ell 786, elapsed: 0.0003910064697265625
ell 785, elapsed: 0.0006630420684814453
ell 784, elapsed: 0.0005438327789306641
ell 783, elapsed: 0.0006320476531982422
ell 782, elapsed: 0.0005109310150146484
ell 781, elapsed: 0.0006539821624755859
ell 780, elapsed: 0.00039505958557128906
ell 779, elapsed: 0.0004780292510986328
ell 778, elapsed: 0.0003941059112548828
ell 777, elapsed: 0.0006070137023925781
ell 776, elapsed: 0.0004990100860595703
ell 775, elapsed: 0.0004830360412597656
ell 774, elapsed: 0.00037097930908203125
ell 773, elapsed: 0.0006198883056640625
ell 772, elapsed: 0.0005109310150146484
ell 771, elapsed: 0.00047898292541503906
ell 770, elapsed: 0.0005681514739990234
ell 769, elapsed: 0.000553131103515625
ell 768, elapsed: 0.00039196014404296875
ell 767, elapsed: 0.000614166259765625
ell 766, elapsed: 0.0005061626434326172
ell 765, elapsed: 0.0006639957427978516
ell 764, elapsed: 0.0004448890686035156
ell 763, elapsed: 0.0004801750183105469
ell 762, elapsed: 0.00039196014404296875
ell 761, elapsed: 0.0004870891571044922
ell 760, elapsed: 0.0005359649658203125
ell 759, elapsed: 0.0005850791931152344
ell 758, elapsed: 0.0005600452423095703
ell 757, elapsed: 0.0006551742553710938
ell 756, elapsed: 0.00039005279541015625
ell 755, elapsed: 0.0004799365997314453
ell 754, elapsed: 0.0003921985626220703
ell 753, elapsed: 0.0004780292510986328
ell 752, elapsed: 0.0003921985626220703
ell 751, elapsed: 0.000888824462890625
ell 750, elapsed: 0.000392913818359375
ell 749, elapsed: 0.0004858970642089844
ell 748, elapsed: 0.00047087669372558594
ell 747, elapsed: 0.0006461143493652344
ell 746, elapsed: 0.000537872314453125
ell 745, elapsed: 0.0005929470062255859
ell 744, elapsed: 0.00036716461181640625
ell 743, elapsed: 0.00043892860412597656
ell 742, elapsed: 0.00036406517028808594
ell 741, elapsed: 0.0004379749298095703
ell 740, elapsed: 0.0003619194030761719
ell 739, elapsed: 0.00043392181396484375
ell 738, elapsed: 0.00036406517028808594
ell 737, elapsed: 0.00043511390686035156
ell 736, elapsed: 0.0003600120544433594
ell 735, elapsed: 0.0004899501800537109
ell 734, elapsed: 0.00036406517028808594
ell 733, elapsed: 0.0004680156707763672
ell 732, elapsed: 0.00037407875061035156
ell 731, elapsed: 0.00045299530029296875
ell 730, elapsed: 0.0003731250762939453
ell 729, elapsed: 0.0005900859832763672
ell 728, elapsed: 0.0005908012390136719
ell 727, elapsed: 0.0006098747253417969
ell 726, elapsed: 0.0005238056182861328
ell 725, elapsed: 0.0005419254302978516
ell 724, elapsed: 0.00038695335388183594
ell 723, elapsed: 0.0006079673767089844
ell 722, elapsed: 0.00046706199645996094
ell 721, elapsed: 0.0007381439208984375
ell 720, elapsed: 0.0003998279571533203
ell 719, elapsed: 0.000598907470703125
ell 718, elapsed: 0.0005078315734863281
ell 717, elapsed: 0.00042510032653808594
ell 716, elapsed: 0.0003108978271484375
ell 715, elapsed: 0.00043892860412597656
ell 714, elapsed: 0.0003528594970703125
ell 713, elapsed: 0.0005340576171875
ell 712, elapsed: 0.0004601478576660156
ell 711, elapsed: 0.0004661083221435547
ell 710, elapsed: 0.0004830360412597656
ell 709, elapsed: 0.0006070137023925781
ell 708, elapsed: 0.0003190040588378906
ell 707, elapsed: 0.0003800392150878906
ell 706, elapsed: 0.0003020763397216797
ell 705, elapsed: 0.00041413307189941406
ell 704, elapsed: 0.0005309581756591797
ell 703, elapsed: 0.0007588863372802734
ell 702, elapsed: 0.0006549358367919922
ell 701, elapsed: 0.0006589889526367188
ell 700, elapsed: 0.00041794776916503906
ell 699, elapsed: 0.0007090568542480469
ell 698, elapsed: 0.0004858970642089844
ell 697, elapsed: 0.0007557868957519531
ell 696, elapsed: 0.0006399154663085938
ell 695, elapsed: 0.0006558895111083984
ell 694, elapsed: 0.00067901611328125
ell 693, elapsed: 0.00043082237243652344
ell 692, elapsed: 0.00030303001403808594
ell 691, elapsed: 0.0003669261932373047
ell 690, elapsed: 0.0002999305725097656
ell 689, elapsed: 0.0003609657287597656
ell 688, elapsed: 0.00030612945556640625
ell 687, elapsed: 0.00035309791564941406
ell 686, elapsed: 0.0003452301025390625
ell 685, elapsed: 0.0005190372467041016
ell 684, elapsed: 0.0004451274871826172
ell 683, elapsed: 0.0005280971527099609
ell 682, elapsed: 0.0004360675811767578
ell 681, elapsed: 0.0004520416259765625
ell 680, elapsed: 0.00037097930908203125
ell 679, elapsed: 0.00044989585876464844
ell 678, elapsed: 0.00037288665771484375
ell 677, elapsed: 0.0004429817199707031
ell 676, elapsed: 0.0003910064697265625
ell 675, elapsed: 0.0005071163177490234
ell 674, elapsed: 0.0004398822784423828
ell 673, elapsed: 0.0004999637603759766
ell 672, elapsed: 0.0004100799560546875
ell 671, elapsed: 0.00045800209045410156
ell 670, elapsed: 0.00040793418884277344
ell 669, elapsed: 0.0004909038543701172
ell 668, elapsed: 0.0004470348358154297
ell 667, elapsed: 0.0004980564117431641
ell 666, elapsed: 0.0004019737243652344
ell 665, elapsed: 0.0005300045013427734
ell 664, elapsed: 0.0004470348358154297
ell 663, elapsed: 0.0004971027374267578
ell 662, elapsed: 0.00045108795166015625
ell 661, elapsed: 0.0005550384521484375
ell 660, elapsed: 0.0004391670227050781
ell 659, elapsed: 0.0004801750183105469
ell 658, elapsed: 0.0004019737243652344
ell 657, elapsed: 0.0004830360412597656
ell 656, elapsed: 0.0004038810729980469
ell 655, elapsed: 0.0004830360412597656
ell 654, elapsed: 0.00040411949157714844
ell 653, elapsed: 0.0005090236663818359
ell 652, elapsed: 0.00045108795166015625
ell 651, elapsed: 0.0005350112915039062
ell 650, elapsed: 0.0003800392150878906
ell 649, elapsed: 0.0005118846893310547
ell 648, elapsed: 0.00036907196044921875
ell 647, elapsed: 0.0005190372467041016
ell 646, elapsed: 0.00043582916259765625
ell 645, elapsed: 0.0007870197296142578
ell 644, elapsed: 0.0004189014434814453
ell 643, elapsed: 0.0004999637603759766
ell 642, elapsed: 0.0004420280456542969
ell 641, elapsed: 0.0004951953887939453
ell 640, elapsed: 0.0004839897155761719
ell 639, elapsed: 0.0005271434783935547
ell 638, elapsed: 0.0004131793975830078
ell 637, elapsed: 0.0005171298980712891
ell 636, elapsed: 0.0004858970642089844
ell 635, elapsed: 0.0005130767822265625
ell 634, elapsed: 0.0004949569702148438
ell 633, elapsed: 0.0005228519439697266
ell 632, elapsed: 0.00048089027404785156
ell 631, elapsed: 0.0005381107330322266
ell 630, elapsed: 0.00047016143798828125
ell 629, elapsed: 0.0005629062652587891
ell 628, elapsed: 0.00048089027404785156
ell 627, elapsed: 0.0005838871002197266
ell 626, elapsed: 0.0004820823669433594
ell 625, elapsed: 0.0005791187286376953
ell 624, elapsed: 0.0004830360412597656
ell 623, elapsed: 0.0005609989166259766
ell 622, elapsed: 0.0004801750183105469
ell 621, elapsed: 0.0005741119384765625
ell 620, elapsed: 0.0004799365997314453
ell 619, elapsed: 0.0005679130554199219
ell 618, elapsed: 0.00046896934509277344
ell 617, elapsed: 0.0005559921264648438
ell 616, elapsed: 0.0004138946533203125
ell 615, elapsed: 0.0004940032958984375
ell 614, elapsed: 0.00041103363037109375
ell 613, elapsed: 0.00049591064453125
ell 612, elapsed: 0.00041484832763671875
ell 611, elapsed: 0.0005118846893310547
ell 610, elapsed: 0.0004558563232421875
ell 609, elapsed: 0.000514984130859375
ell 608, elapsed: 0.0004010200500488281
ell 607, elapsed: 0.0005171298980712891
ell 606, elapsed: 0.0003998279571533203
ell 605, elapsed: 0.00047397613525390625
ell 604, elapsed: 0.0004420280456542969
ell 603, elapsed: 0.0005929470062255859
ell 602, elapsed: 0.0005159378051757812
ell 601, elapsed: 0.0006430149078369141
ell 600, elapsed: 0.0004851818084716797
ell 599, elapsed: 0.0006151199340820312
ell 598, elapsed: 0.0004980564117431641
ell 597, elapsed: 0.0007059574127197266
ell 596, elapsed: 0.0004520416259765625
ell 595, elapsed: 0.0007719993591308594
ell 594, elapsed: 0.0004570484161376953
ell 593, elapsed: 0.0005218982696533203
ell 592, elapsed: 0.0004801750183105469
ell 591, elapsed: 0.0005550384521484375
ell 590, elapsed: 0.0004820823669433594
ell 589, elapsed: 0.0005528926849365234
ell 588, elapsed: 0.00044798851013183594
ell 587, elapsed: 0.0005271434783935547
ell 586, elapsed: 0.0004448890686035156
ell 585, elapsed: 0.0005228519439697266
ell 584, elapsed: 0.0004420280456542969
ell 583, elapsed: 0.0005249977111816406
ell 582, elapsed: 0.0004551410675048828
ell 581, elapsed: 0.0005261898040771484
ell 580, elapsed: 0.0004429817199707031
ell 579, elapsed: 0.0005290508270263672
ell 578, elapsed: 0.0004439353942871094
ell 577, elapsed: 0.0005240440368652344
ell 576, elapsed: 0.00044608116149902344
ell 575, elapsed: 0.0005309581756591797
ell 574, elapsed: 0.00045013427734375
ell 573, elapsed: 0.0005559921264648438
ell 572, elapsed: 0.0004520416259765625
ell 571, elapsed: 0.0005950927734375
ell 570, elapsed: 0.00045490264892578125
ell 569, elapsed: 0.0005390644073486328
ell 568, elapsed: 0.0004520416259765625
ell 567, elapsed: 0.0005431175231933594
ell 566, elapsed: 0.00045299530029296875
ell 565, elapsed: 0.000537872314453125
ell 564, elapsed: 0.00045013427734375
ell 563, elapsed: 0.0005719661712646484
ell 562, elapsed: 0.00047707557678222656
ell 561, elapsed: 0.0005049705505371094
ell 560, elapsed: 0.0004401206970214844
ell 559, elapsed: 0.0005590915679931641
ell 558, elapsed: 0.0004611015319824219
ell 557, elapsed: 0.0005240440368652344
ell 556, elapsed: 0.0004382133483886719
ell 555, elapsed: 0.0005240440368652344
ell 554, elapsed: 0.0004489421844482422
ell 553, elapsed: 0.0005168914794921875
ell 552, elapsed: 0.00043082237243652344
ell 551, elapsed: 0.0005211830139160156
ell 550, elapsed: 0.0004329681396484375
ell 549, elapsed: 0.0005168914794921875
ell 548, elapsed: 0.0004367828369140625
ell 547, elapsed: 0.0005171298980712891
ell 546, elapsed: 0.0004439353942871094
ell 545, elapsed: 0.0005140304565429688
ell 544, elapsed: 0.0004341602325439453
ell 543, elapsed: 0.0005209445953369141
ell 542, elapsed: 0.00044798851013183594
ell 541, elapsed: 0.0005109310150146484
ell 540, elapsed: 0.000431060791015625
ell 539, elapsed: 0.0005118846893310547
ell 538, elapsed: 0.00043392181396484375
ell 537, elapsed: 0.0005419254302978516
ell 536, elapsed: 0.0005118846893310547
ell 535, elapsed: 0.0005359649658203125
ell 534, elapsed: 0.00046896934509277344
ell 533, elapsed: 0.0005350112915039062
ell 532, elapsed: 0.00045299530029296875
ell 531, elapsed: 0.0005300045013427734
ell 530, elapsed: 0.00047087669372558594
ell 529, elapsed: 0.0005180835723876953
ell 528, elapsed: 0.0005109310150146484
ell 527, elapsed: 0.0005528926849365234
ell 526, elapsed: 0.0004329681396484375
ell 525, elapsed: 0.0005481243133544922
ell 524, elapsed: 0.0004439353942871094
ell 523, elapsed: 0.0005400180816650391
ell 522, elapsed: 0.00045013427734375
ell 521, elapsed: 0.0005371570587158203
ell 520, elapsed: 0.00043201446533203125
ell 519, elapsed: 0.0005960464477539062
ell 518, elapsed: 0.00043201446533203125
ell 517, elapsed: 0.000614166259765625
ell 516, elapsed: 0.00051116943359375
ell 515, elapsed: 0.0006299018859863281
ell 514, elapsed: 0.0005199909210205078
ell 513, elapsed: 0.0005869865417480469
ell 512, elapsed: 0.0007870197296142578
ell 511, elapsed: 0.0008368492126464844
ell 510, elapsed: 0.0005190372467041016
ell 509, elapsed: 0.00061798095703125
ell 508, elapsed: 0.0004649162292480469
ell 507, elapsed: 0.0005481243133544922
ell 506, elapsed: 0.0004668235778808594
ell 505, elapsed: 0.0005559921264648438
ell 504, elapsed: 0.0004661083221435547
ell 503, elapsed: 0.0005450248718261719
ell 502, elapsed: 0.0004630088806152344
ell 501, elapsed: 0.0006120204925537109
ell 500, elapsed: 0.00051116943359375
ell 499, elapsed: 0.0004100799560546875
ell 498, elapsed: 0.0006299018859863281
ell 497, elapsed: 0.0004181861877441406
ell 496, elapsed: 0.0003020763397216797
ell 495, elapsed: 0.0003619194030761719
ell 494, elapsed: 0.0002980232238769531
ell 493, elapsed: 0.0004620552062988281
ell 492, elapsed: 0.0003390312194824219
ell 491, elapsed: 0.000370025634765625
ell 490, elapsed: 0.00032591819763183594
ell 489, elapsed: 0.00046181678771972656
ell 488, elapsed: 0.00034809112548828125
ell 487, elapsed: 0.0004830360412597656
ell 486, elapsed: 0.0004019737243652344
ell 485, elapsed: 0.00047707557678222656
ell 484, elapsed: 0.00041103363037109375
ell 483, elapsed: 0.0004138946533203125
ell 482, elapsed: 0.0003101825714111328
ell 481, elapsed: 0.00038313865661621094
ell 480, elapsed: 0.0002999305725097656
ell 479, elapsed: 0.00048804283142089844
ell 478, elapsed: 0.0003960132598876953
ell 477, elapsed: 0.0004711151123046875
ell 476, elapsed: 0.0004019737243652344
ell 475, elapsed: 0.0004870891571044922
ell 474, elapsed: 0.00039386749267578125
ell 473, elapsed: 0.0004830360412597656
ell 472, elapsed: 0.0004100799560546875
ell 471, elapsed: 0.0004889965057373047
ell 470, elapsed: 0.0004000663757324219
ell 469, elapsed: 0.00049591064453125
ell 468, elapsed: 0.0004429817199707031
ell 467, elapsed: 0.0005311965942382812
ell 466, elapsed: 0.00043702125549316406
ell 465, elapsed: 0.0005469322204589844
ell 464, elapsed: 0.0004398822784423828
ell 463, elapsed: 0.0005340576171875
ell 462, elapsed: 0.0005371570587158203
ell 461, elapsed: 0.0006740093231201172
ell 460, elapsed: 0.0003998279571533203
ell 459, elapsed: 0.00048804283142089844
ell 458, elapsed: 0.0003979206085205078
ell 457, elapsed: 0.00048804283142089844
ell 456, elapsed: 0.00039005279541015625
ell 455, elapsed: 0.0004761219024658203
ell 454, elapsed: 0.0003960132598876953
ell 453, elapsed: 0.0004811286926269531
ell 452, elapsed: 0.0003979206085205078
ell 451, elapsed: 0.0004839897155761719
ell 450, elapsed: 0.0003948211669921875
ell 449, elapsed: 0.00047779083251953125
ell 448, elapsed: 0.0004048347473144531
ell 447, elapsed: 0.0005030632019042969
ell 446, elapsed: 0.0004107952117919922
ell 445, elapsed: 0.0005240440368652344
ell 444, elapsed: 0.0004360675811767578
ell 443, elapsed: 0.0005338191986083984
ell 442, elapsed: 0.0004367828369140625
ell 441, elapsed: 0.0005269050598144531
ell 440, elapsed: 0.0004470348358154297
ell 439, elapsed: 0.0005271434783935547
ell 438, elapsed: 0.0004379749298095703
ell 437, elapsed: 0.0005290508270263672
ell 436, elapsed: 0.0004391670227050781
ell 435, elapsed: 0.0005218982696533203
ell 434, elapsed: 0.0004401206970214844
ell 433, elapsed: 0.0005259513854980469
ell 432, elapsed: 0.00043892860412597656
ell 431, elapsed: 0.0005300045013427734
ell 430, elapsed: 0.0004382133483886719
ell 429, elapsed: 0.0005350112915039062
ell 428, elapsed: 0.0004379749298095703
ell 427, elapsed: 0.0005321502685546875
ell 426, elapsed: 0.00043892860412597656
ell 425, elapsed: 0.0005469322204589844
ell 424, elapsed: 0.0004382133483886719
ell 423, elapsed: 0.0005261898040771484
ell 422, elapsed: 0.00043702125549316406
ell 421, elapsed: 0.0005028247833251953
ell 420, elapsed: 0.0005090236663818359
ell 419, elapsed: 0.0006890296936035156
ell 418, elapsed: 0.0004379749298095703
ell 417, elapsed: 0.0005519390106201172
ell 416, elapsed: 0.0004398822784423828
ell 415, elapsed: 0.0005350112915039062
ell 414, elapsed: 0.0004379749298095703
ell 413, elapsed: 0.0004799365997314453
ell 412, elapsed: 0.0004429817199707031
ell 411, elapsed: 0.0005371570587158203
ell 410, elapsed: 0.00044798851013183594
ell 409, elapsed: 0.0005230903625488281
ell 408, elapsed: 0.0004429817199707031
ell 407, elapsed: 0.0005359649658203125
ell 406, elapsed: 0.0004410743713378906
ell 405, elapsed: 0.0005371570587158203
ell 404, elapsed: 0.00044083595275878906
ell 403, elapsed: 0.0005331039428710938
ell 402, elapsed: 0.00044989585876464844
ell 401, elapsed: 0.0005309581756591797
ell 400, elapsed: 0.00043892860412597656
ell 399, elapsed: 0.0005340576171875
ell 398, elapsed: 0.00043487548828125
ell 397, elapsed: 0.0005338191986083984
ell 396, elapsed: 0.0004391670227050781
ell 395, elapsed: 0.0005359649658203125
ell 394, elapsed: 0.0004489421844482422
ell 393, elapsed: 0.0005390644073486328
ell 392, elapsed: 0.00043892860412597656
ell 391, elapsed: 0.0005240440368652344
ell 390, elapsed: 0.0004410743713378906
ell 389, elapsed: 0.0005350112915039062
ell 388, elapsed: 0.0004410743713378906
ell 387, elapsed: 0.0005619525909423828
ell 386, elapsed: 0.0004379749298095703
ell 385, elapsed: 0.0005309581756591797
ell 384, elapsed: 0.00043892860412597656
ell 383, elapsed: 0.0005440711975097656
ell 382, elapsed: 0.0004398822784423828
ell 381, elapsed: 0.0005221366882324219
ell 380, elapsed: 0.0004379749298095703
ell 379, elapsed: 0.0005409717559814453
ell 378, elapsed: 0.0006239414215087891
ell 377, elapsed: 0.0008170604705810547
ell 376, elapsed: 0.0006730556488037109
ell 375, elapsed: 0.0008058547973632812
ell 374, elapsed: 0.0006890296936035156
ell 373, elapsed: 0.0008180141448974609
ell 372, elapsed: 0.00055694580078125
ell 371, elapsed: 0.0007288455963134766
ell 370, elapsed: 0.0007040500640869141
ell 369, elapsed: 0.0008230209350585938
ell 368, elapsed: 0.0005519390106201172
ell 367, elapsed: 0.0007410049438476562
ell 366, elapsed: 0.0005640983581542969
ell 365, elapsed: 0.0007791519165039062
ell 364, elapsed: 0.0004520416259765625
ell 363, elapsed: 0.0005431175231933594
ell 362, elapsed: 0.000453948974609375
ell 361, elapsed: 0.0005278587341308594
ell 360, elapsed: 0.0004401206970214844
ell 359, elapsed: 0.0005240440368652344
ell 358, elapsed: 0.00043892860412597656
ell 357, elapsed: 0.0005309581756591797
ell 356, elapsed: 0.0004398822784423828
ell 355, elapsed: 0.0005290508270263672
ell 354, elapsed: 0.0004398822784423828
ell 353, elapsed: 0.0005300045013427734
ell 352, elapsed: 0.0004401206970214844
ell 351, elapsed: 0.0007359981536865234
ell 350, elapsed: 0.0004630088806152344
ell 349, elapsed: 0.0005238056182861328
ell 348, elapsed: 0.0004401206970214844
ell 347, elapsed: 0.0005388259887695312
ell 346, elapsed: 0.0005919933319091797
ell 345, elapsed: 0.0006051063537597656
ell 344, elapsed: 0.0004420280456542969
ell 343, elapsed: 0.0005319118499755859
ell 342, elapsed: 0.0004420280456542969
ell 341, elapsed: 0.0005271434783935547
ell 340, elapsed: 0.00044989585876464844
ell 339, elapsed: 0.0005328655242919922
ell 338, elapsed: 0.0004391670227050781
ell 337, elapsed: 0.0005271434783935547
ell 336, elapsed: 0.0006229877471923828
ell 335, elapsed: 0.0007050037384033203
ell 334, elapsed: 0.00043892860412597656
ell 333, elapsed: 0.0005409717559814453
ell 332, elapsed: 0.00043702125549316406
ell 331, elapsed: 0.0006210803985595703
ell 330, elapsed: 0.0006890296936035156
ell 329, elapsed: 0.00080108642578125
ell 328, elapsed: 0.00046515464782714844
ell 327, elapsed: 0.0007879734039306641
ell 326, elapsed: 0.0006129741668701172
ell 325, elapsed: 0.0005350112915039062
ell 324, elapsed: 0.0004379749298095703
ell 323, elapsed: 0.0005328655242919922
ell 322, elapsed: 0.0004401206970214844
ell 321, elapsed: 0.0006289482116699219
ell 320, elapsed: 0.000659942626953125
ell 319, elapsed: 0.0007929801940917969
ell 318, elapsed: 0.00047087669372558594
ell 317, elapsed: 0.0005290508270263672
ell 316, elapsed: 0.0005061626434326172
ell 315, elapsed: 0.0007960796356201172
ell 314, elapsed: 0.0006730556488037109
ell 313, elapsed: 0.0007159709930419922
ell 312, elapsed: 0.00044083595275878906
ell 311, elapsed: 0.0005340576171875
ell 310, elapsed: 0.0004420280456542969
ell 309, elapsed: 0.0005280971527099609
ell 308, elapsed: 0.00043892860412597656
ell 307, elapsed: 0.0005419254302978516
ell 306, elapsed: 0.0005309581756591797
ell 305, elapsed: 0.0007801055908203125
ell 304, elapsed: 0.0006489753723144531
ell 303, elapsed: 0.0007929801940917969
ell 302, elapsed: 0.0005230903625488281
ell 301, elapsed: 0.0008001327514648438
ell 300, elapsed: 0.0006210803985595703
ell 299, elapsed: 0.0007929801940917969
ell 298, elapsed: 0.0004749298095703125
ell 297, elapsed: 0.0005419254302978516
ell 296, elapsed: 0.00043892860412597656
ell 295, elapsed: 0.0006060600280761719
ell 294, elapsed: 0.0004401206970214844
ell 293, elapsed: 0.0005309581756591797
ell 292, elapsed: 0.0004379749298095703
ell 291, elapsed: 0.0005309581756591797
ell 290, elapsed: 0.0004401206970214844
ell 289, elapsed: 0.0005311965942382812
ell 288, elapsed: 0.00044083595275878906
ell 287, elapsed: 0.0005381107330322266
ell 286, elapsed: 0.00043892860412597656
ell 285, elapsed: 0.0005350112915039062
ell 284, elapsed: 0.0004379749298095703
ell 283, elapsed: 0.0005280971527099609
ell 282, elapsed: 0.0004401206970214844
ell 281, elapsed: 0.0005228519439697266
ell 280, elapsed: 0.0004470348358154297
ell 279, elapsed: 0.0005259513854980469
ell 278, elapsed: 0.0004379749298095703
ell 277, elapsed: 0.0005249977111816406
ell 276, elapsed: 0.0004360675811767578
ell 275, elapsed: 0.0005269050598144531
ell 274, elapsed: 0.0004379749298095703
ell 273, elapsed: 0.0005209445953369141
ell 272, elapsed: 0.00044798851013183594
ell 271, elapsed: 0.0005259513854980469
ell 270, elapsed: 0.0004379749298095703
ell 269, elapsed: 0.0005300045013427734
ell 268, elapsed: 0.0004410743713378906
ell 267, elapsed: 0.0005280971527099609
ell 266, elapsed: 0.00043892860412597656
ell 265, elapsed: 0.0005280971527099609
ell 264, elapsed: 0.0004508495330810547
ell 263, elapsed: 0.0005230903625488281
ell 262, elapsed: 0.0004398822784423828
ell 261, elapsed: 0.0005278587341308594
ell 260, elapsed: 0.0004410743713378906
ell 259, elapsed: 0.0005350112915039062
ell 258, elapsed: 0.00044083595275878906
ell 257, elapsed: 0.0005350112915039062
ell 256, elapsed: 0.0004401206970214844
ell 255, elapsed: 0.0005271434783935547
ell 254, elapsed: 0.0004398822784423828
ell 253, elapsed: 0.0005288124084472656
ell 252, elapsed: 0.0004401206970214844
ell 251, elapsed: 0.0005249977111816406
ell 250, elapsed: 0.0004379749298095703
ell 249, elapsed: 0.0005300045013427734
ell 248, elapsed: 0.0004429817199707031
ell 247, elapsed: 0.0005319118499755859
ell 246, elapsed: 0.0004410743713378906
ell 245, elapsed: 0.0005390644073486328
ell 244, elapsed: 0.0006299018859863281
ell 243, elapsed: 0.0005970001220703125
ell 242, elapsed: 0.0004398822784423828
ell 241, elapsed: 0.0005159378051757812
ell 240, elapsed: 0.0004398822784423828
ell 239, elapsed: 0.0005381107330322266
ell 238, elapsed: 0.0004410743713378906
ell 237, elapsed: 0.0005278587341308594
ell 236, elapsed: 0.0004391670227050781
ell 235, elapsed: 0.0005280971527099609
ell 234, elapsed: 0.0004520416259765625
ell 233, elapsed: 0.0005290508270263672
ell 232, elapsed: 0.00044083595275878906
ell 231, elapsed: 0.0005269050598144531
ell 230, elapsed: 0.0004391670227050781
ell 229, elapsed: 0.0005280971527099609
ell 228, elapsed: 0.00043702125549316406
ell 227, elapsed: 0.0005300045013427734
ell 226, elapsed: 0.0004699230194091797
ell 225, elapsed: 0.0005300045013427734
ell 224, elapsed: 0.00043892860412597656
ell 223, elapsed: 0.0005359649658203125
ell 222, elapsed: 0.0004398822784423828
ell 221, elapsed: 0.0005199909210205078
ell 220, elapsed: 0.0004401206970214844
ell 219, elapsed: 0.0005238056182861328
ell 218, elapsed: 0.00044989585876464844
ell 217, elapsed: 0.0005280971527099609
ell 216, elapsed: 0.0004401206970214844
ell 215, elapsed: 0.0005300045013427734
ell 214, elapsed: 0.00043892860412597656
ell 213, elapsed: 0.0005319118499755859
ell 212, elapsed: 0.0004401206970214844
ell 211, elapsed: 0.0005390644073486328
ell 210, elapsed: 0.0004398822784423828
ell 209, elapsed: 0.0005331039428710938
ell 208, elapsed: 0.00043892860412597656
ell 207, elapsed: 0.0005288124084472656
ell 206, elapsed: 0.0004391670227050781
ell 205, elapsed: 0.0005338191986083984
ell 204, elapsed: 0.0004429817199707031
ell 203, elapsed: 0.0005431175231933594
ell 202, elapsed: 0.0004401206970214844
ell 201, elapsed: 0.0005238056182861328
ell 200, elapsed: 0.00043892860412597656
ell 199, elapsed: 0.0005261898040771484
ell 198, elapsed: 0.0004398822784423828
ell 197, elapsed: 0.0005290508270263672
ell 196, elapsed: 0.0004420280456542969
ell 195, elapsed: 0.0005381107330322266
ell 194, elapsed: 0.00043702125549316406
ell 193, elapsed: 0.0005290508270263672
ell 192, elapsed: 0.0004401206970214844
ell 191, elapsed: 0.0005311965942382812
ell 190, elapsed: 0.00044083595275878906
ell 189, elapsed: 0.0005271434783935547
ell 188, elapsed: 0.0004448890686035156
ell 187, elapsed: 0.0005419254302978516
ell 186, elapsed: 0.0004401206970214844
ell 185, elapsed: 0.0005309581756591797
ell 184, elapsed: 0.0004429817199707031
ell 183, elapsed: 0.0005319118499755859
ell 182, elapsed: 0.0004420280456542969
ell 181, elapsed: 0.0005288124084472656
ell 180, elapsed: 0.00045609474182128906
ell 179, elapsed: 0.0005319118499755859
ell 178, elapsed: 0.0004420280456542969
ell 177, elapsed: 0.0005259513854980469
ell 176, elapsed: 0.0004420280456542969
ell 175, elapsed: 0.0005290508270263672
ell 174, elapsed: 0.00044083595275878906
ell 173, elapsed: 0.0005311965942382812
ell 172, elapsed: 0.0004558563232421875
ell 171, elapsed: 0.0005300045013427734
ell 170, elapsed: 0.0004410743713378906
ell 169, elapsed: 0.0005290508270263672
ell 168, elapsed: 0.0004420280456542969
ell 167, elapsed: 0.0005249977111816406
ell 166, elapsed: 0.00043892860412597656
ell 165, elapsed: 0.0005359649658203125
ell 164, elapsed: 0.00045299530029296875
ell 163, elapsed: 0.0005288124084472656
ell 162, elapsed: 0.0004420280456542969
ell 161, elapsed: 0.0005409717559814453
ell 160, elapsed: 0.0004439353942871094
ell 159, elapsed: 0.0005321502685546875
ell 158, elapsed: 0.0004429817199707031
ell 157, elapsed: 0.0005469322204589844
ell 156, elapsed: 0.0004439353942871094
ell 155, elapsed: 0.0005290508270263672
ell 154, elapsed: 0.0004398822784423828
ell 153, elapsed: 0.0005321502685546875
ell 152, elapsed: 0.0004401206970214844
ell 151, elapsed: 0.0005280971527099609
ell 150, elapsed: 0.0004398822784423828
ell 149, elapsed: 0.0005400180816650391
ell 148, elapsed: 0.0004398822784423828
ell 147, elapsed: 0.0005319118499755859
ell 146, elapsed: 0.0004391670227050781
ell 145, elapsed: 0.0005221366882324219
ell 144, elapsed: 0.0004379749298095703
ell 143, elapsed: 0.0005278587341308594
ell 142, elapsed: 0.0004391670227050781
ell 141, elapsed: 0.0005419254302978516
ell 140, elapsed: 0.00044083595275878906
ell 139, elapsed: 0.0005331039428710938
ell 138, elapsed: 0.0004410743713378906
ell 137, elapsed: 0.0005278587341308594
ell 136, elapsed: 0.0004410743713378906
ell 135, elapsed: 0.0005209445953369141
ell 134, elapsed: 0.0004398822784423828
ell 133, elapsed: 0.0005390644073486328
ell 132, elapsed: 0.00043892860412597656
ell 131, elapsed: 0.0005359649658203125
ell 130, elapsed: 0.0004401206970214844
ell 129, elapsed: 0.0005249977111816406
ell 128, elapsed: 0.0004410743713378906
ell 127, elapsed: 0.0005290508270263672
ell 126, elapsed: 0.0004940032958984375
ell 125, elapsed: 0.0005340576171875
ell 124, elapsed: 0.0004429817199707031
ell 123, elapsed: 0.0005259513854980469
ell 122, elapsed: 0.0004379749298095703
ell 121, elapsed: 0.0005259513854980469
ell 120, elapsed: 0.00043392181396484375
ell 119, elapsed: 0.0005178451538085938
ell 118, elapsed: 0.0004467964172363281
ell 117, elapsed: 0.0006840229034423828
ell 116, elapsed: 0.0006709098815917969
ell 115, elapsed: 0.0005350112915039062
ell 114, elapsed: 0.00043487548828125
ell 113, elapsed: 0.0005710124969482422
ell 112, elapsed: 0.0005040168762207031
ell 111, elapsed: 0.0005888938903808594
ell 110, elapsed: 0.0004360675811767578
ell 109, elapsed: 0.0005199909210205078
ell 108, elapsed: 0.00043392181396484375
ell 107, elapsed: 0.0005259513854980469
ell 106, elapsed: 0.00043392181396484375
ell 105, elapsed: 0.0005350112915039062
ell 104, elapsed: 0.00043392181396484375
ell 103, elapsed: 0.0005168914794921875
ell 102, elapsed: 0.00043582916259765625
ell 101, elapsed: 0.0005340576171875
ell 100, elapsed: 0.00043320655822753906
ell 99, elapsed: 0.000514984130859375
ell 98, elapsed: 0.0004360675811767578
ell 97, elapsed: 0.0005390644073486328
ell 96, elapsed: 0.0004329681396484375
ell 95, elapsed: 0.0005230903625488281
ell 94, elapsed: 0.0004391670227050781
ell 93, elapsed: 0.0005190372467041016
ell 92, elapsed: 0.00043487548828125
ell 91, elapsed: 0.0005190372467041016
ell 90, elapsed: 0.00044798851013183594
ell 89, elapsed: 0.0005249977111816406
ell 88, elapsed: 0.0004329681396484375
ell 87, elapsed: 0.0005218982696533203
ell 86, elapsed: 0.00043702125549316406
ell 85, elapsed: 0.0005319118499755859
ell 84, elapsed: 0.00043582916259765625
ell 83, elapsed: 0.0005238056182861328
ell 82, elapsed: 0.00044608116149902344
ell 81, elapsed: 0.0005209445953369141
ell 80, elapsed: 0.0004329681396484375
ell 79, elapsed: 0.0005221366882324219
ell 78, elapsed: 0.0004341602325439453
ell 77, elapsed: 0.0005230903625488281
ell 76, elapsed: 0.00043392181396484375
ell 75, elapsed: 0.0005199909210205078
ell 74, elapsed: 0.00043702125549316406
ell 73, elapsed: 0.0005199909210205078
ell 72, elapsed: 0.00043320655822753906
ell 71, elapsed: 0.0005168914794921875
ell 70, elapsed: 0.00043582916259765625
ell 69, elapsed: 0.0005168914794921875
ell 68, elapsed: 0.00043487548828125
ell 67, elapsed: 0.0005359649658203125
ell 66, elapsed: 0.00043392181396484375
ell 65, elapsed: 0.0005190372467041016
ell 64, elapsed: 0.0003428459167480469
ell 63, elapsed: 0.0003561973571777344
ell 62, elapsed: 0.0002949237823486328
ell 61, elapsed: 0.0003771781921386719
ell 60, elapsed: 0.00030303001403808594
ell 59, elapsed: 0.00035691261291503906
ell 58, elapsed: 0.00029397010803222656
ell 57, elapsed: 0.00044417381286621094
ell 56, elapsed: 0.0004439353942871094
ell 55, elapsed: 0.0005400180816650391
ell 54, elapsed: 0.00043892860412597656
ell 53, elapsed: 0.0005688667297363281
ell 52, elapsed: 0.00047516822814941406
ell 51, elapsed: 0.0005741119384765625
ell 50, elapsed: 0.00048089027404785156
ell 49, elapsed: 0.0006358623504638672
ell 48, elapsed: 0.0006120204925537109
ell 47, elapsed: 0.0005390644073486328
ell 46, elapsed: 0.0003979206085205078
ell 45, elapsed: 0.0005190372467041016
ell 44, elapsed: 0.00043511390686035156
ell 43, elapsed: 0.0005178451538085938
ell 42, elapsed: 0.00043511390686035156
ell 41, elapsed: 0.0005238056182861328
ell 40, elapsed: 0.00039696693420410156
ell 39, elapsed: 0.0005500316619873047
ell 38, elapsed: 0.0004329681396484375
ell 37, elapsed: 0.0005381107330322266
ell 36, elapsed: 0.0004658699035644531
ell 35, elapsed: 0.0005819797515869141
ell 34, elapsed: 0.000408172607421875
ell 33, elapsed: 0.0006010532379150391
ell 32, elapsed: 0.00040793418884277344
ell 31, elapsed: 0.0007069110870361328
ell 30, elapsed: 0.00046515464782714844
ell 29, elapsed: 0.0006489753723144531
ell 28, elapsed: 0.00049591064453125
ell 27, elapsed: 0.0006520748138427734
ell 26, elapsed: 0.0004718303680419922
ell 25, elapsed: 0.0006620883941650391
ell 24, elapsed: 0.00043702125549316406
ell 23, elapsed: 0.0007009506225585938
ell 22, elapsed: 0.0004279613494873047
ell 21, elapsed: 0.0007188320159912109
ell 20, elapsed: 0.0004150867462158203
ell 19, elapsed: 0.0006999969482421875
ell 18, elapsed: 0.0004379749298095703
ell 17, elapsed: 0.0006899833679199219
ell 16, elapsed: 0.00040602684020996094
ell 15, elapsed: 0.000720977783203125
ell 14, elapsed: 0.00045490264892578125
ell 13, elapsed: 0.0006890296936035156
ell 12, elapsed: 0.0004119873046875
ell 11, elapsed: 0.0006031990051269531
ell 10, elapsed: 0.00043892860412597656
ell 9, elapsed: 0.00047898292541503906
ell 8, elapsed: 0.0004000663757324219
ell 7, elapsed: 0.0005381107330322266
ell 6, elapsed: 0.00043892860412597656
ell 5, elapsed: 0.0006620883941650391
ell 4, elapsed: 0.0006730556488037109
ell 3, elapsed: 0.0007989406585693359
ell 2, elapsed: 0.0005600452423095703
ell 1, elapsed: 0.0008969306945800781
ell 0, elapsed: 0.0006990432739257812
  0.702323 seconds (41.19 k allocations: 2.939 MiB)
elapsed: 0.001489877700805664
step:          0.068037 sec (0 allocations: 0 byte, 0.0% gc time)
swapping:      0.000917 sec (0 allocations: 0 byte, 0.0% gc time)
calc_Mellell!: 0.010575 sec (0 allocations: 0 byte, 0.0% gc time)
  t0 :  0.002842 sec (0 allocations: 0 byte, 0.0% gc time)
  tm2 : 0.108845 sec (0 allocations: 0 byte, 0.0% gc time)
  tm2s: 0.001676 sec (0 allocations: 0 byte, 0.0% gc time)
  tm4 : 0.266872 sec (0 allocations: 0 byte, 0.0% gc time)
  tp2 : 0.0 sec (0 allocations: 0 byte, 0.0% gc time)
  tp2s: 0.0 sec (0 allocations: 0 byte, 0.0% gc time)
  tp4 : 0.0 sec (0 allocations: 0 byte, 0.0% gc time)
calc_wtdll!:   0.39942 sec (9.87 k allocations: 1.043 MB, 0.0% gc time)
calc_wljj!:    0.04088 sec (689 allocations: 10.766 KB, 0.0% gc time)
mult_prefac!:  0.0 sec (0 allocations: 0 byte, 0.0% gc time)
convert:       0.0 sec (0 allocations: 0 byte, 0.0% gc time)
write:         0.060767 sec (0 allocations: 0 byte, 0.0% gc time)
test_rand_2f1: 0.0 sec (0 allocations: 0 byte, 0.0% gc time)
Closing outfile out/Ml21-cache.bin...   0.044714 seconds
  0.000475 seconds (52 allocations: 28.297 KiB)
make_phi():   0.002392 seconds (8.20 k allocations: 238.016 KiB)
  0.196344 seconds (146.69 k allocations: 3.629 MiB)
tskip:       0.000908 sec (0 allocations: 0 byte, 0.0% gc time)
tread:       0.030275 sec (19 allocations: 10.688 KB, 0.0% gc time)
tmultphi:    0.013569 sec (0 allocations: 0 byte, 0.0% gc time)
tbrfft:      0.044582 sec (9.592 k allocations: 449.625 KB, 0.0% gc time)
tmultprefac: 0.028136 sec (0 allocations: 0 byte, 0.0% gc time)
toutfunc:    0.076267 sec (129.905 k allocations: 2.421 MB, 0.0% gc time)
Testing R=1.0 ... passed
Calculating fmax: 
  dlrec    = 4
  dlrecRg1 = -4
  q=1.1, R=0.9:	  0.473390 seconds (116.47 k allocations: 15.614 MiB)

  0.473656 seconds (116.50 k allocations: 15.647 MiB)
ℓ = 1202
Δℓ = 4
ΔℓRg1 = -4
N = 1600
q = 1.1
kmin = 1.0e-5
kmax = 100000.00000000004
χ0 = 0.023029999999999995
RR = RR.tsv
ℓmax = ℓmax.bin
f21 = f21.bin
kmin = 1.0e-5
kmax = 100000.0
dlrec    = 4
dlrecRg1 = -4
Output size: 5741568 bytes = 0.005347251892089844 GiB
Output size: 51264 bytes = 4.774332046508789e-5 GiB
Reading 'out/F21EllCache'...   0.004074 seconds (267 allocations: 84.656 KiB)
ellmax: 1202
lmaxcache: 1202
fell[:,1,1] = Complex{Float64}[1.3482014726274674e-57 - 3.302141236118086e-73im, 1.357860004724329e-57 - 3.3257978169518355e-73im]
ell 1202, elapsed: 2.002716064453125e-5
ell 1201, elapsed: 0.0005888938903808594
ell 1200, elapsed: 0.0005030632019042969
ell 1199, elapsed: 0.0005481243133544922
ell 1198, elapsed: 0.0005061626434326172
ell 1002, elapsed: 0.022568941116333008
ell 1001, elapsed: 0.0005009174346923828
ell 1000, elapsed: 0.0004849433898925781
ell 999, elapsed: 0.0003528594970703125
ell 998, elapsed: 0.00034809112548828125
ell 902, elapsed: 0.00492405891418457
ell 901, elapsed: 0.0003612041473388672
ell 900, elapsed: 0.0005211830139160156
ell 899, elapsed: 0.0005099773406982422
ell 898, elapsed: 0.0003960132598876953
ell 802, elapsed: 0.00523686408996582
ell 801, elapsed: 0.00035691261291503906
ell 800, elapsed: 0.0003409385681152344
ell 799, elapsed: 0.0005061626434326172
ell 798, elapsed: 0.00055694580078125
ell 702, elapsed: 0.006111860275268555
ell 701, elapsed: 0.000553131103515625
ell 700, elapsed: 0.0005609989166259766
ell 699, elapsed: 0.0005538463592529297
ell 698, elapsed: 0.0005409717559814453
ell 602, elapsed: 0.006018161773681641
ell 601, elapsed: 0.0005199909210205078
ell 600, elapsed: 0.0005440711975097656
ell 599, elapsed: 0.0005500316619873047
ell 598, elapsed: 0.0007958412170410156
ell 502, elapsed: 0.006393909454345703
ell 501, elapsed: 0.0004849433898925781
ell 500, elapsed: 0.0005390644073486328
ell 499, elapsed: 0.0005459785461425781
ell 498, elapsed: 0.0006320476531982422
ell 402, elapsed: 0.005727052688598633
ell 401, elapsed: 0.0004980564117431641
ell 400, elapsed: 0.0005447864532470703
ell 399, elapsed: 0.0005381107330322266
ell 398, elapsed: 0.0006551742553710938
ell 302, elapsed: 0.0053730010986328125
ell 301, elapsed: 0.0005049705505371094
ell 300, elapsed: 0.0005500316619873047
ell 299, elapsed: 0.00044798851013183594
ell 298, elapsed: 0.0004870891571044922
ell 202, elapsed: 0.005155086517333984
ell 201, elapsed: 0.000453948974609375
ell 200, elapsed: 0.0005478858947753906
ell 199, elapsed: 0.00047707557678222656
ell 198, elapsed: 0.00048804283142089844
ell 152, elapsed: 0.0034508705139160156
ell 151, elapsed: 0.0003590583801269531
ell 150, elapsed: 0.0004711151123046875
ell 149, elapsed: 0.0005521774291992188
ell 148, elapsed: 0.00047397613525390625
ell 127, elapsed: 0.0017788410186767578
ell 126, elapsed: 0.0004730224609375
ell 125, elapsed: 0.0005440711975097656
ell 124, elapsed: 0.0005788803100585938
ell 123, elapsed: 0.0005390644073486328
ell 114, elapsed: 0.0013229846954345703
ell 113, elapsed: 0.0004940032958984375
ell 112, elapsed: 0.0004928112030029297
ell 111, elapsed: 0.0005440711975097656
ell 110, elapsed: 0.0006630420684814453
ell 102, elapsed: 0.0013630390167236328
ell 101, elapsed: 0.0005431175231933594
ell 100, elapsed: 0.0005390644073486328
ell 99, elapsed: 0.0005421638488769531
ell 98, elapsed: 0.0006620883941650391
ell 97, elapsed: 0.0006020069122314453
ell 96, elapsed: 0.0007398128509521484
ell 95, elapsed: 0.0005209445953369141
ell 94, elapsed: 0.0006849765777587891
ell 93, elapsed: 0.0006051063537597656
ell 92, elapsed: 0.0008070468902587891
ell 91, elapsed: 0.0004858970642089844
ell 90, elapsed: 0.0006709098815917969
ell 89, elapsed: 0.0006148815155029297
ell 88, elapsed: 0.0006270408630371094
ell 87, elapsed: 0.0005478858947753906
ell 86, elapsed: 0.0008320808410644531
ell 85, elapsed: 0.0006029605865478516
ell 84, elapsed: 0.0007069110870361328
ell 83, elapsed: 0.0005278587341308594
ell 82, elapsed: 0.0006010532379150391
ell 81, elapsed: 0.0007319450378417969
ell 80, elapsed: 0.0007228851318359375
ell 79, elapsed: 0.0006301403045654297
ell 78, elapsed: 0.000720977783203125
ell 77, elapsed: 0.0005998611450195312
ell 76, elapsed: 0.0007171630859375
ell 75, elapsed: 0.0008590221405029297
ell 74, elapsed: 0.0006489753723144531
ell 73, elapsed: 0.0005898475646972656
ell 72, elapsed: 0.0007162094116210938
ell 71, elapsed: 0.000598907470703125
ell 70, elapsed: 0.000982046127319336
ell 69, elapsed: 0.0005049705505371094
ell 68, elapsed: 0.0007159709930419922
ell 67, elapsed: 0.0006098747253417969
ell 66, elapsed: 0.0007112026214599609
ell 65, elapsed: 0.0004799365997314453
ell 64, elapsed: 0.0008440017700195312
ell 63, elapsed: 0.0005400180816650391
ell 62, elapsed: 0.0007219314575195312
ell 61, elapsed: 0.0006120204925537109
ell 60, elapsed: 0.0007169246673583984
ell 59, elapsed: 0.0007100105285644531
ell 58, elapsed: 0.0007319450378417969
ell 57, elapsed: 0.0006041526794433594
ell 56, elapsed: 0.0007390975952148438
ell 55, elapsed: 0.0006039142608642578
ell 54, elapsed: 0.0007238388061523438
ell 53, elapsed: 0.0005848407745361328
ell 52, elapsed: 0.0006830692291259766
ell 51, elapsed: 0.0006101131439208984
ell 50, elapsed: 0.000720977783203125
ell 49, elapsed: 0.0005030632019042969
ell 48, elapsed: 0.0006849765777587891
ell 47, elapsed: 0.0007410049438476562
ell 46, elapsed: 0.0007150173187255859
ell 45, elapsed: 0.0006170272827148438
ell 44, elapsed: 0.0007159709930419922
ell 43, elapsed: 0.0006151199340820312
ell 42, elapsed: 0.0008409023284912109
ell 41, elapsed: 0.000476837158203125
ell 40, elapsed: 0.0006670951843261719
ell 39, elapsed: 0.0005950927734375
ell 38, elapsed: 0.0007309913635253906
ell 37, elapsed: 0.0006020069122314453
ell 36, elapsed: 0.0008499622344970703
ell 35, elapsed: 0.0006120204925537109
ell 34, elapsed: 0.0007290840148925781
ell 33, elapsed: 0.0006310939788818359
ell 32, elapsed: 0.0007319450378417969
ell 31, elapsed: 0.0007240772247314453
ell 30, elapsed: 0.0007131099700927734
ell 29, elapsed: 0.0005939006805419922
ell 28, elapsed: 0.0007259845733642578
ell 27, elapsed: 0.0007429122924804688
ell 26, elapsed: 0.0006558895111083984
ell 25, elapsed: 0.0006251335144042969
ell 24, elapsed: 0.000720977783203125
ell 23, elapsed: 0.0006060600280761719
ell 22, elapsed: 0.0007190704345703125
ell 21, elapsed: 0.0006079673767089844
ell 20, elapsed: 0.0008339881896972656
ell 19, elapsed: 0.0006139278411865234
ell 18, elapsed: 0.0007290840148925781
ell 17, elapsed: 0.0006108283996582031
ell 16, elapsed: 0.0007178783416748047
ell 15, elapsed: 0.0005979537963867188
ell 14, elapsed: 0.0008420944213867188
ell 13, elapsed: 0.0006139278411865234
ell 12, elapsed: 0.0007200241088867188
ell 11, elapsed: 0.0006060600280761719
ell 10, elapsed: 0.0007159709930419922
ell 9, elapsed: 0.0005810260772705078
ell 8, elapsed: 0.0006761550903320312
ell 7, elapsed: 0.0006139278411865234
ell 6, elapsed: 0.0007190704345703125
ell 5, elapsed: 0.0006070137023925781
ell 4, elapsed: 0.0007188320159912109
ell 3, elapsed: 0.0006029605865478516
ell 2, elapsed: 0.0006489753723144531
ell 1, elapsed: 0.0006129741668701172
ell 0, elapsed: 0.0006499290466308594
  0.177746 seconds (10.83 k allocations: 697.938 KiB)
elapsed: 0.0006330013275146484
step:          0.076357 sec (0 allocations: 0 byte, 0.0% gc time)
swapping:      0.000621 sec (0 allocations: 0 byte, 0.0% gc time)
calc_Mellell!: 0.001814 sec (0 allocations: 0 byte, 0.0% gc time)
  t0 :  0.000498 sec (0 allocations: 0 byte, 0.0% gc time)
  tm2 : 0.018918 sec (0 allocations: 0 byte, 0.0% gc time)
  tm2s: 0.000402 sec (0 allocations: 0 byte, 0.0% gc time)
  tm4 : 0.050198 sec (0 allocations: 0 byte, 0.0% gc time)
  tp2 : 0.0 sec (0 allocations: 0 byte, 0.0% gc time)
  tp2s: 0.0 sec (0 allocations: 0 byte, 0.0% gc time)
  tp4 : 0.0 sec (0 allocations: 0 byte, 0.0% gc time)
calc_wtdll!:   0.070823 sec (1.344 k allocations: 147.0 KB, 0.0% gc time)
calc_wljj!:    0.005914 sec (6 allocations: 96 byte, 0.0% gc time)
mult_prefac!:  0.0 sec (0 allocations: 0 byte, 0.0% gc time)
convert:       0.0 sec (0 allocations: 0 byte, 0.0% gc time)
write:         0.007343 sec (0 allocations: 0 byte, 0.0% gc time)
test_rand_2f1: 0.0 sec (0 allocations: 0 byte, 0.0% gc time)
Closing outfile out/Ml21-cache.bin...   0.002261 seconds
  0.000355 seconds (52 allocations: 28.297 KiB)
make_phi():   0.002583 seconds (8.20 k allocations: 238.016 KiB)
  0.015220 seconds (12.10 k allocations: 322.000 KiB)
tskip:       2.2e-5 sec (0 allocations: 0 byte, 0.0% gc time)
tread:       0.002489 sec (19 allocations: 2.172 KB, 0.0% gc time)
tmultphi:    0.001262 sec (0 allocations: 0 byte, 0.0% gc time)
tbrfft:      0.004039 sec (896 allocations: 42.0 KB, 0.0% gc time)
tmultprefac: 0.002642 sec (0 allocations: 0 byte, 0.0% gc time)
toutfunc:    0.004761 sec (10.528 k allocations: 206.5 KB, 0.0% gc time)
Testing R=0.9 ... passed
Calculating fmax: 
  dlrec    = 4
  dlrecRg1 = -4
  q=1.1, R=0.8:	  0.390335 seconds (113.61 k allocations: 15.166 MiB, 7.38% gc time)

  0.391895 seconds (113.66 k allocations: 15.200 MiB, 7.35% gc time)
ℓ = 1202
Δℓ = 4
ΔℓRg1 = -4
N = 1600
q = 1.1
kmin = 1.0e-5
kmax = 100000.00000000004
χ0 = 0.023029999999999995
RR = RR.tsv
ℓmax = ℓmax.bin
f21 = f21.bin
kmin = 1.0e-5
kmax = 100000.0
dlrec    = 4
dlrecRg1 = -4
Output size: 5741568 bytes = 0.005347251892089844 GiB
Output size: 51264 bytes = 4.774332046508789e-5 GiB
Reading 'out/F21EllCache'...   0.001036 seconds (267 allocations: 84.656 KiB)
ellmax: 1202
lmaxcache: 1202
fell[:,1,1] = Complex{Float64}[7.519068145690986e-120 - 1.8416405474382574e-135im, 7.541664537386155e-120 - 1.847175067190611e-135im]
ell 1202, elapsed: 7.200241088867188e-5
ell 1201, elapsed: 0.00041794776916503906
ell 1200, elapsed: 0.0003910064697265625
ell 1199, elapsed: 0.0005228519439697266
ell 1198, elapsed: 0.0004680156707763672
ell 1002, elapsed: 0.009512186050415039
ell 1001, elapsed: 0.00047016143798828125
ell 1000, elapsed: 0.0004019737243652344
ell 999, elapsed: 0.0003571510314941406
ell 998, elapsed: 0.00035190582275390625
ell 902, elapsed: 0.005339145660400391
ell 901, elapsed: 0.00039005279541015625
ell 900, elapsed: 0.00041484832763671875
ell 899, elapsed: 0.00035500526428222656
ell 898, elapsed: 0.00036597251892089844
ell 802, elapsed: 0.005365848541259766
ell 801, elapsed: 0.00037384033203125
ell 800, elapsed: 0.00034999847412109375
ell 799, elapsed: 0.00035500526428222656
ell 798, elapsed: 0.0003509521484375
ell 702, elapsed: 0.004778146743774414
ell 701, elapsed: 0.0005528926849365234
ell 700, elapsed: 0.00044083595275878906
ell 699, elapsed: 0.00041484832763671875
ell 698, elapsed: 0.00042891502380371094
ell 602, elapsed: 0.0049190521240234375
ell 601, elapsed: 0.00042510032653808594
ell 600, elapsed: 0.00040793418884277344
ell 599, elapsed: 0.0003910064697265625
ell 598, elapsed: 0.0003998279571533203
ell 502, elapsed: 0.004968881607055664
ell 501, elapsed: 0.0005509853363037109
ell 500, elapsed: 0.00046515464782714844
ell 499, elapsed: 0.0004570484161376953
ell 498, elapsed: 0.00039696693420410156
ell 402, elapsed: 0.0049860477447509766
ell 401, elapsed: 0.0004949569702148438
ell 400, elapsed: 0.0004138946533203125
ell 399, elapsed: 0.0004069805145263672
ell 398, elapsed: 0.0004220008850097656
ell 302, elapsed: 0.005096912384033203
ell 301, elapsed: 0.0004899501800537109
ell 300, elapsed: 0.0004570484161376953
ell 299, elapsed: 0.000453948974609375
ell 298, elapsed: 0.0004010200500488281
ell 202, elapsed: 0.004930973052978516
ell 201, elapsed: 0.0004761219024658203
ell 200, elapsed: 0.0004668235778808594
ell 199, elapsed: 0.000408172607421875
ell 198, elapsed: 0.0003979206085205078
ell 152, elapsed: 0.002565145492553711
ell 151, elapsed: 0.0004048347473144531
ell 150, elapsed: 0.0003819465637207031
ell 149, elapsed: 0.0006029605865478516
ell 148, elapsed: 0.0003581047058105469
ell 127, elapsed: 0.001497030258178711
ell 126, elapsed: 0.00034999847412109375
ell 125, elapsed: 0.0003509521484375
ell 124, elapsed: 0.0003540515899658203
ell 123, elapsed: 0.00034999847412109375
ell 114, elapsed: 0.0009489059448242188
ell 113, elapsed: 0.0003578662872314453
ell 112, elapsed: 0.0003509521484375
ell 111, elapsed: 0.0003440380096435547
ell 110, elapsed: 0.00034880638122558594
ell 102, elapsed: 0.0008530616760253906
ell 101, elapsed: 0.0003440380096435547
ell 100, elapsed: 0.00043392181396484375
ell 99, elapsed: 0.00034689903259277344
ell 98, elapsed: 0.00034499168395996094
ell 97, elapsed: 0.00038695335388183594
ell 96, elapsed: 0.00049591064453125
ell 95, elapsed: 0.00038695335388183594
ell 94, elapsed: 0.00048804283142089844
ell 93, elapsed: 0.0003871917724609375
ell 92, elapsed: 0.0004761219024658203
ell 91, elapsed: 0.0005350112915039062
ell 90, elapsed: 0.00047016143798828125
ell 89, elapsed: 0.0003829002380371094
ell 88, elapsed: 0.0004749298095703125
ell 87, elapsed: 0.00038695335388183594
ell 86, elapsed: 0.0004639625549316406
ell 85, elapsed: 0.0003840923309326172
ell 84, elapsed: 0.00047898292541503906
ell 83, elapsed: 0.0003910064697265625
ell 82, elapsed: 0.0005660057067871094
ell 81, elapsed: 0.0003910064697265625
ell 80, elapsed: 0.0004711151123046875
ell 79, elapsed: 0.0003941059112548828
ell 78, elapsed: 0.0004699230194091797
ell 77, elapsed: 0.00038695335388183594
ell 76, elapsed: 0.0004830360412597656
ell 75, elapsed: 0.0003910064697265625
ell 74, elapsed: 0.0006129741668701172
ell 73, elapsed: 0.0004298686981201172
ell 72, elapsed: 0.0005209445953369141
ell 71, elapsed: 0.00043201446533203125
ell 70, elapsed: 0.0005209445953369141
ell 69, elapsed: 0.0004298686981201172
ell 68, elapsed: 0.0005171298980712891
ell 67, elapsed: 0.000392913818359375
ell 66, elapsed: 0.0004799365997314453
ell 65, elapsed: 0.0003859996795654297
[...]
ell 788, elapsed: 0.0007719993591308594
ell 782, elapsed: 0.0015380382537841797
ell 781, elapsed: 0.0007739067077636719
ell 780, elapsed: 0.0007798671722412109
ell 779, elapsed: 0.0007700920104980469
ell 778, elapsed: 0.0007700920104980469
ell 772, elapsed: 0.0017268657684326172
ell 771, elapsed: 0.0009520053863525391
ell 770, elapsed: 0.0009529590606689453
ell 769, elapsed: 0.0010540485382080078
ell 768, elapsed: 0.0009520053863525391
ell 762, elapsed: 0.0017881393432617188
ell 761, elapsed: 0.0009779930114746094
ell 760, elapsed: 0.0009570121765136719
ell 759, elapsed: 0.0009560585021972656
ell 758, elapsed: 0.0009539127349853516
ell 752, elapsed: 0.0019021034240722656
ell 751, elapsed: 0.0009601116180419922
ell 750, elapsed: 0.0009591579437255859
ell 749, elapsed: 0.0010509490966796875
ell 748, elapsed: 0.0009601116180419922
ell 742, elapsed: 0.0017781257629394531
ell 741, elapsed: 0.0010311603546142578
ell 740, elapsed: 0.0009450912475585938
ell 739, elapsed: 0.0010628700256347656
ell 738, elapsed: 0.0007729530334472656
ell 732, elapsed: 0.0015480518341064453
ell 731, elapsed: 0.0007698535919189453
ell 730, elapsed: 0.0007700920104980469
ell 729, elapsed: 0.0007669925689697266
ell 728, elapsed: 0.0007688999176025391
ell 722, elapsed: 0.001516103744506836
ell 721, elapsed: 0.0007700920104980469
ell 720, elapsed: 0.0007698535919189453
ell 719, elapsed: 0.0007610321044921875
ell 718, elapsed: 0.0008881092071533203
ell 712, elapsed: 0.0014629364013671875
ell 711, elapsed: 0.0007698535919189453
ell 710, elapsed: 0.0007700920104980469
ell 709, elapsed: 0.0008680820465087891
ell 708, elapsed: 0.0007789134979248047
ell 702, elapsed: 0.0014600753784179688
ell 701, elapsed: 0.0007698535919189453
ell 700, elapsed: 0.0008809566497802734
ell 699, elapsed: 0.0007688999176025391
ell 698, elapsed: 0.0007700920104980469
ell 692, elapsed: 0.0014448165893554688
ell 691, elapsed: 0.0008730888366699219
ell 690, elapsed: 0.0007669925689697266
ell 689, elapsed: 0.0007650852203369141
ell 688, elapsed: 0.0007741451263427734
ell 682, elapsed: 0.001589059829711914
ell 681, elapsed: 0.0008618831634521484
ell 680, elapsed: 0.0008649826049804688
ell 679, elapsed: 0.0008609294891357422
ell 678, elapsed: 0.000949859619140625
ell 672, elapsed: 0.001653909683227539
ell 671, elapsed: 0.0008711814880371094
ell 670, elapsed: 0.0008711814880371094
ell 669, elapsed: 0.0009641647338867188
ell 668, elapsed: 0.0008778572082519531
ell 662, elapsed: 0.0019240379333496094
ell 661, elapsed: 0.0012450218200683594
ell 660, elapsed: 0.0007719993591308594
ell 659, elapsed: 0.0007610321044921875
ell 658, elapsed: 0.0007669925689697266
ell 652, elapsed: 0.0018079280853271484
ell 651, elapsed: 0.0008828639984130859
ell 650, elapsed: 0.0008690357208251953
ell 649, elapsed: 0.0008640289306640625
ell 648, elapsed: 0.0009620189666748047
ell 642, elapsed: 0.0018219947814941406
ell 641, elapsed: 0.0008749961853027344
ell 640, elapsed: 0.0009629726409912109
ell 639, elapsed: 0.0008649826049804688
ell 638, elapsed: 0.0008800029754638672
ell 632, elapsed: 0.0017139911651611328
ell 631, elapsed: 0.0007729530334472656
ell 630, elapsed: 0.0007729530334472656
ell 629, elapsed: 0.0007650852203369141
ell 628, elapsed: 0.0007710456848144531
ell 622, elapsed: 0.0015218257904052734
ell 621, elapsed: 0.0007708072662353516
ell 620, elapsed: 0.0007758140563964844
ell 619, elapsed: 0.0007660388946533203
ell 618, elapsed: 0.0008761882781982422
ell 612, elapsed: 0.0016210079193115234
ell 611, elapsed: 0.0008630752563476562
ell 610, elapsed: 0.0008699893951416016
ell 609, elapsed: 0.0009481906890869141
ell 608, elapsed: 0.0008749961853027344
ell 602, elapsed: 0.001600027084350586
ell 601, elapsed: 0.0009748935699462891
ell 600, elapsed: 0.0008709430694580078
ell 599, elapsed: 0.0008590221405029297
ell 598, elapsed: 0.0008680820465087891
ell 592, elapsed: 0.0017468929290771484
ell 591, elapsed: 0.000946044921875
ell 590, elapsed: 0.000946044921875
ell 589, elapsed: 0.0009338855743408203
ell 588, elapsed: 0.0009660720825195312
ell 582, elapsed: 0.0017380714416503906
ell 581, elapsed: 0.0008981227874755859
ell 580, elapsed: 0.0009629726409912109
ell 579, elapsed: 0.0008740425109863281
ell 578, elapsed: 0.0009469985961914062
ell 572, elapsed: 0.0015740394592285156
ell 571, elapsed: 0.0008502006530761719
ell 570, elapsed: 0.0007719993591308594
ell 569, elapsed: 0.0007610321044921875
ell 568, elapsed: 0.0007700920104980469
ell 562, elapsed: 0.0015349388122558594
ell 561, elapsed: 0.0007658004760742188
ell 560, elapsed: 0.0007710456848144531
ell 559, elapsed: 0.0007610321044921875
ell 558, elapsed: 0.0007719993591308594
ell 552, elapsed: 0.0016169548034667969
ell 551, elapsed: 0.0008571147918701172
ell 550, elapsed: 0.0008540153503417969
ell 549, elapsed: 0.0009710788726806641
ell 548, elapsed: 0.0008671283721923828
ell 542, elapsed: 0.0016078948974609375
ell 541, elapsed: 0.0008618831634521484
ell 540, elapsed: 0.0009381771087646484
ell 539, elapsed: 0.0008611679077148438
ell 538, elapsed: 0.0008661746978759766
ell 532, elapsed: 0.0016930103302001953
ell 531, elapsed: 0.0009579658508300781
ell 530, elapsed: 0.0009250640869140625
ell 529, elapsed: 0.0008721351623535156
ell 528, elapsed: 0.0008780956268310547
ell 522, elapsed: 0.0017080307006835938
ell 521, elapsed: 0.0008740425109863281
ell 520, elapsed: 0.0008790493011474609
ell 519, elapsed: 0.0009739398956298828
ell 518, elapsed: 0.0008780956268310547
ell 512, elapsed: 0.0016438961029052734
ell 511, elapsed: 0.0008721351623535156
ell 510, elapsed: 0.0008831024169921875
ell 509, elapsed: 0.0010650157928466797
ell 508, elapsed: 0.0007739067077636719
ell 502, elapsed: 0.0015230178833007812
ell 501, elapsed: 0.0007688999176025391
ell 500, elapsed: 0.0007700920104980469
ell 499, elapsed: 0.0007679462432861328
ell 498, elapsed: 0.0007719993591308594
ell 492, elapsed: 0.0015430450439453125
ell 491, elapsed: 0.0007739067077636719
ell 490, elapsed: 0.0007700920104980469
ell 489, elapsed: 0.0007638931274414062
ell 488, elapsed: 0.0009310245513916016
ell 482, elapsed: 0.0017709732055664062
ell 481, elapsed: 0.0009510517120361328
ell 480, elapsed: 0.0010290145874023438
ell 479, elapsed: 0.0009539127349853516
ell 478, elapsed: 0.0009949207305908203
ell 472, elapsed: 0.0019030570983886719
ell 471, elapsed: 0.0008831024169921875
ell 470, elapsed: 0.0008778572082519531
ell 469, elapsed: 0.0008721351623535156
ell 468, elapsed: 0.0009009838104248047
ell 462, elapsed: 0.0016448497772216797
ell 461, elapsed: 0.0008769035339355469
ell 460, elapsed: 0.0008759498596191406
ell 459, elapsed: 0.0008759498596191406
ell 458, elapsed: 0.0008819103240966797
ell 452, elapsed: 0.0016410350799560547
ell 451, elapsed: 0.0008728504180908203
ell 450, elapsed: 0.0010600090026855469
ell 449, elapsed: 0.0007898807525634766
ell 448, elapsed: 0.0007739067077636719
ell 442, elapsed: 0.0014710426330566406
ell 441, elapsed: 0.001110076904296875
ell 440, elapsed: 0.0007729530334472656
ell 439, elapsed: 0.0007679462432861328
ell 438, elapsed: 0.0007739067077636719
ell 432, elapsed: 0.0018241405487060547
ell 431, elapsed: 0.0008590221405029297
ell 430, elapsed: 0.000885009765625
ell 429, elapsed: 0.0008668899536132812
ell 428, elapsed: 0.0007770061492919922
ell 422, elapsed: 0.0014560222625732422
ell 421, elapsed: 0.0007729530334472656
ell 420, elapsed: 0.0007901191711425781
ell 419, elapsed: 0.0008029937744140625
ell 418, elapsed: 0.0008761882781982422
ell 412, elapsed: 0.0015211105346679688
ell 411, elapsed: 0.0009109973907470703
ell 410, elapsed: 0.0008990764617919922
ell 409, elapsed: 0.0008809566497802734
ell 408, elapsed: 0.0008730888366699219
ell 402, elapsed: 0.002000093460083008
ell 401, elapsed: 0.0013740062713623047
ell 400, elapsed: 0.0014069080352783203
ell 399, elapsed: 0.0013890266418457031
ell 398, elapsed: 0.0013737678527832031
ell 392, elapsed: 0.0025260448455810547
ell 391, elapsed: 0.0013878345489501953
ell 390, elapsed: 0.0014019012451171875
ell 389, elapsed: 0.0013859272003173828
ell 388, elapsed: 0.0013799667358398438
ell 382, elapsed: 0.002496004104614258
ell 381, elapsed: 0.001374959945678711
ell 380, elapsed: 0.0013918876647949219
ell 379, elapsed: 0.001363992691040039
ell 378, elapsed: 0.0013759136199951172
ell 372, elapsed: 0.0024988651275634766
ell 371, elapsed: 0.001371145248413086
ell 370, elapsed: 0.0014488697052001953
ell 369, elapsed: 0.001363992691040039
ell 368, elapsed: 0.0013668537139892578
ell 362, elapsed: 0.002477884292602539
ell 361, elapsed: 0.001363992691040039
ell 360, elapsed: 0.0014309883117675781
ell 359, elapsed: 0.001399993896484375
ell 358, elapsed: 0.0013911724090576172
ell 352, elapsed: 0.0024840831756591797
ell 351, elapsed: 0.0014350414276123047
ell 350, elapsed: 0.0012061595916748047
ell 349, elapsed: 0.0012111663818359375
ell 348, elapsed: 0.0010409355163574219
ell 342, elapsed: 0.0016241073608398438
ell 341, elapsed: 0.0008821487426757812
ell 340, elapsed: 0.0008718967437744141
ell 339, elapsed: 0.0008640289306640625
ell 338, elapsed: 0.0007708072662353516
ell 332, elapsed: 0.00145721435546875
ell 331, elapsed: 0.0007758140563964844
ell 330, elapsed: 0.004355192184448242
ell 329, elapsed: 0.0009071826934814453
ell 328, elapsed: 0.0007920265197753906
ell 322, elapsed: 0.0019068717956542969
ell 321, elapsed: 0.0008921623229980469
ell 320, elapsed: 0.0008380413055419922
ell 319, elapsed: 0.0008409023284912109
ell 318, elapsed: 0.0012640953063964844
ell 312, elapsed: 0.0024199485778808594
ell 311, elapsed: 0.0008358955383300781
ell 310, elapsed: 0.0008292198181152344
ell 309, elapsed: 0.0008220672607421875
ell 308, elapsed: 0.0008189678192138672
ell 302, elapsed: 0.0014998912811279297
ell 301, elapsed: 0.000823974609375
ell 300, elapsed: 0.0008459091186523438
ell 299, elapsed: 0.0008292198181152344
ell 298, elapsed: 0.0011861324310302734
ell 292, elapsed: 0.0018978118896484375
ell 291, elapsed: 0.001096963882446289
ell 290, elapsed: 0.0008220672607421875
ell 289, elapsed: 0.0008370876312255859
ell 288, elapsed: 0.0011639595031738281
ell 282, elapsed: 0.0018491744995117188
ell 281, elapsed: 0.0008399486541748047
ell 280, elapsed: 0.000993967056274414
ell 279, elapsed: 0.0008320808410644531
ell 278, elapsed: 0.0008308887481689453
ell 272, elapsed: 0.0019359588623046875
ell 271, elapsed: 0.0008001327514648438
ell 270, elapsed: 0.0008418560028076172
ell 269, elapsed: 0.0008490085601806641
ell 268, elapsed: 0.0008449554443359375
ell 262, elapsed: 0.0023059844970703125
ell 261, elapsed: 0.0008809566497802734
ell 260, elapsed: 0.0016260147094726562
ell 259, elapsed: 0.0012440681457519531
ell 258, elapsed: 0.000888824462890625
ell 252, elapsed: 0.0021750926971435547
ell 251, elapsed: 0.0009179115295410156
ell 250, elapsed: 0.0012400150299072266
ell 249, elapsed: 0.0010709762573242188
ell 248, elapsed: 0.001241922378540039
ell 242, elapsed: 0.002026081085205078
ell 241, elapsed: 0.0013980865478515625
ell 240, elapsed: 0.0008881092071533203
ell 239, elapsed: 0.0012018680572509766
ell 238, elapsed: 0.0010409355163574219
ell 232, elapsed: 0.0023338794708251953
ell 231, elapsed: 0.0008728504180908203
ell 230, elapsed: 0.0015060901641845703
ell 229, elapsed: 0.0008630752563476562
ell 228, elapsed: 0.0012509822845458984
ell 222, elapsed: 0.001981019973754883
ell 221, elapsed: 0.0008699893951416016
ell 220, elapsed: 0.001241922378540039
ell 219, elapsed: 0.0009138584136962891
ell 218, elapsed: 0.0012378692626953125
ell 212, elapsed: 0.002048015594482422
ell 211, elapsed: 0.0008580684661865234
ell 210, elapsed: 0.0012288093566894531
ell 209, elapsed: 0.0008971691131591797
ell 208, elapsed: 0.0012519359588623047
ell 202, elapsed: 0.0019822120666503906
ell 201, elapsed: 0.0008568763732910156
ell 200, elapsed: 0.0012481212615966797
ell 199, elapsed: 0.0009059906005859375
ell 198, elapsed: 0.0012998580932617188
ell 192, elapsed: 0.002003908157348633
ell 191, elapsed: 0.0008869171142578125
ell 190, elapsed: 0.0012271404266357422
ell 189, elapsed: 0.0010249614715576172
ell 188, elapsed: 0.0012409687042236328
ell 182, elapsed: 0.00232696533203125
ell 181, elapsed: 0.0012469291687011719
ell 180, elapsed: 0.0009150505065917969
ell 179, elapsed: 0.0012240409851074219
ell 178, elapsed: 0.0010211467742919922
ell 172, elapsed: 0.002259969711303711
ell 171, elapsed: 0.0008881092071533203
ell 170, elapsed: 0.0013380050659179688
ell 169, elapsed: 0.0012738704681396484
ell 168, elapsed: 0.0009081363677978516
ell 162, elapsed: 0.0022280216217041016
ell 161, elapsed: 0.0009021759033203125
ell 160, elapsed: 0.0012640953063964844
ell 159, elapsed: 0.0009050369262695312
ell 158, elapsed: 0.001249074935913086
ell 152, elapsed: 0.002009153366088867
ell 151, elapsed: 0.0008652210235595703
ell 150, elapsed: 0.0012209415435791016
ell 149, elapsed: 0.0012629032135009766
ell 148, elapsed: 0.0008990764617919922
ell 142, elapsed: 0.0022771358489990234
ell 141, elapsed: 0.0008780956268310547
ell 140, elapsed: 0.0012500286102294922
ell 139, elapsed: 0.0009090900421142578
ell 138, elapsed: 0.0012280941009521484
ell 132, elapsed: 0.001965045928955078
ell 131, elapsed: 0.0008878707885742188
ell 130, elapsed: 0.0012478828430175781
ell 129, elapsed: 0.001271963119506836
ell 128, elapsed: 0.0009210109710693359
ell 122, elapsed: 0.002241849899291992
ell 121, elapsed: 0.0008878707885742188
ell 120, elapsed: 0.001238107681274414
ell 119, elapsed: 0.0008800029754638672
ell 118, elapsed: 0.0008370876312255859
ell 112, elapsed: 0.0015380382537841797
ell 111, elapsed: 0.0008270740509033203
ell 110, elapsed: 0.0008299350738525391
ell 109, elapsed: 0.0008420944213867188
ell 108, elapsed: 0.0008370876312255859
ell 102, elapsed: 0.0014982223510742188
ell 101, elapsed: 0.003423929214477539
ell 100, elapsed: 0.0045299530029296875
ell 99, elapsed: 0.00436091423034668
ell 98, elapsed: 0.004063844680786133
ell 92, elapsed: 0.007208108901977539
ell 91, elapsed: 0.0041501522064208984
ell 90, elapsed: 0.0045430660247802734
ell 89, elapsed: 0.00451207160949707
ell 88, elapsed: 0.004500150680541992
ell 82, elapsed: 0.0067098140716552734
ell 81, elapsed: 0.003660917282104492
ell 80, elapsed: 0.004333972930908203
ell 79, elapsed: 0.004255056381225586
ell 78, elapsed: 0.004119157791137695
ell 72, elapsed: 0.006767988204956055
ell 71, elapsed: 0.004214048385620117
ell 70, elapsed: 0.0042438507080078125
ell 69, elapsed: 0.002897024154663086
ell 68, elapsed: 0.004411935806274414
ell 62, elapsed: 0.007018089294433594
ell 61, elapsed: 0.004467010498046875
ell 60, elapsed: 0.004350185394287109
ell 59, elapsed: 0.004353046417236328
ell 58, elapsed: 0.004216194152832031
ell 52, elapsed: 0.0068988800048828125
ell 51, elapsed: 0.0042951107025146484
ell 50, elapsed: 0.004366159439086914
ell 49, elapsed: 0.004579067230224609
ell 48, elapsed: 0.004515171051025391
ell 42, elapsed: 0.006829977035522461
ell 41, elapsed: 0.004586935043334961
ell 40, elapsed: 0.004647016525268555
ell 39, elapsed: 0.004420042037963867
ell 38, elapsed: 0.0031158924102783203
ell 32, elapsed: 0.0068149566650390625
ell 31, elapsed: 0.0046579837799072266
ell 30, elapsed: 0.004530906677246094
ell 29, elapsed: 0.0046389102935791016
ell 28, elapsed: 0.0045778751373291016
ell 22, elapsed: 0.0071980953216552734
ell 21, elapsed: 0.004559040069580078
ell 20, elapsed: 0.00469207763671875
ell 19, elapsed: 0.004132986068725586
ell 18, elapsed: 0.004644870758056641
ell 12, elapsed: 0.007382869720458984
ell 11, elapsed: 0.004671812057495117
ell 10, elapsed: 0.0044879913330078125
ell 9, elapsed: 0.004516124725341797
ell 8, elapsed: 0.004570960998535156
  0.874182 seconds (66.75 k allocations: 12.139 MiB)
elapsed: 0.005233049392700195
step:          0.071518 sec (0 allocations: 0 byte, 0.0% gc time)
swapping:      0.000818 sec (0 allocations: 0 byte, 0.0% gc time)
calc_Mellell!: 0.034523 sec (0 allocations: 0 byte, 0.0% gc time)
  t0 :  0.010901 sec (0 allocations: 0 byte, 0.0% gc time)
  tm2 : 0.091794 sec (0 allocations: 0 byte, 0.0% gc time)
  tm2s: 0.008835 sec (0 allocations: 0 byte, 0.0% gc time)
  tm4 : 0.230029 sec (0 allocations: 0 byte, 0.0% gc time)
  tp2 : 0.0 sec (0 allocations: 0 byte, 0.0% gc time)
  tp2s: 0.0 sec (0 allocations: 0 byte, 0.0% gc time)
  tp4 : 0.0 sec (0 allocations: 0 byte, 0.0% gc time)
calc_wtdll!:   0.639392 sec (49.2 k allocations: 11.133 MB, 0.0% gc time)
calc_wljj!:    0.043748 sec (69 allocations: 1.078 KB, 0.0% gc time)
mult_prefac!:  0.0 sec (0 allocations: 0 byte, 0.0% gc time)
convert:       0.0 sec (0 allocations: 0 byte, 0.0% gc time)
write:         0.042024 sec (0 allocations: 0 byte, 0.0% gc time)
test_rand_2f1: 0.0 sec (0 allocations: 0 byte, 0.0% gc time)
Closing outfile out/MlCache/MlCache.bin...   0.000009 seconds
xi, l=0, nu=0:   0.458343 seconds (551.98 k allocations: 26.845 MiB)
xi, l=0, nu=-2:  0.002264 seconds (144 allocations: 149.562 KiB)
Created 'out/xi.tsv'.
  q=1.1, R=0.6:	  0.818297 seconds (291.08 k allocations: 38.895 MiB, 2.29% gc time)
  q=1.1, R=0.7:	  0.957510 seconds (304.75 k allocations: 40.996 MiB, 1.32% gc time)
  q=1.1, R=0.8:	  0.875790 seconds (299.14 k allocations: 40.132 MiB, 1.03% gc time)
  q=1.1, R=0.9:	  1.092563 seconds (293.57 k allocations: 39.286 MiB, 0.67% gc time)
  q=1.1, R=0.998:	 22.250534 seconds (10.67 M allocations: 823.453 MiB, 0.27% gc time)
  q=1.1, R=1.0:	  0.004241 seconds (10.24 k allocations: 768.375 KiB)

ℓ = 1000
Δℓ = 4
ΔℓRg1 = -4
N = 4096
q = 1.1
kmin = 1.0e-5
kmax = 1000.0
χ0 = 0.001
RR = RR.tsv
ℓmax = ℓmax.bin
f21 = f21.bin
kmin = 1.0e-5
kmax = 1000.0
dlrec    = 4
dlrecRg1 = -4
Output size: 1573632 bytes = 0.0014655590057373047 GiB
Output size: 786816 bytes = 0.0007327795028686523 GiB
Reading 'out/F21EllCache'...   0.001332 seconds (268 allocations: 533.531 KiB)
ellmax: 1002
lmaxcache: 1000
fell[:,1,1] = Complex{Float64}[1.7262928128202118e-224 - 4.2281979352226944e-240im, 1.7282693092099662e-224 - 4.233038955177176e-240im]
ell 1002, elapsed: 7.796287536621094e-5
ell 1001, elapsed: 0.0008459091186523438
ell 1000, elapsed: 0.0007970333099365234
ell 999, elapsed: 0.006428956985473633
ell 998, elapsed: 0.0060389041900634766
ell 44, elapsed: 0.638361930847168
ell 43, elapsed: 0.005891084671020508
ell 42, elapsed: 0.005258083343505859
ell 41, elapsed: 0.005736112594604492
ell 40, elapsed: 0.005280971527099609
  0.682382 seconds (4.55 k allocations: 320.031 KiB)
elapsed: 0.006437778472900391
step:          0.635336 sec (0 allocations: 0 byte, 0.0% gc time)
swapping:      0.000653 sec (0 allocations: 0 byte, 0.0% gc time)
calc_Mellell!: 0.001151 sec (0 allocations: 0 byte, 0.0% gc time)
  t0 :  0.000407 sec (0 allocations: 0 byte, 0.0% gc time)
  tm2 : 0.010458 sec (0 allocations: 0 byte, 0.0% gc time)
  tm2s: 0.000267 sec (0 allocations: 0 byte, 0.0% gc time)
  tm4 : 0.027081 sec (0 allocations: 0 byte, 0.0% gc time)
  tp2 : 0.0 sec (0 allocations: 0 byte, 0.0% gc time)
  tp2s: 0.0 sec (0 allocations: 0 byte, 0.0% gc time)
  tp4 : 0.0 sec (0 allocations: 0 byte, 0.0% gc time)
calc_wtdll!:   0.038451 sec (480 allocations: 52.5 KB, 0.0% gc time)
calc_wljj!:    0.001116 sec (1 allocations: 16 byte, 0.0% gc time)
mult_prefac!:  0.0 sec (0 allocations: 0 byte, 0.0% gc time)
convert:       0.0 sec (0 allocations: 0 byte, 0.0% gc time)
write:         0.001109 sec (0 allocations: 0 byte, 0.0% gc time)
test_rand_2f1: 0.0 sec (0 allocations: 0 byte, 0.0% gc time)
Closing outfile out/MlCache/MlCache.bin...   0.000967 seconds
  0.487014 seconds (54 allocations: 67.203 KiB)
make_phi():   0.009329 seconds (80 allocations: 276.297 KiB)
  0.003195 seconds (108 allocations: 5.812 KiB)
tskip:       1.0e-6 sec (0 allocations: 0 byte, 0.0% gc time)
tread:       0.000756 sec (19 allocations: 1.312 KB, 0.0% gc time)
tmultphi:    0.0004 sec (0 allocations: 0 byte, 0.0% gc time)
tbrfft:      0.001148 sec (96 allocations: 4.5 KB, 0.0% gc time)
tmultprefac: 0.000846 sec (0 allocations: 0 byte, 0.0% gc time)
toutfunc:    0.000163 sec (0 allocations: 0 byte, 0.0% gc time)
Created 'out/wl42_jj00.tsv'.
Created 'out/wl42_jj02.tsv'.
   Testing TwoFAST tests passed 
