Julia Version 1.6.0-DEV.1034
Commit b1e1bb3138 (2020-09-24 17:32 UTC)
Platform Info:
  OS: Linux (x86_64-linux-gnu)
  CPU: Intel(R) Xeon(R) Silver 4114 CPU @ 2.20GHz
  WORD_SIZE: 64
  LIBM: libopenlibm
  LLVM: libLLVM-9.0.1 (ORCJIT, skylake-avx512)
Environment:
  JULIA_DEPOT_PATH = ::/usr/local/share/julia
  JULIA_NUM_THREADS = 2

  Resolving package versions...
  Installed Readables ──────────────────── v0.3.3
  Installed MKL_jll ────────────────────── v2020.2.254+0
  Installed AbstractFFTs ───────────────── v0.5.0
  Installed GenericSchur ───────────────── v0.4.0
  Installed SpecialFunctions ───────────── v0.10.3
  Installed BinaryProvider ─────────────── v0.5.10
  Installed FFTW ───────────────────────── v1.2.4
  Installed FFTW_jll ───────────────────── v3.3.9+5
  Installed OpenSpecFun_jll ────────────── v0.5.3+3
  Installed CompilerSupportLibraries_jll ─ v0.3.3+0
  Installed Reexport ───────────────────── v0.2.0
  Installed GenericSVD ─────────────────── v0.3.0
  Installed IntelOpenMP_jll ────────────── v2018.0.3+0
  Installed ArbNumerics ────────────────── v1.2.1
  Installed TwoFAST ────────────────────── v0.1.3
Updating `~/.julia/environments/v1.6/Project.toml`
  [0dd23c3e] + TwoFAST v0.1.3
Updating `~/.julia/environments/v1.6/Manifest.toml`
  [621f4979] + AbstractFFTs v0.5.0
  [7e558dbc] + ArbNumerics v1.2.1
  [b99e7846] + BinaryProvider v0.5.10
  [e66e0078] + CompilerSupportLibraries_jll v0.3.3+0
  [7a1cc6ca] + FFTW v1.2.4
  [f5851436] + FFTW_jll v3.3.9+5
  [01680d73] + GenericSVD v0.3.0
  [c145ed77] + GenericSchur v0.4.0
  [1d5cc7b8] + IntelOpenMP_jll v2018.0.3+0
  [856f044c] + MKL_jll v2020.2.254+0
  [efe28fd5] + OpenSpecFun_jll v0.5.3+3
  [0d4725de] + Readables v0.3.3
  [189a3867] + Reexport v0.2.0
  [276daf66] + SpecialFunctions v0.10.3
  [0dd23c3e] + TwoFAST v0.1.3
  [56f22d72] + Artifacts
  [2a0f44e3] + Base64
  [ade2ca70] + Dates
  [8bb1440f] + DelimitedFiles
  [8ba89e20] + Distributed
  [b77e0a4c] + InteractiveUtils
  [76f85450] + LibGit2
  [8f399da3] + Libdl
  [37e2e46d] + LinearAlgebra
  [56ddb016] + Logging
  [d6f4376e] + Markdown
  [a63ad114] + Mmap
  [44cfe95a] + Pkg
  [de0858da] + Printf
  [3fa0cd96] + REPL
  [9a3f8284] + Random
  [ea8e919c] + SHA
  [9e88b42a] + Serialization
  [6462fe0b] + Sockets
  [fa267f1f] + TOML
  [8dfed614] + Test
  [cf7118a7] + UUIDs
  [4ec0a83e] + Unicode
   Building FFTW ───────→ `~/.julia/packages/FFTW/DMUbN/deps/build.log`
   Building ArbNumerics → `~/.julia/packages/ArbNumerics/joGFm/deps/build.log`
    Testing TwoFAST
Status `/tmp/jl_5M1paS/Project.toml`
  [7e558dbc] ArbNumerics v1.2.1
  [39dd38d3] Dierckx v0.5.0
  [7a1cc6ca] FFTW v1.2.4
  [276daf66] SpecialFunctions v0.10.3
  [0dd23c3e] TwoFAST v0.1.3
  [8bb1440f] DelimitedFiles
  [37e2e46d] LinearAlgebra
  [56ddb016] Logging
  [8dfed614] Test
Status `/tmp/jl_5M1paS/Manifest.toml`
  [621f4979] AbstractFFTs v0.5.0
  [7e558dbc] ArbNumerics v1.2.1
  [b99e7846] BinaryProvider v0.5.10
  [e66e0078] CompilerSupportLibraries_jll v0.3.3+0
  [39dd38d3] Dierckx v0.5.0
  [cd4c43a9] Dierckx_jll v0.0.1+0
  [7a1cc6ca] FFTW v1.2.4
  [f5851436] FFTW_jll v3.3.9+5
  [01680d73] GenericSVD v0.3.0
  [c145ed77] GenericSchur v0.4.0
  [1d5cc7b8] IntelOpenMP_jll v2018.0.3+0
  [856f044c] MKL_jll v2020.2.254+0
  [efe28fd5] OpenSpecFun_jll v0.5.3+3
  [0d4725de] Readables v0.3.3
  [189a3867] Reexport v0.2.0
  [276daf66] SpecialFunctions v0.10.3
  [0dd23c3e] TwoFAST v0.1.3
  [56f22d72] Artifacts
  [2a0f44e3] Base64
  [ade2ca70] Dates
  [8bb1440f] DelimitedFiles
  [8ba89e20] Distributed
  [b77e0a4c] InteractiveUtils
  [76f85450] LibGit2
  [8f399da3] Libdl
  [37e2e46d] LinearAlgebra
  [56ddb016] Logging
  [d6f4376e] Markdown
  [a63ad114] Mmap
  [44cfe95a] Pkg
  [de0858da] Printf
  [3fa0cd96] REPL
  [9a3f8284] Random
  [ea8e919c] SHA
  [9e88b42a] Serialization
  [6462fe0b] Sockets
  [fa267f1f] TOML
  [8dfed614] Test
  [cf7118a7] UUIDs
  [4ec0a83e] Unicode
    Testing Running tests...
WARNING: could not import Printf.ini_hex into ArbNumerics
WARNING: could not import Printf.ini_HEX into ArbNumerics
t = 0.0 sec (0 allocations: 0 byte, 0.0% gc time)
typeof(t) = NamedTuple{(:value, :time, :bytes, :gctime, :gcstats), Tuple{DataType, Float64, Int64, Float64, Base.GC_Diff}}
TwoFAST.PerformanceStats.TimedType = Union{NamedTuple{(:value, :time, :bytes, :gctime, :gcstats), Tuple{T, Float64, Int64, Float64, Base.GC_Diff}}, Tuple{Any, Float64, Int64, Float64, Base.GC_Diff}} where T
t = 0.0 sec (0 allocations: 0 byte, 0.0% gc time)
t: 0.0 sec (0 allocations: 0 byte, 0.0% gc time)
Testing ξ(r), ℓ=0, ν=-1 ... passed
Testing ξ(r), ℓ=0, ν=0 ... passed
Testing ξ(r), ℓ=0, ν=1 ... passed
Testing ξ(r), ℓ=0, ν=2 ... passed
Testing ξ(r), ℓ=0, ν=3 ... passed
Testing ξ(r), ℓ=1, ν=0 ... passed
Testing ξ(r), ℓ=1, ν=1 ... passed
Testing ξ(r), ℓ=1, ν=2 ... passed
Testing ξ(r), ℓ=1, ν=3 ... passed
Testing ξ(r), ℓ=2, ν=-1 ... passed
Testing ξ(r), ℓ=2, ν=0 ... passed
Testing ξ(r), ℓ=2, ν=1 ... passed
Testing ξ(r), ℓ=2, ν=2 ... passed
Testing ξ(r), ℓ=2, ν=3 ... passed
Testing ξ(r), ℓ=3, ν=-1 ... passed
Testing ξ(r), ℓ=3, ν=0 ... passed
Testing ξ(r), ℓ=3, ν=1 ... passed
Testing ξ(r), ℓ=3, ν=2 ... passed
Testing ξ(r), ℓ=3, ν=3 ... passed
Testing ξ(r), ℓ=4, ν=-1 ... passed
Testing ξ(r), ℓ=4, ν=0 ... passed
Testing ξ(r), ℓ=4, ν=1 ... passed
Testing ξ(r), ℓ=4, ν=2 ... passed
Testing ξ(r), ℓ=4, ν=3 ... passed
Testing ξ(r) ... passed
Testing ξ′(r) ... passed
Testing ξ″(r) ... passed
Calculating fmax: 
  dlrec    = 4
  dlrecRg1 = -4
  q=1.1, R=1.1:	  4.077117 seconds (842.85 k allocations: 53.885 MiB)

  4.093726 seconds (855.51 k allocations: 54.674 MiB)
ℓ = 1202
Δℓ = 4
ΔℓRg1 = -4
N = 1600
q = 1.1
kmin = 1.0e-5
kmax = 100000.00000000004
χ0 = 0.023029999999999995
RR = RR.tsv
ℓmax = ℓmax.bin
f21 = f21.bin
kmin = 1.0e-5
kmax = 100000.0
dlrec    = 4
dlrecRg1 = -4
Output size: 5741568 bytes = 0.005347251892089844 GiB
Output size: 51264 bytes = 4.774332046508789e-5 GiB
Reading 'out/F21EllCache'...   0.623088 seconds (395.13 k allocations: 23.197 MiB, 4.41% gc time)
ellmax: 1202
lmaxcache: 1202
fell[:,1,1] = ComplexF64[3.9583795592771634e-52 - 9.695233714158177e-68im, 3.990121772925759e-52 - 9.772979714843386e-68im]
ell 1202, elapsed: 8.392333984375e-5
ell 1201, elapsed: 1.2596337795257568
ell 1200, elapsed: 0.0006089210510253906
ell 1199, elapsed: 0.0005290508270263672
ell 1198, elapsed: 0.000492095947265625
ell 1002, elapsed: 0.009498834609985352
ell 1001, elapsed: 0.0005650520324707031
ell 1000, elapsed: 0.0005331039428710938
ell 999, elapsed: 0.0005750656127929688
ell 998, elapsed: 0.0005209445953369141
ell 902, elapsed: 0.004937887191772461
ell 901, elapsed: 0.0005400180816650391
ell 900, elapsed: 0.0005102157592773438
ell 899, elapsed: 0.0005669593811035156
ell 898, elapsed: 0.0005488395690917969
ell 802, elapsed: 0.005072116851806641
ell 801, elapsed: 0.0005829334259033203
ell 800, elapsed: 0.0005438327789306641
ell 799, elapsed: 0.0005459785461425781
ell 798, elapsed: 0.0005478858947753906
ell 702, elapsed: 0.0050241947174072266
ell 701, elapsed: 0.0005528926849365234
ell 700, elapsed: 0.0005500316619873047
ell 699, elapsed: 0.000553131103515625
ell 698, elapsed: 0.0006248950958251953
ell 602, elapsed: 0.005148887634277344
ell 601, elapsed: 0.0005998611450195312
ell 600, elapsed: 0.0005810260772705078
ell 599, elapsed: 0.0005950927734375
ell 598, elapsed: 0.0006110668182373047
ell 502, elapsed: 0.005092144012451172
ell 501, elapsed: 0.0006139278411865234
ell 500, elapsed: 0.0005669593811035156
ell 499, elapsed: 0.0005819797515869141
ell 498, elapsed: 0.0005381107330322266
ell 402, elapsed: 0.004704952239990234
ell 401, elapsed: 0.0005838871002197266
ell 400, elapsed: 0.0005929470062255859
ell 399, elapsed: 0.0005879402160644531
ell 398, elapsed: 0.0005900859832763672
ell 302, elapsed: 0.00501704216003418
ell 301, elapsed: 0.0006401538848876953
ell 300, elapsed: 0.0006089210510253906
ell 299, elapsed: 0.0005998611450195312
ell 298, elapsed: 0.0006430149078369141
ell 202, elapsed: 0.005174160003662109
ell 201, elapsed: 0.0006470680236816406
ell 200, elapsed: 0.0006499290466308594
ell 199, elapsed: 0.0006229877471923828
ell 198, elapsed: 0.0006260871887207031
ell 152, elapsed: 0.0028100013732910156
ell 151, elapsed: 0.0006248950958251953
ell 150, elapsed: 0.0006320476531982422
ell 149, elapsed: 0.000621795654296875
ell 148, elapsed: 0.0006220340728759766
ell 127, elapsed: 0.0016338825225830078
ell 126, elapsed: 0.0006291866302490234
ell 125, elapsed: 0.0006229877471923828
ell 124, elapsed: 0.0006260871887207031
ell 123, elapsed: 0.0006268024444580078
ell 114, elapsed: 0.001065969467163086
ell 113, elapsed: 0.0006310939788818359
ell 112, elapsed: 0.0006389617919921875
ell 111, elapsed: 0.0007112026214599609
ell 110, elapsed: 0.0005269050598144531
ell 102, elapsed: 0.0009248256683349609
ell 101, elapsed: 0.0006320476531982422
ell 100, elapsed: 0.0006310939788818359
ell 99, elapsed: 0.0005230903625488281
ell 98, elapsed: 0.0005791187286376953
ell 97, elapsed: 0.0006477832794189453
ell 96, elapsed: 0.0006051063537597656
ell 95, elapsed: 0.0006220340728759766
ell 94, elapsed: 0.0006148815155029297
ell 93, elapsed: 0.0005450248718261719
ell 92, elapsed: 0.0005519390106201172
ell 91, elapsed: 0.0006129741668701172
ell 90, elapsed: 0.0005419254302978516
ell 89, elapsed: 0.0005490779876708984
ell 88, elapsed: 0.0006189346313476562
ell 87, elapsed: 0.0005409717559814453
ell 86, elapsed: 0.0006229877471923828
ell 85, elapsed: 0.0006101131439208984
ell 84, elapsed: 0.0005428791046142578
ell 83, elapsed: 0.0005419254302978516
ell 82, elapsed: 0.0006289482116699219
ell 81, elapsed: 0.0005891323089599609
ell 80, elapsed: 0.0006020069122314453
ell 79, elapsed: 0.0005469322204589844
ell 78, elapsed: 0.0006189346313476562
ell 77, elapsed: 0.0005829334259033203
ell 76, elapsed: 0.0006330013275146484
ell 75, elapsed: 0.0006139278411865234
ell 74, elapsed: 0.0006198883056640625
ell 73, elapsed: 0.0006139278411865234
ell 72, elapsed: 0.0006279945373535156
ell 71, elapsed: 0.0005900859832763672
ell 70, elapsed: 0.0005428791046142578
ell 69, elapsed: 0.0006091594696044922
ell 68, elapsed: 0.0005750656127929688
ell 67, elapsed: 0.0006070137023925781
ell 66, elapsed: 0.0005891323089599609
ell 65, elapsed: 0.0005979537963867188
ell 64, elapsed: 0.0005450248718261719
ell 63, elapsed: 0.0005400180816650391
ell 62, elapsed: 0.0005490779876708984
ell 61, elapsed: 0.0006320476531982422
ell 60, elapsed: 0.0006208419799804688
ell 59, elapsed: 0.0006201267242431641
ell 58, elapsed: 0.0005939006805419922
ell 57, elapsed: 0.0005450248718261719
ell 56, elapsed: 0.0006320476531982422
ell 55, elapsed: 0.0006279945373535156
ell 54, elapsed: 0.0005471706390380859
ell 53, elapsed: 0.0006191730499267578
ell 52, elapsed: 0.0005879402160644531
ell 51, elapsed: 0.0006268024444580078
ell 50, elapsed: 0.0005438327789306641
ell 49, elapsed: 0.0005500316619873047
ell 48, elapsed: 0.0005421638488769531
ell 47, elapsed: 0.0006270408630371094
ell 46, elapsed: 0.0006229877471923828
ell 45, elapsed: 0.0006120204925537109
ell 44, elapsed: 0.0006170272827148438
ell 43, elapsed: 0.0005388259887695312
ell 42, elapsed: 0.0005810260772705078
ell 41, elapsed: 0.0006051063537597656
ell 40, elapsed: 0.0006299018859863281
ell 39, elapsed: 0.0006198883056640625
ell 38, elapsed: 0.0005848407745361328
ell 37, elapsed: 0.0006167888641357422
ell 36, elapsed: 0.0005769729614257812
ell 35, elapsed: 0.0005860328674316406
ell 34, elapsed: 0.0005791187286376953
ell 33, elapsed: 0.0005819797515869141
ell 32, elapsed: 0.0005829334259033203
ell 31, elapsed: 0.0005779266357421875
ell 30, elapsed: 0.0005450248718261719
ell 29, elapsed: 0.0006101131439208984
ell 28, elapsed: 0.0005841255187988281
ell 27, elapsed: 0.0005991458892822266
ell 26, elapsed: 0.0005800724029541016
ell 25, elapsed: 0.000579833984375
ell 24, elapsed: 0.000579833984375
ell 23, elapsed: 0.0005939006805419922
ell 22, elapsed: 0.0005850791931152344
ell 21, elapsed: 0.0005741119384765625
ell 20, elapsed: 0.0005829334259033203
ell 19, elapsed: 0.0005900859832763672
ell 18, elapsed: 0.0005781650543212891
ell 17, elapsed: 0.0006051063537597656
ell 16, elapsed: 0.0005800724029541016
ell 15, elapsed: 0.0005860328674316406
ell 14, elapsed: 0.000579833984375
ell 13, elapsed: 0.0006608963012695312
ell 12, elapsed: 0.0005900859832763672
ell 11, elapsed: 0.0005819797515869141
ell 10, elapsed: 0.0005948543548583984
ell 9, elapsed: 0.0005800724029541016
ell 8, elapsed: 0.0005829334259033203
ell 7, elapsed: 0.0006668567657470703
ell 6, elapsed: 0.0006639957427978516
ell 5, elapsed: 0.0005979537963867188
ell 4, elapsed: 0.0005819797515869141
ell 3, elapsed: 0.0006079673767089844
ell 2, elapsed: 0.0006248950958251953
ell 1, elapsed: 0.0005741119384765625
ell 0, elapsed: 0.0006661415100097656
  1.950621 seconds (1.30 M allocations: 70.957 MiB, 2.62% gc time)
elapsed: 0.0010840892791748047
step:          0.401783 sec (311.142 k allocations: 16.962 MB, 6.09% gc time)
swapping:      0.000381 sec (0 allocations: 0 byte, 0.0% gc time)
calc_Mellell!: 0.131723 sec (135.742 k allocations: 7.433 MB, 0.0% gc time)
  t0 :  0.0 sec (0 allocations: 0 byte, 0.0% gc time)
  tm2 : 0.0 sec (0 allocations: 0 byte, 0.0% gc time)
  tm2s: 0.0 sec (0 allocations: 0 byte, 0.0% gc time)
  tm4 : 0.0 sec (0 allocations: 0 byte, 0.0% gc time)
  tp2 : 0.0 sec (0 allocations: 0 byte, 0.0% gc time)
  tp2s: 0.0 sec (0 allocations: 0 byte, 0.0% gc time)
  tp4 : 0.0 sec (0 allocations: 0 byte, 0.0% gc time)
calc_wtdll!:   0.854141 sec (509.618 k allocations: 28.2 MB, 0.0% gc time)
calc_wljj!:    0.002672 sec (6 allocations: 96 byte, 0.0% gc time)
mult_prefac!:  0.0 sec (0 allocations: 0 byte, 0.0% gc time)
convert:       0.0 sec (0 allocations: 0 byte, 0.0% gc time)
write:         0.003551 sec (0 allocations: 0 byte, 0.0% gc time)
test_rand_2f1: 0.0 sec (0 allocations: 0 byte, 0.0% gc time)
Closing outfile out/Ml21-cache.bin...   0.000010 seconds
  1.077421 seconds (246.28 k allocations: 14.218 MiB)
make_phi():   0.012208 seconds (8.18 k allocations: 237.844 KiB)
  0.250341 seconds (87.57 k allocations: 4.749 MiB)
tskip:       3.1e-5 sec (0 allocations: 0 byte, 0.0% gc time)
tread:       0.003485 sec (17 allocations: 2.125 KB, 0.0% gc time)
tmultphi:    0.034669 sec (21.425 k allocations: 1.287 MB, 0.0% gc time)
tbrfft:      0.006589 sec (0 allocations: 0 byte, 0.0% gc time)
tmultprefac: 0.004572 sec (0 allocations: 0 byte, 0.0% gc time)
toutfunc:    0.158022 sec (64.484 k allocations: 3.33 MB, 0.0% gc time)
Testing R=1.1 ... passed
Calculating fmax: 
  dlrec    = 4
  dlrecRg1 = -4
  q=1.1, R=1.0:	  0.001563 seconds (3.20 k allocations: 275.344 KiB)

  0.001884 seconds (3.34 k allocations: 311.422 KiB)
ℓ = 1202
Δℓ = 4
ΔℓRg1 = -4
N = 1600
q = 1.1
kmin = 1.0e-5
kmax = 100000.00000000004
χ0 = 0.023029999999999995
RR = RR.tsv
ℓmax = ℓmax.bin
f21 = f21.bin
kmin = 1.0e-5
kmax = 100000.0
dlrec    = 4
dlrecRg1 = -4
Output size: 61465536 bytes = 0.05724424123764038 GiB
Output size: 51264 bytes = 4.774332046508789e-5 GiB
Reading 'out/F21EllCache'...   0.000999 seconds (197 allocations: 84.203 KiB)
ellmax: 1202
lmaxcache: 1202
fell[:,1,1] = ComplexF64[809.6031528389767 - 1.9829558194077161e-13im, 0.0 + 0.0im]
ell 1202, elapsed: 0.0001499652862548828
ell 1201, elapsed: 0.01525115966796875
ell 1200, elapsed: 0.016689062118530273
ell 1199, elapsed: 0.0005300045013427734
ell 1198, elapsed: 0.0005269050598144531
ell 1197, elapsed: 0.000637054443359375
ell 1196, elapsed: 0.0006489753723144531
ell 1195, elapsed: 0.0006158351898193359
ell 1194, elapsed: 0.0006439685821533203
ell 1193, elapsed: 0.0005931854248046875
ell 1192, elapsed: 0.0005328655242919922
ell 1191, elapsed: 0.0005178451538085938
ell 1190, elapsed: 0.0005140304565429688
ell 1189, elapsed: 0.0005071163177490234
ell 1188, elapsed: 0.0005669593811035156
ell 1187, elapsed: 0.0007781982421875
ell 1186, elapsed: 0.0005898475646972656
ell 1185, elapsed: 0.0005788803100585938
ell 1184, elapsed: 0.0008151531219482422
ell 1183, elapsed: 0.0006198883056640625
ell 1182, elapsed: 0.0005860328674316406
ell 1181, elapsed: 0.0005929470062255859
ell 1180, elapsed: 0.0007169246673583984
ell 1179, elapsed: 0.0007719993591308594
ell 1178, elapsed: 0.0006148815155029297
ell 1177, elapsed: 0.0006079673767089844
ell 1176, elapsed: 0.0006890296936035156
ell 1175, elapsed: 0.0006191730499267578
ell 1174, elapsed: 0.0008549690246582031
ell 1173, elapsed: 0.0008521080017089844
ell 1172, elapsed: 0.0006160736083984375
ell 1171, elapsed: 0.0006089210510253906
ell 1170, elapsed: 0.0006020069122314453
ell 1169, elapsed: 0.0005950927734375
ell 1168, elapsed: 0.0006840229034423828
ell 1167, elapsed: 0.0006210803985595703
ell 1166, elapsed: 0.0006759166717529297
ell 1165, elapsed: 0.0005869865417480469
ell 1164, elapsed: 0.0006151199340820312
ell 1163, elapsed: 0.0007860660552978516
ell 1162, elapsed: 0.0006330013275146484
ell 1161, elapsed: 0.0006229877471923828
ell 1160, elapsed: 0.0006108283996582031
ell 1159, elapsed: 0.0006060600280761719
ell 1158, elapsed: 0.0007660388946533203
ell 1157, elapsed: 0.0006299018859863281
ell 1156, elapsed: 0.0008730888366699219
ell 1155, elapsed: 0.0006170272827148438
ell 1154, elapsed: 0.0006389617919921875
ell 1153, elapsed: 0.0006060600280761719
ell 1152, elapsed: 0.0006399154663085938
ell 1151, elapsed: 0.0005939006805419922
ell 1150, elapsed: 0.0006480216979980469
ell 1149, elapsed: 0.0006470680236816406
ell 1148, elapsed: 0.0005540847778320312
ell 1147, elapsed: 0.0006129741668701172
ell 1146, elapsed: 0.0007538795471191406
ell 1145, elapsed: 0.0005350112915039062
ell 1144, elapsed: 0.0005550384521484375
ell 1143, elapsed: 0.0005512237548828125
ell 1142, elapsed: 0.0005550384521484375
ell 1141, elapsed: 0.0005710124969482422
ell 1140, elapsed: 0.0006330013275146484
ell 1139, elapsed: 0.0006120204925537109
ell 1138, elapsed: 0.0008530616760253906
ell 1137, elapsed: 0.0006258487701416016
ell 1136, elapsed: 0.0006120204925537109
ell 1135, elapsed: 0.0005979537963867188
ell 1134, elapsed: 0.0005948543548583984
ell 1133, elapsed: 0.0006048679351806641
ell 1132, elapsed: 0.0006501674652099609
ell 1131, elapsed: 0.0008258819580078125
ell 1130, elapsed: 0.0005991458892822266
ell 1129, elapsed: 0.0006389617919921875
ell 1128, elapsed: 0.0008001327514648438
ell 1127, elapsed: 0.0006082057952880859
ell 1126, elapsed: 0.0005710124969482422
ell 1125, elapsed: 0.0007379055023193359
ell 1124, elapsed: 0.0005631446838378906
ell 1123, elapsed: 0.0005960464477539062
ell 1122, elapsed: 0.0006670951843261719
ell 1121, elapsed: 0.0005450248718261719
ell 1120, elapsed: 0.0005600452423095703
ell 1119, elapsed: 0.0005230903625488281
ell 1118, elapsed: 0.0005309581756591797
ell 1117, elapsed: 0.0005371570587158203
ell 1116, elapsed: 0.0005319118499755859
ell 1115, elapsed: 0.0005080699920654297
ell 1114, elapsed: 0.0007431507110595703
ell 1113, elapsed: 0.0007238388061523438
ell 1112, elapsed: 0.0006859302520751953
ell 1111, elapsed: 0.0006759166717529297
ell 1110, elapsed: 0.0005309581756591797
ell 1109, elapsed: 0.0007479190826416016
ell 1108, elapsed: 0.0006740093231201172
ell 1107, elapsed: 0.0007710456848144531
ell 1106, elapsed: 0.0006849765777587891
ell 1105, elapsed: 0.0006251335144042969
ell 1104, elapsed: 0.0007369518280029297
ell 1103, elapsed: 0.0007340908050537109
ell 1102, elapsed: 0.0007829666137695312
ell 1101, elapsed: 0.0007388591766357422
ell 1100, elapsed: 0.0007920265197753906
ell 1099, elapsed: 0.0007688999176025391
ell 1098, elapsed: 0.0004742145538330078
ell 1097, elapsed: 0.0004849433898925781
ell 1096, elapsed: 0.0004649162292480469
ell 1095, elapsed: 0.0004630088806152344
ell 1094, elapsed: 0.0004661083221435547
ell 1093, elapsed: 0.0008289813995361328
ell 1092, elapsed: 0.0006268024444580078
ell 1091, elapsed: 0.0008029937744140625
ell 1090, elapsed: 0.0008480548858642578
ell 1089, elapsed: 0.0007698535919189453
ell 1088, elapsed: 0.0006821155548095703
ell 1087, elapsed: 0.0007281303405761719
ell 1086, elapsed: 0.0008261203765869141
ell 1085, elapsed: 0.0008039474487304688
ell 1084, elapsed: 0.0006430149078369141
ell 1083, elapsed: 0.0006749629974365234
ell 1082, elapsed: 0.0007550716400146484
ell 1081, elapsed: 0.0006799697875976562
ell 1080, elapsed: 0.0007760524749755859
ell 1079, elapsed: 0.0005738735198974609
ell 1078, elapsed: 0.0006899833679199219
ell 1077, elapsed: 0.0006690025329589844
ell 1076, elapsed: 0.0006639957427978516
ell 1075, elapsed: 0.0005779266357421875
ell 1074, elapsed: 0.0005400180816650391
ell 1073, elapsed: 0.0005469322204589844
ell 1072, elapsed: 0.0007710456848144531
ell 1071, elapsed: 0.0005791187286376953
ell 1070, elapsed: 0.000675201416015625
ell 1069, elapsed: 0.0004980564117431641
ell 1068, elapsed: 0.00043201446533203125
ell 1067, elapsed: 0.0005440711975097656
ell 1066, elapsed: 0.0007028579711914062
ell 1065, elapsed: 0.0006868839263916016
ell 1064, elapsed: 0.0006570816040039062
ell 1063, elapsed: 0.0005002021789550781
ell 1062, elapsed: 0.0004279613494873047
ell 1061, elapsed: 0.0005300045013427734
ell 1060, elapsed: 0.0008718967437744141
ell 1059, elapsed: 0.00045680999755859375
ell 1058, elapsed: 0.0004940032958984375
ell 1057, elapsed: 0.0006699562072753906
ell 1056, elapsed: 0.0004999637603759766
ell 1055, elapsed: 0.00042891502380371094
ell 1054, elapsed: 0.0007560253143310547
ell 1053, elapsed: 0.0007531642913818359
ell 1052, elapsed: 0.0007390975952148438
ell 1051, elapsed: 0.0005080699920654297
ell 1050, elapsed: 0.0006949901580810547
ell 1049, elapsed: 0.0006840229034423828
ell 1048, elapsed: 0.0006680488586425781
ell 1047, elapsed: 0.0005400180816650391
ell 1046, elapsed: 0.0004260540008544922
ell 1045, elapsed: 0.0005979537963867188
ell 1044, elapsed: 0.0007729530334472656
ell 1043, elapsed: 0.0005030632019042969
ell 1042, elapsed: 0.00039005279541015625
ell 1041, elapsed: 0.00039386749267578125
ell 1040, elapsed: 0.00039696693420410156
ell 1039, elapsed: 0.00039505958557128906
ell 1038, elapsed: 0.00039696693420410156
ell 1037, elapsed: 0.0003941059112548828
ell 1036, elapsed: 0.00039196014404296875
ell 1035, elapsed: 0.0007131099700927734
ell 1034, elapsed: 0.0006289482116699219
ell 1033, elapsed: 0.0005991458892822266
ell 1032, elapsed: 0.0006668567657470703
ell 1031, elapsed: 0.0006690025329589844
ell 1030, elapsed: 0.0007259845733642578
ell 1029, elapsed: 0.0007309913635253906
ell 1028, elapsed: 0.0005338191986083984
ell 1027, elapsed: 0.0006659030914306641
ell 1026, elapsed: 0.0006120204925537109
ell 1025, elapsed: 0.0005958080291748047
ell 1024, elapsed: 0.0007119178771972656
ell 1023, elapsed: 0.0005548000335693359
ell 1022, elapsed: 0.00061798095703125
ell 1021, elapsed: 0.0006239414215087891
ell 1020, elapsed: 0.0006771087646484375
ell 1019, elapsed: 0.0006930828094482422
ell 1018, elapsed: 0.0006930828094482422
ell 1017, elapsed: 0.0006809234619140625
ell 1016, elapsed: 0.0006799697875976562
ell 1015, elapsed: 0.0006868839263916016
ell 1014, elapsed: 0.0008788108825683594
ell 1013, elapsed: 0.0005857944488525391
ell 1012, elapsed: 0.0005981922149658203
ell 1011, elapsed: 0.0004189014434814453
ell 1010, elapsed: 0.0004279613494873047
ell 1009, elapsed: 0.00041794776916503906
ell 1008, elapsed: 0.00042510032653808594
ell 1007, elapsed: 0.0005459785461425781
ell 1006, elapsed: 0.00043582916259765625
ell 1005, elapsed: 0.00041985511779785156
ell 1004, elapsed: 0.0006101131439208984
ell 1003, elapsed: 0.0005421638488769531
ell 1002, elapsed: 0.0004229545593261719
ell 1001, elapsed: 0.00043010711669921875
ell 1000, elapsed: 0.0004241466522216797
ell 999, elapsed: 0.0006031990051269531
ell 998, elapsed: 0.0005578994750976562
ell 997, elapsed: 0.0005500316619873047
ell 996, elapsed: 0.0005598068237304688
ell 995, elapsed: 0.0005550384521484375
ell 994, elapsed: 0.0005500316619873047
ell 993, elapsed: 0.0005371570587158203
ell 992, elapsed: 0.0004229545593261719
ell 991, elapsed: 0.00043010711669921875
ell 990, elapsed: 0.00042700767517089844
ell 989, elapsed: 0.0004298686981201172
ell 988, elapsed: 0.0004341602325439453
ell 987, elapsed: 0.0004279613494873047
ell 986, elapsed: 0.0004382133483886719
ell 985, elapsed: 0.0005631446838378906
ell 984, elapsed: 0.00043010711669921875
ell 983, elapsed: 0.0004360675811767578
ell 982, elapsed: 0.00041484832763671875
ell 981, elapsed: 0.00042510032653808594
ell 980, elapsed: 0.0004150867462158203
ell 979, elapsed: 0.0004181861877441406
ell 978, elapsed: 0.0004558563232421875
ell 977, elapsed: 0.0006139278411865234
ell 976, elapsed: 0.0005588531494140625
ell 975, elapsed: 0.0005450248718261719
ell 974, elapsed: 0.0005080699920654297
ell 973, elapsed: 0.000514984130859375
ell 972, elapsed: 0.0005080699920654297
ell 971, elapsed: 0.0005271434783935547
ell 970, elapsed: 0.0003991127014160156
ell 969, elapsed: 0.00039887428283691406
ell 968, elapsed: 0.00039696693420410156
ell 967, elapsed: 0.0003979206085205078
ell 966, elapsed: 0.0004010200500488281
ell 965, elapsed: 0.00039505958557128906
ell 964, elapsed: 0.0003979206085205078
ell 963, elapsed: 0.0003979206085205078
ell 962, elapsed: 0.0003960132598876953
ell 961, elapsed: 0.0005559921264648438
ell 960, elapsed: 0.0004551410675048828
ell 959, elapsed: 0.0005090236663818359
ell 958, elapsed: 0.0005118846893310547
ell 957, elapsed: 0.0005068778991699219
ell 956, elapsed: 0.0004658699035644531
ell 955, elapsed: 0.000453948974609375
ell 954, elapsed: 0.00045108795166015625
ell 953, elapsed: 0.0003948211669921875
ell 952, elapsed: 0.0003941059112548828
ell 951, elapsed: 0.00039696693420410156
ell 950, elapsed: 0.000392913818359375
ell 949, elapsed: 0.0003941059112548828
ell 948, elapsed: 0.00038909912109375
ell 947, elapsed: 0.0003879070281982422
ell 946, elapsed: 0.00039887428283691406
ell 945, elapsed: 0.0005130767822265625
ell 944, elapsed: 0.0004010200500488281
ell 943, elapsed: 0.0003910064697265625
ell 942, elapsed: 0.0003941059112548828
ell 941, elapsed: 0.00039505958557128906
ell 940, elapsed: 0.0003921985626220703
ell 939, elapsed: 0.00039386749267578125
ell 938, elapsed: 0.00039196014404296875
ell 937, elapsed: 0.00039005279541015625
ell 936, elapsed: 0.0005481243133544922
ell 935, elapsed: 0.00045418739318847656
ell 934, elapsed: 0.0005130767822265625
ell 933, elapsed: 0.0004551410675048828
ell 932, elapsed: 0.0005099773406982422
ell 931, elapsed: 0.0005118846893310547
ell 930, elapsed: 0.0005099773406982422
ell 929, elapsed: 0.0004730224609375
ell 928, elapsed: 0.0005030632019042969
ell 927, elapsed: 0.0005061626434326172
ell 926, elapsed: 0.0005059242248535156
ell 925, elapsed: 0.0005049705505371094
ell 924, elapsed: 0.0005099773406982422
ell 923, elapsed: 0.0005059242248535156
ell 922, elapsed: 0.00049591064453125
ell 921, elapsed: 0.00040221214294433594
ell 920, elapsed: 0.000392913818359375
ell 919, elapsed: 0.00039696693420410156
ell 918, elapsed: 0.00039005279541015625
ell 917, elapsed: 0.000392913818359375
ell 916, elapsed: 0.0004029273986816406
ell 915, elapsed: 0.0003941059112548828
ell 914, elapsed: 0.0004050731658935547
ell 913, elapsed: 0.0005381107330322266
ell 912, elapsed: 0.00043392181396484375
ell 911, elapsed: 0.0004000663757324219
ell 910, elapsed: 0.00039505958557128906
ell 909, elapsed: 0.0003979206085205078
ell 908, elapsed: 0.00039196014404296875
ell 907, elapsed: 0.0003979206085205078
ell 906, elapsed: 0.000392913818359375
ell 905, elapsed: 0.0003960132598876953
ell 904, elapsed: 0.0005350112915039062
ell 903, elapsed: 0.0004000663757324219
ell 902, elapsed: 0.0004000663757324219
ell 901, elapsed: 0.0003960132598876953
ell 900, elapsed: 0.00039005279541015625
ell 899, elapsed: 0.0003960132598876953
ell 898, elapsed: 0.000392913818359375
ell 897, elapsed: 0.00039696693420410156
ell 896, elapsed: 0.0003941059112548828
ell 895, elapsed: 0.0005559921264648438
ell 894, elapsed: 0.00043702125549316406
ell 893, elapsed: 0.0004329681396484375
ell 892, elapsed: 0.0004260540008544922
ell 891, elapsed: 0.00041794776916503906
ell 890, elapsed: 0.0004999637603759766
ell 889, elapsed: 0.0006539821624755859
ell 888, elapsed: 0.0006201267242431641
ell 887, elapsed: 0.00046515464782714844
ell 886, elapsed: 0.0004639625549316406
ell 885, elapsed: 0.0004630088806152344
ell 884, elapsed: 0.00047206878662109375
ell 883, elapsed: 0.0004639625549316406
ell 882, elapsed: 0.0004811286926269531
ell 881, elapsed: 0.0005259513854980469
ell 880, elapsed: 0.0005061626434326172
ell 879, elapsed: 0.0005209445953369141
ell 878, elapsed: 0.00047206878662109375
ell 877, elapsed: 0.00046706199645996094
ell 876, elapsed: 0.0005209445953369141
ell 875, elapsed: 0.00047397613525390625
ell 874, elapsed: 0.0004661083221435547
ell 873, elapsed: 0.0004630088806152344
ell 872, elapsed: 0.00047016143798828125
ell 871, elapsed: 0.0004639625549316406
ell 870, elapsed: 0.0005021095275878906
ell 869, elapsed: 0.00048613548278808594
ell 868, elapsed: 0.0004730224609375
ell 867, elapsed: 0.0004680156707763672
ell 866, elapsed: 0.00045990943908691406
ell 865, elapsed: 0.00047087669372558594
ell 864, elapsed: 0.0004718303680419922
ell 863, elapsed: 0.00046706199645996094
ell 862, elapsed: 0.000469207763671875
ell 861, elapsed: 0.0004558563232421875
ell 860, elapsed: 0.00046896934509277344
ell 859, elapsed: 0.0004649162292480469
ell 858, elapsed: 0.0004820823669433594
ell 857, elapsed: 0.0004730224609375
ell 856, elapsed: 0.0004940032958984375
ell 855, elapsed: 0.00046896934509277344
ell 854, elapsed: 0.0004627704620361328
ell 853, elapsed: 0.0004680156707763672
ell 852, elapsed: 0.0004930496215820312
ell 851, elapsed: 0.00047278404235839844
ell 850, elapsed: 0.0004649162292480469
ell 849, elapsed: 0.00047397613525390625
ell 848, elapsed: 0.0004668235778808594
ell 847, elapsed: 0.00046896934509277344
ell 846, elapsed: 0.0004680156707763672
ell 845, elapsed: 0.0004680156707763672
ell 844, elapsed: 0.0004661083221435547
ell 843, elapsed: 0.0004730224609375
ell 842, elapsed: 0.00036597251892089844
ell 841, elapsed: 0.0003361701965332031
ell 840, elapsed: 0.0003581047058105469
ell 839, elapsed: 0.0006339550018310547
ell 838, elapsed: 0.00074005126953125
ell 837, elapsed: 0.000701904296875
ell 836, elapsed: 0.0006978511810302734
ell 835, elapsed: 0.0006990432739257812
ell 834, elapsed: 0.0006949901580810547
ell 833, elapsed: 0.004314899444580078
ell 832, elapsed: 0.00041604042053222656
ell 831, elapsed: 0.0005369186401367188
ell 830, elapsed: 0.00040912628173828125
ell 829, elapsed: 0.000331878662109375
ell 828, elapsed: 0.00033593177795410156
ell 827, elapsed: 0.0003299713134765625
ell 826, elapsed: 0.0003299713134765625
ell 825, elapsed: 0.0003330707550048828
ell 824, elapsed: 0.0003299713134765625
ell 823, elapsed: 0.0003478527069091797
ell 822, elapsed: 0.0003349781036376953
ell 821, elapsed: 0.00033211708068847656
ell 820, elapsed: 0.0003387928009033203
ell 819, elapsed: 0.0003349781036376953
ell 818, elapsed: 0.0003459453582763672
ell 817, elapsed: 0.00035190582275390625
ell 816, elapsed: 0.00044608116149902344
ell 815, elapsed: 0.0006799697875976562
ell 814, elapsed: 0.0007219314575195312
ell 813, elapsed: 0.0006909370422363281
ell 812, elapsed: 0.0006921291351318359
ell 811, elapsed: 0.0006959438323974609
ell 810, elapsed: 0.0006418228149414062
ell 809, elapsed: 0.0007441043853759766
ell 808, elapsed: 0.0006928443908691406
ell 807, elapsed: 0.0006840229034423828
ell 806, elapsed: 0.0006809234619140625
ell 805, elapsed: 0.0006809234619140625
ell 804, elapsed: 0.0007319450378417969
ell 803, elapsed: 0.0006771087646484375
ell 802, elapsed: 0.0006821155548095703
ell 801, elapsed: 0.0006859302520751953
ell 800, elapsed: 0.0006811618804931641
ell 799, elapsed: 0.0007090568542480469
ell 798, elapsed: 0.0006968975067138672
ell 797, elapsed: 0.0006859302520751953
ell 796, elapsed: 0.0006859302520751953
ell 795, elapsed: 0.0006849765777587891
ell 794, elapsed: 0.0005121231079101562
ell 793, elapsed: 0.0007240772247314453
ell 792, elapsed: 0.0006861686706542969
ell 791, elapsed: 0.0006868839263916016
ell 790, elapsed: 0.0006871223449707031
ell 789, elapsed: 0.0006871223449707031
ell 788, elapsed: 0.0007309913635253906
ell 787, elapsed: 0.0007030963897705078
ell 786, elapsed: 0.0007150173187255859
ell 785, elapsed: 0.0007200241088867188
ell 784, elapsed: 0.000720977783203125
ell 783, elapsed: 0.0007510185241699219
ell 782, elapsed: 0.0006678104400634766
ell 781, elapsed: 0.0006887912750244141
ell 780, elapsed: 0.000682830810546875
ell 779, elapsed: 0.0006890296936035156
ell 778, elapsed: 0.0007138252258300781
ell 777, elapsed: 0.0006949901580810547
ell 776, elapsed: 0.0006899833679199219
ell 775, elapsed: 0.0006878376007080078
ell 774, elapsed: 0.0006880760192871094
ell 773, elapsed: 0.0006859302520751953
ell 772, elapsed: 0.0007159709930419922
ell 771, elapsed: 0.0006930828094482422
ell 770, elapsed: 0.0006830692291259766
ell 769, elapsed: 0.0006899833679199219
ell 768, elapsed: 0.0006849765777587891
ell 767, elapsed: 0.0007500648498535156
ell 766, elapsed: 0.0005719661712646484
ell 765, elapsed: 0.0005331039428710938
ell 764, elapsed: 0.00035500526428222656
ell 763, elapsed: 0.0003390312194824219
ell 762, elapsed: 0.0003352165222167969
ell 761, elapsed: 0.0003421306610107422
ell 760, elapsed: 0.0003399848937988281
ell 759, elapsed: 0.00037288665771484375
ell 758, elapsed: 0.0003991127014160156
ell 757, elapsed: 0.00039315223693847656
ell 756, elapsed: 0.0003998279571533203
ell 755, elapsed: 0.00039005279541015625
ell 754, elapsed: 0.0003972053527832031
ell 753, elapsed: 0.0003910064697265625
ell 752, elapsed: 0.00039505958557128906
ell 751, elapsed: 0.00039505958557128906
ell 750, elapsed: 0.0004150867462158203
ell 749, elapsed: 0.00041604042053222656
ell 748, elapsed: 0.0003960132598876953
ell 747, elapsed: 0.0003972053527832031
ell 746, elapsed: 0.000392913818359375
ell 745, elapsed: 0.0003910064697265625
ell 744, elapsed: 0.0003991127014160156
ell 743, elapsed: 0.000392913818359375
ell 742, elapsed: 0.0003960132598876953
ell 741, elapsed: 0.00039196014404296875
ell 740, elapsed: 0.0004367828369140625
ell 739, elapsed: 0.0004010200500488281
ell 738, elapsed: 0.0003948211669921875
ell 737, elapsed: 0.0003979206085205078
ell 736, elapsed: 0.00039315223693847656
ell 735, elapsed: 0.00039196014404296875
ell 734, elapsed: 0.00039505958557128906
ell 733, elapsed: 0.0003921985626220703
ell 732, elapsed: 0.0004010200500488281
ell 731, elapsed: 0.00046896934509277344
ell 730, elapsed: 0.0003941059112548828
ell 729, elapsed: 0.0003960132598876953
ell 728, elapsed: 0.0003910064697265625
ell 727, elapsed: 0.00039887428283691406
ell 726, elapsed: 0.0003910064697265625
ell 725, elapsed: 0.0004000663757324219
ell 724, elapsed: 0.000392913818359375
ell 723, elapsed: 0.00039386749267578125
ell 722, elapsed: 0.0045011043548583984
ell 721, elapsed: 0.00042700767517089844
ell 720, elapsed: 0.0004220008850097656
ell 719, elapsed: 0.00041794776916503906
ell 718, elapsed: 0.0004260540008544922
ell 717, elapsed: 0.0004220008850097656
ell 716, elapsed: 0.00041604042053222656
ell 715, elapsed: 0.0004239082336425781
ell 714, elapsed: 0.0004279613494873047
ell 713, elapsed: 0.0004189014434814453
ell 712, elapsed: 0.0004200935363769531
ell 711, elapsed: 0.0004200935363769531
ell 710, elapsed: 0.0003981590270996094
ell 709, elapsed: 0.00039505958557128906
ell 708, elapsed: 0.000392913818359375
ell 707, elapsed: 0.0003960132598876953
ell 706, elapsed: 0.00039005279541015625
ell 705, elapsed: 0.000431060791015625
ell 704, elapsed: 0.0004220008850097656
ell 703, elapsed: 0.00041604042053222656
ell 702, elapsed: 0.0004229545593261719
ell 701, elapsed: 0.00041413307189941406
ell 700, elapsed: 0.0004210472106933594
ell 699, elapsed: 0.0004150867462158203
ell 698, elapsed: 0.0004191398620605469
ell 697, elapsed: 0.0004260540008544922
ell 696, elapsed: 0.00039386749267578125
ell 695, elapsed: 0.00039505958557128906
ell 694, elapsed: 0.00039196014404296875
ell 693, elapsed: 0.00039577484130859375
ell 692, elapsed: 0.00039315223693847656
ell 691, elapsed: 0.00038695335388183594
ell 690, elapsed: 0.0004019737243652344
ell 689, elapsed: 0.00033402442932128906
ell 688, elapsed: 0.0003399848937988281
ell 687, elapsed: 0.0003612041473388672
ell 686, elapsed: 0.00034499168395996094
ell 685, elapsed: 0.00034117698669433594
ell 684, elapsed: 0.0003361701965332031
ell 683, elapsed: 0.0003390312194824219
ell 682, elapsed: 0.00033593177795410156
ell 681, elapsed: 0.0003390312194824219
ell 680, elapsed: 0.0003428459167480469
ell 679, elapsed: 0.0003330707550048828
ell 678, elapsed: 0.0003421306610107422
ell 677, elapsed: 0.004579067230224609
ell 676, elapsed: 0.0004019737243652344
ell 675, elapsed: 0.0003960132598876953
ell 674, elapsed: 0.0003879070281982422
ell 673, elapsed: 0.0004978179931640625
ell 672, elapsed: 0.00039196014404296875
ell 671, elapsed: 0.0003941059112548828
ell 670, elapsed: 0.0003871917724609375
ell 669, elapsed: 0.0004119873046875
ell 668, elapsed: 0.0005669593811035156
ell 667, elapsed: 0.00040221214294433594
ell 666, elapsed: 0.00038909912109375
ell 665, elapsed: 0.0003960132598876953
ell 664, elapsed: 0.0005359649658203125
ell 663, elapsed: 0.0003960132598876953
ell 662, elapsed: 0.0003941059112548828
ell 661, elapsed: 0.0003960132598876953
ell 660, elapsed: 0.00040984153747558594
ell 659, elapsed: 0.00039315223693847656
ell 658, elapsed: 0.00038695335388183594
ell 657, elapsed: 0.0004000663757324219
ell 656, elapsed: 0.00038695335388183594
ell 655, elapsed: 0.0003981590270996094
ell 654, elapsed: 0.0003910064697265625
ell 653, elapsed: 0.0003910064697265625
ell 652, elapsed: 0.00039696693420410156
ell 651, elapsed: 0.0005490779876708984
ell 650, elapsed: 0.0004010200500488281
ell 649, elapsed: 0.00039505958557128906
ell 648, elapsed: 0.00038909912109375
ell 647, elapsed: 0.00039696693420410156
ell 646, elapsed: 0.0003879070281982422
ell 645, elapsed: 0.0003979206085205078
ell 644, elapsed: 0.0003898143768310547
ell 643, elapsed: 0.0003979206085205078
ell 642, elapsed: 0.004483222961425781
ell 641, elapsed: 0.0004031658172607422
ell 640, elapsed: 0.0003948211669921875
ell 639, elapsed: 0.0003898143768310547
ell 638, elapsed: 0.00039505958557128906
ell 637, elapsed: 0.00038909912109375
ell 636, elapsed: 0.0003910064697265625
ell 635, elapsed: 0.00039505958557128906
ell 634, elapsed: 0.0003941059112548828
ell 633, elapsed: 0.0005669593811035156
ell 632, elapsed: 0.0004010200500488281
ell 631, elapsed: 0.0003921985626220703
ell 630, elapsed: 0.0004069805145263672
ell 629, elapsed: 0.00039386749267578125
ell 628, elapsed: 0.000408172607421875
ell 627, elapsed: 0.0003910064697265625
ell 626, elapsed: 0.00039696693420410156
ell 625, elapsed: 0.0004019737243652344
ell 624, elapsed: 0.0004940032958984375
ell 623, elapsed: 0.0004029273986816406
ell 622, elapsed: 0.00039386749267578125
ell 621, elapsed: 0.00038909912109375
ell 620, elapsed: 0.0004048347473144531
ell 619, elapsed: 0.00039196014404296875
ell 618, elapsed: 0.0004029273986816406
ell 617, elapsed: 0.00039505958557128906
ell 616, elapsed: 0.00039386749267578125
ell 615, elapsed: 0.00045609474182128906
ell 614, elapsed: 0.00039696693420410156
ell 613, elapsed: 0.00039887428283691406
ell 612, elapsed: 0.0003941059112548828
ell 611, elapsed: 0.00039696693420410156
ell 610, elapsed: 0.000392913818359375
ell 609, elapsed: 0.00038695335388183594
ell 608, elapsed: 0.00039386749267578125
ell 607, elapsed: 0.0003910064697265625
ell 606, elapsed: 0.0004239082336425781
ell 605, elapsed: 0.00039386749267578125
ell 604, elapsed: 0.00039386749267578125
ell 603, elapsed: 0.0004010200500488281
ell 602, elapsed: 0.00039505958557128906
ell 601, elapsed: 0.000408172607421875
ell 600, elapsed: 0.00039196014404296875
ell 599, elapsed: 0.0003979206085205078
ell 598, elapsed: 0.00039696693420410156
ell 597, elapsed: 0.00045990943908691406
ell 596, elapsed: 0.0004048347473144531
ell 595, elapsed: 0.00039315223693847656
ell 594, elapsed: 0.00039196014404296875
ell 593, elapsed: 0.0004019737243652344
ell 592, elapsed: 0.00039196014404296875
ell 591, elapsed: 0.0004010200500488281
ell 590, elapsed: 0.0003910064697265625
ell 589, elapsed: 0.0003960132598876953
ell 588, elapsed: 0.0004591941833496094
ell 587, elapsed: 0.0003421306610107422
ell 586, elapsed: 0.00034117698669433594
ell 585, elapsed: 0.0003330707550048828
ell 584, elapsed: 0.0003330707550048828
ell 583, elapsed: 0.00034308433532714844
ell 582, elapsed: 0.00039005279541015625
ell 581, elapsed: 0.0006048679351806641
ell 580, elapsed: 0.0007009506225585938
ell 579, elapsed: 0.0005841255187988281
ell 578, elapsed: 0.0004401206970214844
ell 577, elapsed: 0.00043487548828125
ell 576, elapsed: 0.0004429817199707031
ell 575, elapsed: 0.0005240440368652344
ell 574, elapsed: 0.0006861686706542969
ell 573, elapsed: 0.0007450580596923828
ell 572, elapsed: 0.0006830692291259766
ell 571, elapsed: 0.0006899833679199219
ell 570, elapsed: 0.0006780624389648438
ell 569, elapsed: 0.000682830810546875
ell 568, elapsed: 0.0007538795471191406
ell 567, elapsed: 0.000682830810546875
ell 566, elapsed: 0.00067901611328125
ell 565, elapsed: 0.0006351470947265625
ell 564, elapsed: 0.0006649494171142578
ell 563, elapsed: 0.0007779598236083984
ell 562, elapsed: 0.0007030963897705078
ell 561, elapsed: 0.0006330013275146484
ell 560, elapsed: 0.0005819797515869141
ell 559, elapsed: 0.0006971359252929688
ell 558, elapsed: 0.0005970001220703125
ell 557, elapsed: 0.0007998943328857422
ell 556, elapsed: 0.0006899833679199219
ell 555, elapsed: 0.0006849765777587891
ell 554, elapsed: 0.0007228851318359375
ell 553, elapsed: 0.0006830692291259766
ell 552, elapsed: 0.0007231235504150391
ell 551, elapsed: 0.0004448890686035156
ell 550, elapsed: 0.00039005279541015625
ell 549, elapsed: 0.00039315223693847656
ell 548, elapsed: 0.00038909912109375
ell 547, elapsed: 0.00039696693420410156
ell 546, elapsed: 0.00038504600524902344
ell 545, elapsed: 0.0003910064697265625
ell 544, elapsed: 0.0004420280456542969
ell 543, elapsed: 0.0006339550018310547
ell 542, elapsed: 0.0006840229034423828
ell 541, elapsed: 0.0006890296936035156
ell 540, elapsed: 0.0006799697875976562
ell 539, elapsed: 0.0006210803985595703
ell 538, elapsed: 0.0007040500640869141
ell 537, elapsed: 0.0006229877471923828
ell 536, elapsed: 0.0006418228149414062
ell 535, elapsed: 0.0006909370422363281
ell 534, elapsed: 0.0006899833679199219
ell 533, elapsed: 0.000762939453125
ell 532, elapsed: 0.0005230903625488281
ell 531, elapsed: 0.00038909912109375
ell 530, elapsed: 0.0003879070281982422
ell 529, elapsed: 0.0004000663757324219
ell 528, elapsed: 0.00039196014404296875
ell 527, elapsed: 0.0003948211669921875
ell 526, elapsed: 0.00038886070251464844
ell 525, elapsed: 0.0003910064697265625
ell 524, elapsed: 0.0006349086761474609
ell 523, elapsed: 0.0006880760192871094
ell 522, elapsed: 0.0006930828094482422
ell 521, elapsed: 0.0006840229034423828
ell 520, elapsed: 0.0006830692291259766
ell 519, elapsed: 0.0007700920104980469
ell 518, elapsed: 0.0006809234619140625
ell 517, elapsed: 0.0007100105285644531
ell 516, elapsed: 0.0006709098815917969
ell 515, elapsed: 0.0006861686706542969
ell 514, elapsed: 0.0006639957427978516
ell 513, elapsed: 0.0004260540008544922
ell 512, elapsed: 0.00043702125549316406
ell 511, elapsed: 0.0005671977996826172
ell 510, elapsed: 0.0006718635559082031
ell 509, elapsed: 0.0004830360412597656
ell 508, elapsed: 0.0005910396575927734
ell 507, elapsed: 0.0006051063537597656
ell 506, elapsed: 0.0005099773406982422
ell 505, elapsed: 0.0006029605865478516
ell 504, elapsed: 0.0005900859832763672
ell 503, elapsed: 0.0006818771362304688
ell 502, elapsed: 0.0006339550018310547
ell 501, elapsed: 0.0007050037384033203
ell 500, elapsed: 0.0004470348358154297
ell 499, elapsed: 0.0003859996795654297
ell 498, elapsed: 0.00038695335388183594
ell 497, elapsed: 0.0003948211669921875
ell 496, elapsed: 0.0003921985626220703
ell 495, elapsed: 0.00038909912109375
ell 494, elapsed: 0.00038695335388183594
ell 493, elapsed: 0.00043201446533203125
ell 492, elapsed: 0.0006160736083984375
ell 491, elapsed: 0.0006890296936035156
ell 490, elapsed: 0.0006861686706542969
ell 489, elapsed: 0.0006771087646484375
ell 488, elapsed: 0.0005881786346435547
ell 487, elapsed: 0.0007541179656982422
ell 486, elapsed: 0.0005440711975097656
ell 485, elapsed: 0.0005800724029541016
ell 484, elapsed: 0.0006809234619140625
ell 483, elapsed: 0.0005638599395751953
ell 482, elapsed: 0.000576019287109375
ell 481, elapsed: 0.0007581710815429688
ell 480, elapsed: 0.0005500316619873047
ell 479, elapsed: 0.0004241466522216797
ell 478, elapsed: 0.0005910396575927734
ell 477, elapsed: 0.0006771087646484375
ell 476, elapsed: 0.0006778240203857422
ell 475, elapsed: 0.0007650852203369141
ell 474, elapsed: 0.00067901611328125
ell 473, elapsed: 0.0006721019744873047
ell 472, elapsed: 0.0005350112915039062
ell 471, elapsed: 0.0005590915679931641
ell 470, elapsed: 0.000759124755859375
ell 469, elapsed: 0.0005102157592773438
ell 468, elapsed: 0.0005970001220703125
ell 467, elapsed: 0.0006730556488037109
ell 466, elapsed: 0.0006821155548095703
ell 465, elapsed: 0.0005850791931152344
ell 464, elapsed: 0.0006630420684814453
ell 463, elapsed: 0.0004470348358154297
ell 462, elapsed: 0.000392913818359375
ell 461, elapsed: 0.00039696693420410156
ell 460, elapsed: 0.00039005279541015625
ell 459, elapsed: 0.0003859996795654297
ell 458, elapsed: 0.0003910064697265625
ell 457, elapsed: 0.00038909912109375
ell 456, elapsed: 0.000392913818359375
ell 455, elapsed: 0.0005331039428710938
ell 454, elapsed: 0.0006699562072753906
ell 453, elapsed: 0.0006709098815917969
ell 452, elapsed: 0.0005030632019042969
ell 451, elapsed: 0.0005998611450195312
ell 450, elapsed: 0.0005631446838378906
ell 449, elapsed: 0.0005121231079101562
ell 448, elapsed: 0.0006859302520751953
ell 447, elapsed: 0.0005998611450195312
ell 446, elapsed: 0.0004341602325439453
ell 445, elapsed: 0.0005981922149658203
ell 444, elapsed: 0.0006761550903320312
ell 443, elapsed: 0.0006010532379150391
ell 442, elapsed: 0.0006120204925537109
ell 441, elapsed: 0.000614166259765625
ell 440, elapsed: 0.0006818771362304688
ell 439, elapsed: 0.0005998611450195312
ell 438, elapsed: 0.0004210472106933594
ell 437, elapsed: 0.0004868507385253906
ell 436, elapsed: 0.0005829334259033203
ell 435, elapsed: 0.0006589889526367188
ell 434, elapsed: 0.0006740093231201172
ell 433, elapsed: 0.0006730556488037109
ell 432, elapsed: 0.0006580352783203125
ell 431, elapsed: 0.0006721019744873047
ell 430, elapsed: 0.0005140304565429688
ell 429, elapsed: 0.000431060791015625
ell 428, elapsed: 0.0005538463592529297
ell 427, elapsed: 0.00055694580078125
ell 426, elapsed: 0.0005600452423095703
ell 425, elapsed: 0.0007140636444091797
ell 424, elapsed: 0.0004451274871826172
ell 423, elapsed: 0.00038909912109375
ell 422, elapsed: 0.0003910064697265625
ell 421, elapsed: 0.00038814544677734375
ell 420, elapsed: 0.0003910064697265625
ell 419, elapsed: 0.00039196014404296875
ell 418, elapsed: 0.0003859996795654297
ell 417, elapsed: 0.00045108795166015625
ell 416, elapsed: 0.0006089210510253906
ell 415, elapsed: 0.0005261898040771484
ell 414, elapsed: 0.0006248950958251953
ell 413, elapsed: 0.0006711483001708984
ell 412, elapsed: 0.0005259513854980469
ell 411, elapsed: 0.0005710124969482422
ell 410, elapsed: 0.000537872314453125
ell 409, elapsed: 0.0005538463592529297
ell 408, elapsed: 0.0006749629974365234
ell 407, elapsed: 0.0006718635559082031
ell 406, elapsed: 0.0006139278411865234
ell 405, elapsed: 0.0007739067077636719
ell 404, elapsed: 0.0006690025329589844
ell 403, elapsed: 0.0006051063537597656
ell 402, elapsed: 0.0005519390106201172
ell 401, elapsed: 0.0006740093231201172
ell 400, elapsed: 0.0005300045013427734
ell 399, elapsed: 0.0006518363952636719
ell 398, elapsed: 0.0006611347198486328
ell 397, elapsed: 0.0006718635559082031
ell 396, elapsed: 0.0006730556488037109
ell 395, elapsed: 0.0006899833679199219
ell 394, elapsed: 0.0006527900695800781
ell 393, elapsed: 0.00061798095703125
ell 392, elapsed: 0.0005381107330322266
ell 391, elapsed: 0.0005710124969482422
ell 390, elapsed: 0.0006928443908691406
ell 389, elapsed: 0.0007011890411376953
ell 388, elapsed: 0.0007219314575195312
ell 387, elapsed: 0.0004551410675048828
ell 386, elapsed: 0.0003941059112548828
ell 385, elapsed: 0.00038504600524902344
ell 384, elapsed: 0.000392913818359375
ell 383, elapsed: 0.0003838539123535156
ell 382, elapsed: 0.00038909912109375
ell 381, elapsed: 0.0003840923309326172
ell 380, elapsed: 0.00038814544677734375
ell 379, elapsed: 0.0006771087646484375
ell 378, elapsed: 0.0006489753723144531
ell 377, elapsed: 0.0006089210510253906
ell 376, elapsed: 0.0006840229034423828
ell 375, elapsed: 0.0006060600280761719
ell 374, elapsed: 0.0006690025329589844
ell 373, elapsed: 0.0006899833679199219
ell 372, elapsed: 0.0005400180816650391
ell 371, elapsed: 0.0006229877471923828
ell 370, elapsed: 0.0006830692291259766
ell 369, elapsed: 0.0006809234619140625
ell 368, elapsed: 0.0006542205810546875
ell 367, elapsed: 0.0005638599395751953
ell 366, elapsed: 0.0006849765777587891
ell 365, elapsed: 0.0007009506225585938
ell 364, elapsed: 0.000701904296875
ell 363, elapsed: 0.0007641315460205078
ell 362, elapsed: 0.0005550384521484375
ell 361, elapsed: 0.0005819797515869141
ell 360, elapsed: 0.0006818771362304688
ell 359, elapsed: 0.0005340576171875
ell 358, elapsed: 0.0006020069122314453
ell 357, elapsed: 0.0007610321044921875
ell 356, elapsed: 0.0005660057067871094
ell 355, elapsed: 0.0004210472106933594
ell 354, elapsed: 0.0006089210510253906
ell 353, elapsed: 0.0005190372467041016
ell 352, elapsed: 0.0006279945373535156
ell 351, elapsed: 0.0007200241088867188
ell 350, elapsed: 0.0004978179931640625
ell 349, elapsed: 0.00039196014404296875
ell 348, elapsed: 0.00039005279541015625
ell 347, elapsed: 0.00039386749267578125
ell 346, elapsed: 0.0003838539123535156
ell 345, elapsed: 0.00038909912109375
ell 344, elapsed: 0.00038695335388183594
ell 343, elapsed: 0.00038886070251464844
ell 342, elapsed: 0.0006570816040039062
ell 341, elapsed: 0.00067901611328125
ell 340, elapsed: 0.0006592273712158203
ell 339, elapsed: 0.0005469322204589844
ell 338, elapsed: 0.0005898475646972656
ell 337, elapsed: 0.0005099773406982422
ell 336, elapsed: 0.00067901611328125
ell 335, elapsed: 0.000576019287109375
ell 334, elapsed: 0.0005419254302978516
ell 333, elapsed: 0.0006802082061767578
ell 332, elapsed: 0.0005121231079101562
ell 331, elapsed: 0.0005450248718261719
ell 330, elapsed: 0.000762939453125
ell 329, elapsed: 0.0005738735198974609
ell 328, elapsed: 0.0006430149078369141
ell 327, elapsed: 0.000598907470703125
ell 326, elapsed: 0.0005490779876708984
ell 325, elapsed: 0.0007600784301757812
ell 324, elapsed: 0.0005908012390136719
ell 323, elapsed: 0.0006809234619140625
ell 322, elapsed: 0.0005130767822265625
ell 321, elapsed: 0.0005719661712646484
ell 320, elapsed: 0.0006887912750244141
ell 319, elapsed: 0.0005958080291748047
ell 318, elapsed: 0.0004248619079589844
ell 317, elapsed: 0.0006170272827148438
ell 316, elapsed: 0.0006868839263916016
ell 315, elapsed: 0.0006961822509765625
ell 314, elapsed: 0.0005629062652587891
ell 313, elapsed: 0.0006809234619140625
ell 312, elapsed: 0.0004818439483642578
ell 311, elapsed: 0.0004000663757324219
ell 310, elapsed: 0.00039196014404296875
ell 309, elapsed: 0.00038886070251464844
ell 308, elapsed: 0.0003910064697265625
ell 307, elapsed: 0.0003871917724609375
ell 306, elapsed: 0.00039386749267578125
ell 305, elapsed: 0.00038814544677734375
ell 304, elapsed: 0.0006091594696044922
ell 303, elapsed: 0.00067901611328125
ell 302, elapsed: 0.0006899833679199219
ell 301, elapsed: 0.0006968975067138672
ell 300, elapsed: 0.0006361007690429688
ell 299, elapsed: 0.0007560253143310547
ell 298, elapsed: 0.0005080699920654297
ell 297, elapsed: 0.0004208087921142578
ell 296, elapsed: 0.0004360675811767578
ell 295, elapsed: 0.000579833984375
ell 294, elapsed: 0.0006461143493652344
ell 293, elapsed: 0.0006880760192871094
ell 292, elapsed: 0.0006568431854248047
ell 291, elapsed: 0.0006740093231201172
ell 290, elapsed: 0.0006680488586425781
ell 289, elapsed: 0.0006728172302246094
ell 288, elapsed: 0.0006680488586425781
ell 287, elapsed: 0.0005939006805419922
ell 286, elapsed: 0.0006120204925537109
ell 285, elapsed: 0.0006868839263916016
ell 284, elapsed: 0.0006818771362304688
ell 283, elapsed: 0.0006880760192871094
ell 282, elapsed: 0.0007581710815429688
ell 281, elapsed: 0.0005650520324707031
ell 280, elapsed: 0.00061798095703125
ell 279, elapsed: 0.0006880760192871094
ell 278, elapsed: 0.0006811618804931641
ell 277, elapsed: 0.0006859302520751953
ell 276, elapsed: 0.0007638931274414062
ell 275, elapsed: 0.0006811618804931641
ell 274, elapsed: 0.0006840229034423828
ell 273, elapsed: 0.0006799697875976562
ell 272, elapsed: 0.0006840229034423828
ell 271, elapsed: 0.0007510185241699219
ell 270, elapsed: 0.000675201416015625
ell 269, elapsed: 0.0006799697875976562
ell 268, elapsed: 0.0006721019744873047
ell 267, elapsed: 0.0006799697875976562
ell 266, elapsed: 0.0007500648498535156
ell 265, elapsed: 0.0006809234619140625
ell 264, elapsed: 0.0006799697875976562
ell 263, elapsed: 0.0006749629974365234
ell 262, elapsed: 0.0006778240203857422
ell 261, elapsed: 0.0007531642913818359
ell 260, elapsed: 0.0006830692291259766
ell 259, elapsed: 0.00067901611328125
ell 258, elapsed: 0.0006759166717529297
ell 257, elapsed: 0.0006759166717529297
ell 256, elapsed: 0.0006780624389648438
ell 255, elapsed: 0.0007519721984863281
ell 254, elapsed: 0.0006840229034423828
ell 253, elapsed: 0.0006730556488037109
ell 252, elapsed: 0.0006909370422363281
ell 251, elapsed: 0.0006740093231201172
ell 250, elapsed: 0.000743865966796875
ell 249, elapsed: 0.0005259513854980469
ell 248, elapsed: 0.0006160736083984375
ell 247, elapsed: 0.0006699562072753906
ell 246, elapsed: 0.0006687641143798828
ell 245, elapsed: 0.0007519721984863281
ell 244, elapsed: 0.0006859302520751953
ell 243, elapsed: 0.0005428791046142578
ell 242, elapsed: 0.0006239414215087891
ell 241, elapsed: 0.0006709098815917969
ell 240, elapsed: 0.0006768703460693359
ell 239, elapsed: 0.0007510185241699219
ell 238, elapsed: 0.0006771087646484375
ell 237, elapsed: 0.0006680488586425781
ell 236, elapsed: 0.0006608963012695312
ell 235, elapsed: 0.0006909370422363281
ell 234, elapsed: 0.0007650852203369141
ell 233, elapsed: 0.0006608963012695312
ell 232, elapsed: 0.0005600452423095703
ell 231, elapsed: 0.0006430149078369141
ell 230, elapsed: 0.000701904296875
ell 229, elapsed: 0.0006940364837646484
ell 228, elapsed: 0.0005869865417480469
ell 227, elapsed: 0.0006330013275146484
ell 226, elapsed: 0.0006849765777587891
ell 225, elapsed: 0.0006940364837646484
ell 224, elapsed: 0.0006940364837646484
ell 223, elapsed: 0.0007760524749755859
ell 222, elapsed: 0.000579833984375
ell 221, elapsed: 0.0005080699920654297
ell 220, elapsed: 0.0006890296936035156
ell 219, elapsed: 0.0006270408630371094
ell 218, elapsed: 0.0005910396575927734
ell 217, elapsed: 0.0007669925689697266
ell 216, elapsed: 0.0006368160247802734
ell 215, elapsed: 0.0005309581756591797
ell 214, elapsed: 0.0006299018859863281
ell 213, elapsed: 0.0006070137023925781
ell 212, elapsed: 0.0004258155822753906
ell 211, elapsed: 0.0007221698760986328
ell 210, elapsed: 0.0004520416259765625
ell 209, elapsed: 0.0005838871002197266
ell 208, elapsed: 0.0006239414215087891
ell 207, elapsed: 0.0004241466522216797
ell 206, elapsed: 0.0006191730499267578
ell 205, elapsed: 0.0007588863372802734
ell 204, elapsed: 0.0006678104400634766
ell 203, elapsed: 0.0006818771362304688
ell 202, elapsed: 0.0006811618804931641
ell 201, elapsed: 0.0005159378051757812
ell 200, elapsed: 0.0006308555603027344
ell 199, elapsed: 0.0005741119384765625
ell 198, elapsed: 0.0005700588226318359
ell 197, elapsed: 0.0006890296936035156
ell 196, elapsed: 0.0006730556488037109
ell 195, elapsed: 0.0006909370422363281
ell 194, elapsed: 0.0006289482116699219
ell 193, elapsed: 0.0006020069122314453
ell 192, elapsed: 0.0006778240203857422
ell 191, elapsed: 0.0005218982696533203
ell 190, elapsed: 0.0005822181701660156
ell 189, elapsed: 0.0006780624389648438
ell 188, elapsed: 0.0007638931274414062
ell 187, elapsed: 0.0006761550903320312
ell 186, elapsed: 0.0006809234619140625
ell 185, elapsed: 0.0006830692291259766
ell 184, elapsed: 0.0006780624389648438
ell 183, elapsed: 0.0007569789886474609
ell 182, elapsed: 0.0006899833679199219
ell 181, elapsed: 0.0006721019744873047
ell 180, elapsed: 0.0006818771362304688
ell 179, elapsed: 0.0006690025329589844
ell 178, elapsed: 0.0007519721984863281
ell 177, elapsed: 0.0005838871002197266
ell 176, elapsed: 0.0006139278411865234
ell 175, elapsed: 0.00067901611328125
ell 174, elapsed: 0.0006780624389648438
ell 173, elapsed: 0.0006809234619140625
ell 172, elapsed: 0.0007171630859375
ell 171, elapsed: 0.0006759166717529297
ell 170, elapsed: 0.000682830810546875
ell 169, elapsed: 0.0006718635559082031
ell 168, elapsed: 0.0006849765777587891
ell 167, elapsed: 0.0007410049438476562
ell 166, elapsed: 0.0006840229034423828
ell 165, elapsed: 0.0006818771362304688
ell 164, elapsed: 0.0006749629974365234
ell 163, elapsed: 0.00067901611328125
ell 162, elapsed: 0.0007481575012207031
ell 161, elapsed: 0.0006818771362304688
ell 160, elapsed: 0.0006771087646484375
ell 159, elapsed: 0.0006768703460693359
ell 158, elapsed: 0.0006780624389648438
ell 157, elapsed: 0.0006721019744873047
ell 156, elapsed: 0.0006909370422363281
ell 155, elapsed: 0.0006799697875976562
ell 154, elapsed: 0.0006740093231201172
ell 153, elapsed: 0.0006840229034423828
ell 152, elapsed: 0.0006799697875976562
ell 151, elapsed: 0.0006489753723144531
ell 150, elapsed: 0.0006251335144042969
ell 149, elapsed: 0.0006811618804931641
ell 148, elapsed: 0.0006861686706542969
ell 147, elapsed: 0.0005559921264648438
ell 146, elapsed: 0.0006170272827148438
ell 145, elapsed: 0.0006937980651855469
ell 144, elapsed: 0.0006361007690429688
ell 143, elapsed: 0.0006899833679199219
ell 142, elapsed: 0.0005781650543212891
ell 141, elapsed: 0.0005381107330322266
ell 140, elapsed: 0.0007090568542480469
ell 139, elapsed: 0.0006749629974365234
ell 138, elapsed: 0.0005519390106201172
ell 137, elapsed: 0.0005891323089599609
ell 136, elapsed: 0.0006728172302246094
ell 135, elapsed: 0.00067901611328125
ell 134, elapsed: 0.0006310939788818359
ell 133, elapsed: 0.0005221366882324219
ell 132, elapsed: 0.0006051063537597656
ell 131, elapsed: 0.0005650520324707031
ell 130, elapsed: 0.0005769729614257812
ell 129, elapsed: 0.00043201446533203125
ell 128, elapsed: 0.0005140304565429688
ell 127, elapsed: 0.0006809234619140625
ell 126, elapsed: 0.0006849765777587891
ell 125, elapsed: 0.0006799697875976562
ell 124, elapsed: 0.0005600452423095703
ell 123, elapsed: 0.0006070137023925781
ell 122, elapsed: 0.0007028579711914062
ell 121, elapsed: 0.0006771087646484375
ell 120, elapsed: 0.0005660057067871094
ell 119, elapsed: 0.0006098747253417969
ell 118, elapsed: 0.0006039142608642578
ell 117, elapsed: 0.0006220340728759766
ell 116, elapsed: 0.0006771087646484375
ell 115, elapsed: 0.0004978179931640625
ell 114, elapsed: 0.0005860328674316406
ell 113, elapsed: 0.0005478858947753906
ell 112, elapsed: 0.0005509853363037109
ell 111, elapsed: 0.0006802082061767578
ell 110, elapsed: 0.0005099773406982422
ell 109, elapsed: 0.00043320655822753906
ell 108, elapsed: 0.0006320476531982422
ell 107, elapsed: 0.0006649494171142578
ell 106, elapsed: 0.0006868839263916016
ell 105, elapsed: 0.0007970333099365234
ell 104, elapsed: 0.0005347728729248047
ell 103, elapsed: 0.0006058216094970703
ell 102, elapsed: 0.0006220340728759766
ell 101, elapsed: 0.0004291534423828125
ell 100, elapsed: 0.0006020069122314453
ell 99, elapsed: 0.0007810592651367188
ell 98, elapsed: 0.0006840229034423828
ell 97, elapsed: 0.0005209445953369141
ell 96, elapsed: 0.0004279613494873047
ell 95, elapsed: 0.0004410743713378906
ell 94, elapsed: 0.0005559921264648438
ell 93, elapsed: 0.0006270408630371094
ell 92, elapsed: 0.0007970333099365234
ell 91, elapsed: 0.0006840229034423828
ell 90, elapsed: 0.0006079673767089844
ell 89, elapsed: 0.0007109642028808594
ell 88, elapsed: 0.0006849765777587891
ell 87, elapsed: 0.000637054443359375
ell 86, elapsed: 0.0005850791931152344
ell 85, elapsed: 0.0005729198455810547
ell 84, elapsed: 0.0005121231079101562
ell 83, elapsed: 0.0005960464477539062
ell 82, elapsed: 0.0005919933319091797
ell 81, elapsed: 0.0008029937744140625
ell 80, elapsed: 0.0006349086761474609
ell 79, elapsed: 0.0005631446838378906
ell 78, elapsed: 0.0005769729614257812
ell 77, elapsed: 0.0005521774291992188
ell 76, elapsed: 0.0006170272827148438
ell 75, elapsed: 0.0006430149078369141
ell 74, elapsed: 0.0006229877471923828
ell 73, elapsed: 0.0006849765777587891
ell 72, elapsed: 0.0006880760192871094
ell 71, elapsed: 0.0006117820739746094
ell 70, elapsed: 0.0005459785461425781
ell 69, elapsed: 0.0007100105285644531
ell 68, elapsed: 0.0006861686706542969
ell 67, elapsed: 0.0007090568542480469
ell 66, elapsed: 0.0007119178771972656
ell 65, elapsed: 0.0006959438323974609
ell 64, elapsed: 0.00048613548278808594
ell 63, elapsed: 0.00045299530029296875
ell 62, elapsed: 0.00045490264892578125
ell 61, elapsed: 0.0004489421844482422
ell 60, elapsed: 0.00044608116149902344
ell 59, elapsed: 0.00045299530029296875
ell 58, elapsed: 0.00045108795166015625
ell 57, elapsed: 0.0005209445953369141
ell 56, elapsed: 0.0004680156707763672
ell 55, elapsed: 0.0004508495330810547
ell 54, elapsed: 0.00045800209045410156
ell 53, elapsed: 0.00045299530029296875
ell 52, elapsed: 0.00045299530029296875
ell 51, elapsed: 0.00045299530029296875
ell 50, elapsed: 0.00045299530029296875
ell 49, elapsed: 0.0005218982696533203
ell 48, elapsed: 0.00045418739318847656
ell 47, elapsed: 0.0004589557647705078
ell 46, elapsed: 0.00045490264892578125
ell 45, elapsed: 0.0005309581756591797
ell 44, elapsed: 0.0006411075592041016
ell 43, elapsed: 0.00046896934509277344
ell 42, elapsed: 0.0004978179931640625
ell 41, elapsed: 0.00047016143798828125
ell 40, elapsed: 0.00045418739318847656
ell 39, elapsed: 0.0004551410675048828
ell 38, elapsed: 0.00044989585876464844
ell 37, elapsed: 0.0004711151123046875
ell 36, elapsed: 0.0004611015319824219
ell 35, elapsed: 0.0004639625549316406
ell 34, elapsed: 0.0005109310150146484
ell 33, elapsed: 0.0004589557647705078
ell 32, elapsed: 0.00045299530029296875
ell 31, elapsed: 0.00047206878662109375
ell 30, elapsed: 0.00047516822814941406
ell 29, elapsed: 0.0004780292510986328
ell 28, elapsed: 0.0004489421844482422
ell 27, elapsed: 0.0005228519439697266
ell 26, elapsed: 0.0004630088806152344
ell 25, elapsed: 0.0004558563232421875
ell 24, elapsed: 0.0004620552062988281
ell 23, elapsed: 0.0004639625549316406
ell 22, elapsed: 0.0004558563232421875
ell 21, elapsed: 0.0004639625549316406
ell 20, elapsed: 0.00045800209045410156
ell 19, elapsed: 0.0005550384521484375
ell 18, elapsed: 0.0004570484161376953
ell 17, elapsed: 0.0004649162292480469
ell 16, elapsed: 0.00045800209045410156
ell 15, elapsed: 0.0004649162292480469
ell 14, elapsed: 0.00046896934509277344
ell 13, elapsed: 0.0004620552062988281
ell 12, elapsed: 0.0005991458892822266
ell 11, elapsed: 0.0005991458892822266
ell 10, elapsed: 0.0004661083221435547
ell 9, elapsed: 0.00046896934509277344
ell 8, elapsed: 0.0004620552062988281
ell 7, elapsed: 0.0004661083221435547
ell 6, elapsed: 0.0004620552062988281
ell 5, elapsed: 0.000476837158203125
ell 4, elapsed: 0.00047898292541503906
ell 3, elapsed: 0.00045990943908691406
ell 2, elapsed: 0.0004699230194091797
ell 1, elapsed: 0.00045990943908691406
ell 0, elapsed: 0.0004558563232421875
  0.819007 seconds (103.69 k allocations: 3.971 MiB)
elapsed: 0.0005459785461425781
step:          0.079903 sec (0 allocations: 0 byte, 0.0% gc time)
swapping:      0.000769 sec (0 allocations: 0 byte, 0.0% gc time)
calc_Mellell!: 0.012675 sec (0 allocations: 0 byte, 0.0% gc time)
  t0 :  0.002587 sec (0 allocations: 0 byte, 0.0% gc time)
  tm2 : 0.116085 sec (0 allocations: 0 byte, 0.0% gc time)
  tm2s: 0.001707 sec (0 allocations: 0 byte, 0.0% gc time)
  tm4 : 0.319255 sec (0 allocations: 0 byte, 0.0% gc time)
  tp2 : 0.0 sec (0 allocations: 0 byte, 0.0% gc time)
  tp2s: 0.0 sec (0 allocations: 0 byte, 0.0% gc time)
  tp4 : 0.0 sec (0 allocations: 0 byte, 0.0% gc time)
calc_wtdll!:   0.474836 sec (9.9 k allocations: 1.047 MB, 0.0% gc time)
calc_wljj!:    0.045742 sec (689 allocations: 10.766 KB, 0.0% gc time)
mult_prefac!:  0.0 sec (0 allocations: 0 byte, 0.0% gc time)
convert:       0.0 sec (0 allocations: 0 byte, 0.0% gc time)
write:         0.045769 sec (0 allocations: 0 byte, 0.0% gc time)
test_rand_2f1: 0.0 sec (0 allocations: 0 byte, 0.0% gc time)
Closing outfile out/Ml21-cache.bin...   0.000007 seconds
  0.000495 seconds (36 allocations: 27.953 KiB)
make_phi():   0.003236 seconds (8.18 k allocations: 237.844 KiB)
  0.309184 seconds (141.90 k allocations: 3.483 MiB)
tskip:       0.002043 sec (0 allocations: 0 byte, 0.0% gc time)
tread:       0.039269 sec (17 allocations: 10.641 KB, 0.0% gc time)
tmultphi:    0.020913 sec (0 allocations: 0 byte, 0.0% gc time)
tbrfft:      0.072385 sec (0 allocations: 0 byte, 0.0% gc time)
tmultprefac: 0.064443 sec (0 allocations: 0 byte, 0.0% gc time)
toutfunc:    0.103761 sec (127.507 k allocations: 2.312 MB, 0.0% gc time)
Testing R=1.0 ... passed
Calculating fmax: 
  dlrec    = 4
  dlrecRg1 = -4
  q=1.1, R=0.9:	  0.499492 seconds (105.76 k allocations: 15.287 MiB, 3.86% gc time)

  0.499888 seconds (105.99 k allocations: 15.324 MiB, 3.85% gc time)
ℓ = 1202
Δℓ = 4
ΔℓRg1 = -4
N = 1600
q = 1.1
kmin = 1.0e-5
kmax = 100000.00000000004
χ0 = 0.023029999999999995
RR = RR.tsv
ℓmax = ℓmax.bin
f21 = f21.bin
kmin = 1.0e-5
kmax = 100000.0
dlrec    = 4
dlrecRg1 = -4
Output size: 5741568 bytes = 0.005347251892089844 GiB
Output size: 51264 bytes = 4.774332046508789e-5 GiB
Reading 'out/F21EllCache'...   0.001205 seconds (197 allocations: 84.203 KiB)
ellmax: 1202
lmaxcache: 1202
fell[:,1,1] = ComplexF64[1.3482014726274674e-57 - 3.302141236118086e-73im, 1.357860004724329e-57 - 3.3257978169518355e-73im]
ell 1202, elapsed: 0.0008709430694580078
ell 1201, elapsed: 0.0004050731658935547
ell 1200, elapsed: 0.000370025634765625
ell 1199, elapsed: 0.00036907196044921875
ell 1198, elapsed: 0.0003769397735595703
ell 1002, elapsed: 0.010469913482666016
ell 1001, elapsed: 0.00046706199645996094
ell 1000, elapsed: 0.0005381107330322266
ell 999, elapsed: 0.00037407875061035156
ell 998, elapsed: 0.00037384033203125
ell 902, elapsed: 0.005836009979248047
ell 901, elapsed: 0.0003840923309326172
ell 900, elapsed: 0.0003719329833984375
ell 899, elapsed: 0.0003688335418701172
ell 898, elapsed: 0.00037217140197753906
ell 802, elapsed: 0.005931854248046875
ell 801, elapsed: 0.0003910064697265625
ell 800, elapsed: 0.0003800392150878906
ell 799, elapsed: 0.0003669261932373047
ell 798, elapsed: 0.00036907196044921875
ell 702, elapsed: 0.005803823471069336
ell 701, elapsed: 0.00038313865661621094
ell 700, elapsed: 0.0003719329833984375
ell 699, elapsed: 0.00037407875061035156
ell 698, elapsed: 0.0003719329833984375
ell 602, elapsed: 0.009881973266601562
ell 601, elapsed: 0.000392913818359375
ell 600, elapsed: 0.0003771781921386719
ell 599, elapsed: 0.00037479400634765625
ell 598, elapsed: 0.0003719329833984375
ell 502, elapsed: 0.0056841373443603516
ell 501, elapsed: 0.00039696693420410156
ell 500, elapsed: 0.00037407875061035156
ell 499, elapsed: 0.00036406517028808594
ell 498, elapsed: 0.0003669261932373047
ell 402, elapsed: 0.0056149959564208984
ell 401, elapsed: 0.00039315223693847656
ell 400, elapsed: 0.004423856735229492
ell 399, elapsed: 0.0003819465637207031
ell 398, elapsed: 0.0003750324249267578
ell 302, elapsed: 0.008458852767944336
ell 301, elapsed: 0.0003910064697265625
ell 300, elapsed: 0.0003750324249267578
ell 299, elapsed: 0.0003731250762939453
ell 298, elapsed: 0.0003719329833984375
ell 202, elapsed: 0.005312919616699219
ell 201, elapsed: 0.004358053207397461
ell 200, elapsed: 0.0004911422729492188
ell 199, elapsed: 0.00047588348388671875
ell 198, elapsed: 0.0005171298980712891
ell 152, elapsed: 0.0028328895568847656
ell 151, elapsed: 0.0003731250762939453
ell 150, elapsed: 0.0003669261932373047
ell 149, elapsed: 0.00036907196044921875
ell 148, elapsed: 0.0005259513854980469
ell 127, elapsed: 0.0017621517181396484
ell 126, elapsed: 0.0003719329833984375
ell 125, elapsed: 0.00036907196044921875
ell 124, elapsed: 0.0004968643188476562
ell 123, elapsed: 0.0004711151123046875
ell 114, elapsed: 0.0008919239044189453
ell 113, elapsed: 0.0003650188446044922
ell 112, elapsed: 0.0003619194030761719
ell 111, elapsed: 0.0003688335418701172
ell 110, elapsed: 0.0004901885986328125
ell 102, elapsed: 0.0012309551239013672
ell 101, elapsed: 0.0005300045013427734
ell 100, elapsed: 0.004502058029174805
ell 99, elapsed: 0.00037789344787597656
ell 98, elapsed: 0.00037097930908203125
ell 97, elapsed: 0.0004642009735107422
ell 96, elapsed: 0.0005831718444824219
ell 95, elapsed: 0.000614166259765625
ell 94, elapsed: 0.000637054443359375
ell 93, elapsed: 0.0005469322204589844
ell 92, elapsed: 0.0004401206970214844
ell 91, elapsed: 0.0004410743713378906
ell 90, elapsed: 0.00043702125549316406
ell 89, elapsed: 0.0006120204925537109
ell 88, elapsed: 0.0005128383636474609
ell 87, elapsed: 0.0005609989166259766
ell 86, elapsed: 0.0005519390106201172
ell 85, elapsed: 0.0004048347473144531
ell 84, elapsed: 0.0004050731658935547
ell 83, elapsed: 0.0004048347473144531
ell 82, elapsed: 0.0004100799560546875
ell 81, elapsed: 0.0004100799560546875
ell 80, elapsed: 0.00040602684020996094
ell 79, elapsed: 0.0004038810729980469
ell 78, elapsed: 0.00040984153747558594
ell 77, elapsed: 0.00042700767517089844
ell 76, elapsed: 0.00040984153747558594
ell 75, elapsed: 0.0005519390106201172
ell 74, elapsed: 0.0004849433898925781
ell 73, elapsed: 0.0004050731658935547
ell 72, elapsed: 0.0004057884216308594
ell 71, elapsed: 0.0004088878631591797
ell 70, elapsed: 0.00041794776916503906
ell 69, elapsed: 0.0005109310150146484
ell 68, elapsed: 0.0005609989166259766
ell 67, elapsed: 0.0004038810729980469
ell 66, elapsed: 0.0004069805145263672
ell 65, elapsed: 0.0004029273986816406
ell 64, elapsed: 0.0004038810729980469
ell 63, elapsed: 0.0005161762237548828
ell 62, elapsed: 0.0005350112915039062
ell 61, elapsed: 0.0004329681396484375
ell 60, elapsed: 0.0004038810729980469
ell 59, elapsed: 0.0004069805145263672
ell 58, elapsed: 0.000415802001953125
ell 57, elapsed: 0.0005891323089599609
ell 56, elapsed: 0.0004801750183105469
ell 55, elapsed: 0.0004069805145263672
ell 54, elapsed: 0.00040793418884277344
ell 53, elapsed: 0.00448298454284668
ell 52, elapsed: 0.0004189014434814453
ell 51, elapsed: 0.00041604042053222656
ell 50, elapsed: 0.00041413307189941406
ell 49, elapsed: 0.0004138946533203125
ell 48, elapsed: 0.00040602684020996094
ell 47, elapsed: 0.00040984153747558594
ell 46, elapsed: 0.0004241466522216797
ell 45, elapsed: 0.0005850791931152344
ell 44, elapsed: 0.000514984130859375
ell 43, elapsed: 0.00061798095703125
ell 42, elapsed: 0.0006229877471923828
ell 41, elapsed: 0.0006911754608154297
ell 40, elapsed: 0.0005731582641601562
ell 39, elapsed: 0.0006308555603027344
ell 38, elapsed: 0.0006289482116699219
ell 37, elapsed: 0.000492095947265625
ell 36, elapsed: 0.0004489421844482422
ell 35, elapsed: 0.0005440711975097656
ell 34, elapsed: 0.0005810260772705078
ell 33, elapsed: 0.00045299530029296875
ell 32, elapsed: 0.0007050037384033203
ell 31, elapsed: 0.0007009506225585938
ell 30, elapsed: 0.0005369186401367188
ell 29, elapsed: 0.0006248950958251953
ell 28, elapsed: 0.00055694580078125
ell 27, elapsed: 0.0005118846893310547
ell 26, elapsed: 0.0006868839263916016
ell 25, elapsed: 0.0005891323089599609
ell 24, elapsed: 0.0006380081176757812
ell 23, elapsed: 0.0005600452423095703
ell 22, elapsed: 0.0007109642028808594
ell 21, elapsed: 0.0005481243133544922
ell 20, elapsed: 0.00041294097900390625
ell 19, elapsed: 0.00041103363037109375
ell 18, elapsed: 0.00041103363037109375
ell 17, elapsed: 0.0004050731658935547
ell 16, elapsed: 0.00041103363037109375
ell 15, elapsed: 0.0004029273986816406
ell 14, elapsed: 0.0004119873046875
ell 13, elapsed: 0.0004088878631591797
ell 12, elapsed: 0.000431060791015625
ell 11, elapsed: 0.0004169940948486328
ell 10, elapsed: 0.0004210472106933594
ell 9, elapsed: 0.00041484832763671875
ell 8, elapsed: 0.0004239082336425781
ell 7, elapsed: 0.00041103363037109375
ell 6, elapsed: 0.000415802001953125
ell 5, elapsed: 0.0004119873046875
ell 4, elapsed: 0.000415802001953125
ell 3, elapsed: 0.0004248619079589844
ell 2, elapsed: 0.00041103363037109375
ell 1, elapsed: 0.0004131793975830078
ell 0, elapsed: 0.0004119873046875
  0.166010 seconds (19.57 k allocations: 845.531 KiB)
elapsed: 0.0004940032958984375
step:          0.070462 sec (0 allocations: 0 byte, 0.0% gc time)
swapping:      0.000555 sec (0 allocations: 0 byte, 0.0% gc time)
calc_Mellell!: 0.001597 sec (0 allocations: 0 byte, 0.0% gc time)
  t0 :  0.000319 sec (0 allocations: 0 byte, 0.0% gc time)
  tm2 : 0.014241 sec (0 allocations: 0 byte, 0.0% gc time)
  tm2s: 0.000241 sec (0 allocations: 0 byte, 0.0% gc time)
  tm4 : 0.050006 sec (0 allocations: 0 byte, 0.0% gc time)
  tp2 : 0.0 sec (0 allocations: 0 byte, 0.0% gc time)
  tp2s: 0.0 sec (0 allocations: 0 byte, 0.0% gc time)
  tp4 : 0.0 sec (0 allocations: 0 byte, 0.0% gc time)
calc_wtdll!:   0.065429 sec (1.344 k allocations: 147.0 KB, 0.0% gc time)
calc_wljj!:    0.003747 sec (6 allocations: 96 byte, 0.0% gc time)
mult_prefac!:  3.0e-6 sec (0 allocations: 0 byte, 0.0% gc time)
convert:       0.0 sec (0 allocations: 0 byte, 0.0% gc time)
write:         0.004257 sec (0 allocations: 0 byte, 0.0% gc time)
test_rand_2f1: 0.0 sec (0 allocations: 0 byte, 0.0% gc time)
Closing outfile out/Ml21-cache.bin...   0.000008 seconds
  0.000429 seconds (36 allocations: 27.953 KiB)
make_phi():   0.002430 seconds (8.18 k allocations: 237.844 KiB)
  0.021497 seconds (11.65 k allocations: 308.688 KiB)
tskip:       2.6e-5 sec (0 allocations: 0 byte, 0.0% gc time)
tread:       0.003149 sec (17 allocations: 2.125 KB, 0.0% gc time)
tmultphi:    0.001428 sec (0 allocations: 0 byte, 0.0% gc time)
tbrfft:      0.005741 sec (0 allocations: 0 byte, 0.0% gc time)
tmultprefac: 0.003789 sec (0 allocations: 0 byte, 0.0% gc time)
toutfunc:    0.006935 sec (10.304 k allocations: 196.0 KB, 0.0% gc time)
Testing R=0.9 ... passed
Calculating fmax: 
  dlrec    = 4
  dlrecRg1 = -4
  q=1.1, R=0.8:	  0.364910 seconds (103.25 k allocations: 14.856 MiB)

  0.365222 seconds (103.48 k allocations: 14.893 MiB)
ℓ = 1202
Δℓ = 4
ΔℓRg1 = -4
N = 1600
q = 1.1
kmin = 1.0e-5
kmax = 100000.00000000004
χ0 = 0.023029999999999995
RR = RR.tsv
ℓmax = ℓmax.bin
f21 = f21.bin
kmin = 1.0e-5
kmax = 100000.0
dlrec    = 4
dlrecRg1 = -4
Output size: 5741568 bytes = 0.005347251892089844 GiB
Output size: 51264 bytes = 4.774332046508789e-5 GiB
Reading 'out/F21EllCache'...   0.001160 seconds (197 allocations: 84.203 KiB)
ellmax: 1202
lmaxcache: 1202
fell[:,1,1] = ComplexF64[7.519068145690986e-120 - 1.8416405474382574e-135im, 7.541664537386155e-120 - 1.847175067190611e-135im]
ell 1202, elapsed: 2.9802322387695312e-5
ell 1201, elapsed: 0.0004630088806152344
ell 1200, elapsed: 0.00043487548828125
ell 1199, elapsed: 0.0004169940948486328
ell 1198, elapsed: 0.00041103363037109375
ell 1002, elapsed: 0.011220932006835938
ell 1001, elapsed: 0.00039196014404296875
ell 1000, elapsed: 0.00037598609924316406
ell 999, elapsed: 0.00038504600524902344
ell 998, elapsed: 0.00039196014404296875
ell 902, elapsed: 0.005176067352294922
ell 901, elapsed: 0.0003871917724609375
ell 900, elapsed: 0.00037097930908203125
ell 899, elapsed: 0.0003669261932373047
ell 898, elapsed: 0.0003731250762939453
ell 802, elapsed: 0.00545191764831543
ell 801, elapsed: 0.00038504600524902344
ell 800, elapsed: 0.0003762245178222656
ell 799, elapsed: 0.0003619194030761719
ell 798, elapsed: 0.0003750324249267578
ell 702, elapsed: 0.005684852600097656
ell 701, elapsed: 0.0003809928894042969
ell 700, elapsed: 0.0003819465637207031
ell 699, elapsed: 0.000370025634765625
ell 698, elapsed: 0.00036787986755371094
ell 602, elapsed: 0.0051457881927490234
ell 601, elapsed: 0.0003809928894042969
ell 600, elapsed: 0.0004069805145263672
ell 599, elapsed: 0.0003790855407714844
ell 598, elapsed: 0.00036406517028808594
ell 502, elapsed: 0.005686044692993164
ell 501, elapsed: 0.00039196014404296875
ell 500, elapsed: 0.00036907196044921875
ell 499, elapsed: 0.0003609657287597656
ell 498, elapsed: 0.0004248619079589844
ell 402, elapsed: 0.005522966384887695
ell 401, elapsed: 0.00039196014404296875
ell 400, elapsed: 0.00037479400634765625
ell 399, elapsed: 0.000370025634765625
ell 398, elapsed: 0.0004799365997314453
ell 302, elapsed: 0.005635976791381836
ell 301, elapsed: 0.00039005279541015625
ell 300, elapsed: 0.00036597251892089844
ell 299, elapsed: 0.0003719329833984375
ell 298, elapsed: 0.000370025634765625
ell 202, elapsed: 0.0055999755859375
ell 201, elapsed: 0.0003821849822998047
ell 200, elapsed: 0.0003540515899658203
ell 199, elapsed: 0.0003490447998046875
ell 198, elapsed: 0.00035309791564941406
ell 152, elapsed: 0.0028791427612304688
ell 151, elapsed: 0.0003800392150878906
ell 150, elapsed: 0.0003509521484375
ell 149, elapsed: 0.00035190582275390625
ell 148, elapsed: 0.0003540515899658203
ell 127, elapsed: 0.0015380382537841797
ell 126, elapsed: 0.0003650188446044922
ell 125, elapsed: 0.0003528594970703125
ell 124, elapsed: 0.00034999847412109375
ell 123, elapsed: 0.00035119056701660156
ell 114, elapsed: 0.0008909702301025391
ell 113, elapsed: 0.0003650188446044922
ell 112, elapsed: 0.0004069805145263672
ell 111, elapsed: 0.00035881996154785156
ell 110, elapsed: 0.00035309791564941406
ell 102, elapsed: 0.0007910728454589844
ell 101, elapsed: 0.0003540515899658203
ell 100, elapsed: 0.00034999847412109375
ell 99, elapsed: 0.0003490447998046875
ell 98, elapsed: 0.00035881996154785156
ell 97, elapsed: 0.0004439353942871094
ell 96, elapsed: 0.0004918575286865234
ell 95, elapsed: 0.000431060791015625
ell 94, elapsed: 0.00041294097900390625
ell 93, elapsed: 0.000408172607421875
ell 92, elapsed: 0.0004069805145263672
ell 91, elapsed: 0.0004019737243652344
ell 90, elapsed: 0.00041103363037109375
ell 89, elapsed: 0.0004031658172607422
ell 88, elapsed: 0.00045299530029296875
ell 87, elapsed: 0.0004131793975830078
ell 86, elapsed: 0.000431060791015625
ell 85, elapsed: 0.00055694580078125
ell 84, elapsed: 0.0005431175231933594
ell 83, elapsed: 0.0004279613494873047
ell 82, elapsed: 0.00043392181396484375
ell 81, elapsed: 0.0005390644073486328
ell 80, elapsed: 0.0006299018859863281
ell 79, elapsed: 0.00043702125549316406
ell 78, elapsed: 0.0004448890686035156
ell 77, elapsed: 0.0004410743713378906
ell 76, elapsed: 0.0004398822784423828
ell 75, elapsed: 0.0004398822784423828
ell 74, elapsed: 0.0004401206970214844
ell 73, elapsed: 0.0005891323089599609
ell 72, elapsed: 0.0005710124969482422
ell 71, elapsed: 0.00044798851013183594
ell 70, elapsed: 0.00044608116149902344
ell 69, elapsed: 0.00043702125549316406
ell 68, elapsed: 0.0004429817199707031
ell 67, elapsed: 0.000431060791015625
ell 66, elapsed: 0.00043201446533203125
ell 65, elapsed: 0.0005040168762207031
ell 64, elapsed: 0.00043487548828125
ell 63, elapsed: 0.00043487548828125
ell 62, elapsed: 0.0004317760467529297
ell 61, elapsed: 0.00043702125549316406
ell 60, elapsed: 0.0004410743713378906
ell 59, elapsed: 0.00043201446533203125
ell 58, elapsed: 0.00043892860412597656
ell 57, elapsed: 0.0004968643188476562
ell 56, elapsed: 0.0004360675811767578
ell 55, elapsed: 0.0004451274871826172
ell 54, elapsed: 0.00041794776916503906
ell 53, elapsed: 0.00043201446533203125
ell 52, elapsed: 0.0004341602325439453
ell 51, elapsed: 0.0004420280456542969
ell 50, elapsed: 0.00043201446533203125
ell 49, elapsed: 0.0004780292510986328
ell 48, elapsed: 0.00039076805114746094
ell 47, elapsed: 0.00037097930908203125
ell 46, elapsed: 0.0004949569702148438
ell 45, elapsed: 0.0005068778991699219
ell 44, elapsed: 0.00032591819763183594
ell 43, elapsed: 0.00032806396484375
ell 42, elapsed: 0.0003540515899658203
ell 41, elapsed: 0.00032711029052734375
[...]
ell 790, elapsed: 0.0009207725524902344
ell 789, elapsed: 0.0009019374847412109
ell 788, elapsed: 0.0008840560913085938
ell 782, elapsed: 0.0018398761749267578
ell 781, elapsed: 0.0008220672607421875
ell 780, elapsed: 0.0009050369262695312
ell 779, elapsed: 0.0009131431579589844
ell 778, elapsed: 0.0009129047393798828
ell 772, elapsed: 0.0018999576568603516
ell 771, elapsed: 0.0008740425109863281
ell 770, elapsed: 0.00090789794921875
ell 769, elapsed: 0.0009219646453857422
ell 768, elapsed: 0.0009338855743408203
ell 762, elapsed: 0.0019440650939941406
ell 761, elapsed: 0.0008778572082519531
ell 760, elapsed: 0.0009319782257080078
ell 759, elapsed: 0.0009219646453857422
ell 758, elapsed: 0.0009229183197021484
ell 752, elapsed: 0.0019290447235107422
ell 751, elapsed: 0.00084686279296875
ell 750, elapsed: 0.0009129047393798828
ell 749, elapsed: 0.0008709430694580078
ell 748, elapsed: 0.0008411407470703125
ell 742, elapsed: 0.0017790794372558594
ell 741, elapsed: 0.0007929801940917969
ell 740, elapsed: 0.0008351802825927734
ell 739, elapsed: 0.0008420944213867188
ell 738, elapsed: 0.0008599758148193359
ell 732, elapsed: 0.001886129379272461
ell 731, elapsed: 0.0008099079132080078
ell 730, elapsed: 0.0009319782257080078
ell 729, elapsed: 0.0008788108825683594
ell 728, elapsed: 0.0009310245513916016
ell 722, elapsed: 0.0018420219421386719
ell 721, elapsed: 0.0009291172027587891
ell 720, elapsed: 0.0009047985076904297
ell 719, elapsed: 0.0009300708770751953
ell 718, elapsed: 0.0009489059448242188
ell 712, elapsed: 0.001934051513671875
ell 711, elapsed: 0.0009570121765136719
ell 710, elapsed: 0.0009591579437255859
ell 709, elapsed: 0.0009579658508300781
ell 708, elapsed: 0.0009729862213134766
ell 702, elapsed: 0.0019180774688720703
ell 701, elapsed: 0.0008900165557861328
ell 700, elapsed: 0.0009598731994628906
ell 699, elapsed: 0.000949859619140625
ell 698, elapsed: 0.0009479522705078125
ell 692, elapsed: 0.001912832260131836
ell 691, elapsed: 0.0008690357208251953
ell 690, elapsed: 0.0009210109710693359
ell 689, elapsed: 0.0009329319000244141
ell 688, elapsed: 0.0009710788726806641
ell 682, elapsed: 0.0019979476928710938
ell 681, elapsed: 0.0008947849273681641
ell 680, elapsed: 0.0009670257568359375
ell 679, elapsed: 0.0009419918060302734
ell 678, elapsed: 0.0009670257568359375
ell 672, elapsed: 0.001898050308227539
ell 671, elapsed: 0.0008990764617919922
ell 670, elapsed: 0.0009090900421142578
ell 669, elapsed: 0.0008928775787353516
ell 668, elapsed: 0.0009250640869140625
ell 662, elapsed: 0.0015969276428222656
ell 661, elapsed: 0.0009238719940185547
ell 660, elapsed: 0.000926971435546875
ell 659, elapsed: 0.0009160041809082031
ell 658, elapsed: 0.0008809566497802734
ell 652, elapsed: 0.0015599727630615234
ell 651, elapsed: 0.0009288787841796875
ell 650, elapsed: 0.0009200572967529297
ell 649, elapsed: 0.0009012222290039062
ell 648, elapsed: 0.0008969306945800781
ell 642, elapsed: 0.0015759468078613281
ell 641, elapsed: 0.0009150505065917969
ell 640, elapsed: 0.0009238719940185547
ell 639, elapsed: 0.0008921623229980469
ell 638, elapsed: 0.0009400844573974609
ell 632, elapsed: 0.0015540122985839844
ell 631, elapsed: 0.0008249282836914062
ell 630, elapsed: 0.0008490085601806641
ell 629, elapsed: 0.0008211135864257812
ell 628, elapsed: 0.0008471012115478516
ell 622, elapsed: 0.0014941692352294922
ell 621, elapsed: 0.0008227825164794922
ell 620, elapsed: 0.0008380413055419922
ell 619, elapsed: 0.0008218288421630859
ell 618, elapsed: 0.0008161067962646484
ell 612, elapsed: 0.0014710426330566406
ell 611, elapsed: 0.0008461475372314453
ell 610, elapsed: 0.0008249282836914062
ell 609, elapsed: 0.0008099079132080078
ell 608, elapsed: 0.0008111000061035156
ell 602, elapsed: 0.0014998912811279297
ell 601, elapsed: 0.0008130073547363281
ell 600, elapsed: 0.0008521080017089844
ell 599, elapsed: 0.0008199214935302734
ell 598, elapsed: 0.0008480548858642578
ell 592, elapsed: 0.0014379024505615234
ell 591, elapsed: 0.0008218288421630859
ell 590, elapsed: 0.0008211135864257812
ell 589, elapsed: 0.0008249282836914062
ell 588, elapsed: 0.0008399486541748047
ell 582, elapsed: 0.0014548301696777344
ell 581, elapsed: 0.0008189678192138672
ell 580, elapsed: 0.0008380413055419922
ell 579, elapsed: 0.0008130073547363281
ell 578, elapsed: 0.0008199214935302734
ell 572, elapsed: 0.0015118122100830078
ell 571, elapsed: 0.0008261203765869141
ell 570, elapsed: 0.000823974609375
ell 569, elapsed: 0.0008130073547363281
ell 568, elapsed: 0.0008280277252197266
ell 562, elapsed: 0.0014801025390625
ell 561, elapsed: 0.000823974609375
ell 560, elapsed: 0.0008361339569091797
ell 559, elapsed: 0.0008909702301025391
ell 558, elapsed: 0.0008959770202636719
ell 552, elapsed: 0.001577138900756836
ell 551, elapsed: 0.000926971435546875
ell 550, elapsed: 0.0009219646453857422
ell 549, elapsed: 0.0009090900421142578
ell 548, elapsed: 0.0009348392486572266
ell 542, elapsed: 0.0015859603881835938
ell 541, elapsed: 0.0009188652038574219
ell 540, elapsed: 0.0009150505065917969
ell 539, elapsed: 0.0009288787841796875
ell 538, elapsed: 0.0009160041809082031
ell 532, elapsed: 0.0015468597412109375
ell 531, elapsed: 0.0009160041809082031
ell 530, elapsed: 0.0009100437164306641
ell 529, elapsed: 0.0009031295776367188
ell 528, elapsed: 0.0009279251098632812
ell 522, elapsed: 0.0015480518341064453
ell 521, elapsed: 0.0008769035339355469
ell 520, elapsed: 0.0009081363677978516
ell 519, elapsed: 0.0008890628814697266
ell 518, elapsed: 0.0008761882781982422
ell 512, elapsed: 0.00156402587890625
ell 511, elapsed: 0.0008881092071533203
ell 510, elapsed: 0.0008950233459472656
ell 509, elapsed: 0.0008950233459472656
ell 508, elapsed: 0.0009419918060302734
ell 502, elapsed: 0.0015430450439453125
ell 501, elapsed: 0.0008900165557861328
ell 500, elapsed: 0.0008730888366699219
ell 499, elapsed: 0.0008680820465087891
ell 498, elapsed: 0.0009350776672363281
ell 492, elapsed: 0.0016491413116455078
ell 491, elapsed: 0.0008258819580078125
ell 490, elapsed: 0.0009388923645019531
ell 489, elapsed: 0.0008900165557861328
ell 488, elapsed: 0.0008978843688964844
ell 482, elapsed: 0.0015249252319335938
ell 481, elapsed: 0.0008981227874755859
ell 480, elapsed: 0.0009200572967529297
ell 479, elapsed: 0.0009191036224365234
ell 478, elapsed: 0.0008921623229980469
ell 472, elapsed: 0.0015420913696289062
ell 471, elapsed: 0.0009090900421142578
ell 470, elapsed: 0.0009090900421142578
ell 469, elapsed: 0.0009090900421142578
ell 468, elapsed: 0.0009031295776367188
ell 462, elapsed: 0.0015408992767333984
ell 461, elapsed: 0.000904083251953125
ell 460, elapsed: 0.0008971691131591797
ell 459, elapsed: 0.0008800029754638672
ell 458, elapsed: 0.0008950233459472656
ell 452, elapsed: 0.001628875732421875
ell 451, elapsed: 0.0009150505065917969
ell 450, elapsed: 0.0009279251098632812
ell 449, elapsed: 0.0009300708770751953
ell 448, elapsed: 0.000946044921875
ell 442, elapsed: 0.0016109943389892578
ell 441, elapsed: 0.0009438991546630859
ell 440, elapsed: 0.0009059906005859375
ell 439, elapsed: 0.0009059906005859375
ell 438, elapsed: 0.0008208751678466797
ell 432, elapsed: 0.0015480518341064453
ell 431, elapsed: 0.0008959770202636719
ell 430, elapsed: 0.0008988380432128906
ell 429, elapsed: 0.000904083251953125
ell 428, elapsed: 0.0009138584136962891
ell 422, elapsed: 0.0015649795532226562
ell 421, elapsed: 0.0009310245513916016
ell 420, elapsed: 0.0008480548858642578
ell 419, elapsed: 0.0008151531219482422
ell 418, elapsed: 0.00080108642578125
ell 412, elapsed: 0.0014300346374511719
ell 411, elapsed: 0.0008070468902587891
ell 410, elapsed: 0.0008299350738525391
ell 409, elapsed: 0.0007891654968261719
ell 408, elapsed: 0.0008211135864257812
ell 402, elapsed: 0.0014770030975341797
ell 401, elapsed: 0.0008080005645751953
ell 400, elapsed: 0.0008361339569091797
ell 399, elapsed: 0.0008001327514648438
ell 398, elapsed: 0.0008068084716796875
ell 392, elapsed: 0.0014488697052001953
ell 391, elapsed: 0.0008451938629150391
ell 390, elapsed: 0.00080108642578125
ell 389, elapsed: 0.000823974609375
ell 388, elapsed: 0.0008471012115478516
ell 382, elapsed: 0.0015239715576171875
ell 381, elapsed: 0.0008249282836914062
ell 380, elapsed: 0.0008149147033691406
ell 379, elapsed: 0.0008029937744140625
ell 378, elapsed: 0.0008060932159423828
ell 372, elapsed: 0.0014560222625732422
ell 371, elapsed: 0.0008130073547363281
ell 370, elapsed: 0.0008161067962646484
ell 369, elapsed: 0.0008230209350585938
ell 368, elapsed: 0.00080108642578125
ell 362, elapsed: 0.0014510154724121094
ell 361, elapsed: 0.000804901123046875
ell 360, elapsed: 0.0008211135864257812
ell 359, elapsed: 0.0008108615875244141
ell 358, elapsed: 0.0007989406585693359
ell 352, elapsed: 0.0014719963073730469
ell 351, elapsed: 0.0008399486541748047
ell 350, elapsed: 0.0008220672607421875
ell 349, elapsed: 0.0007910728454589844
ell 348, elapsed: 0.0008280277252197266
ell 342, elapsed: 0.0015490055084228516
ell 341, elapsed: 0.0008080005645751953
ell 340, elapsed: 0.0008039474487304688
ell 339, elapsed: 0.0008020401000976562
ell 338, elapsed: 0.0008649826049804688
ell 332, elapsed: 0.0016198158264160156
ell 331, elapsed: 0.0008158683776855469
ell 330, elapsed: 0.0008268356323242188
ell 329, elapsed: 0.0008230209350585938
ell 328, elapsed: 0.0007860660552978516
ell 322, elapsed: 0.0014050006866455078
ell 321, elapsed: 0.0007939338684082031
ell 320, elapsed: 0.0008218288421630859
ell 319, elapsed: 0.0008080005645751953
ell 318, elapsed: 0.0008180141448974609
ell 312, elapsed: 0.001461029052734375
ell 311, elapsed: 0.0008230209350585938
ell 310, elapsed: 0.0008189678192138672
ell 309, elapsed: 0.0007998943328857422
ell 308, elapsed: 0.0008108615875244141
ell 302, elapsed: 0.0014731884002685547
ell 301, elapsed: 0.0008020401000976562
ell 300, elapsed: 0.0008080005645751953
ell 299, elapsed: 0.0007979869842529297
ell 298, elapsed: 0.0008380413055419922
ell 292, elapsed: 0.0014719963073730469
ell 291, elapsed: 0.0008099079132080078
ell 290, elapsed: 0.0008261203765869141
ell 289, elapsed: 0.0008451938629150391
ell 288, elapsed: 0.0008311271667480469
ell 282, elapsed: 0.0014538764953613281
ell 281, elapsed: 0.0008070468902587891
ell 280, elapsed: 0.0008471012115478516
ell 279, elapsed: 0.0009028911590576172
ell 278, elapsed: 0.0008800029754638672
ell 272, elapsed: 0.001653909683227539
ell 271, elapsed: 0.0008778572082519531
ell 270, elapsed: 0.0008919239044189453
ell 269, elapsed: 0.0008869171142578125
ell 268, elapsed: 0.0009138584136962891
ell 262, elapsed: 0.0016319751739501953
ell 261, elapsed: 0.0008718967437744141
ell 260, elapsed: 0.0008900165557861328
ell 259, elapsed: 0.000885009765625
ell 258, elapsed: 0.0008690357208251953
ell 252, elapsed: 0.0019309520721435547
ell 251, elapsed: 0.0008339881896972656
ell 250, elapsed: 0.0008971691131591797
ell 249, elapsed: 0.0008540153503417969
ell 248, elapsed: 0.0008571147918701172
ell 242, elapsed: 0.0016341209411621094
ell 241, elapsed: 0.0008819103240966797
ell 240, elapsed: 0.0008819103240966797
ell 239, elapsed: 0.0008599758148193359
ell 238, elapsed: 0.0008599758148193359
ell 232, elapsed: 0.001628875732421875
ell 231, elapsed: 0.0008220672607421875
ell 230, elapsed: 0.0008399486541748047
ell 229, elapsed: 0.0008230209350585938
ell 228, elapsed: 0.0008280277252197266
ell 222, elapsed: 0.0014989376068115234
ell 221, elapsed: 0.0008549690246582031
ell 220, elapsed: 0.0008289813995361328
ell 219, elapsed: 0.0008199214935302734
ell 218, elapsed: 0.0008399486541748047
ell 212, elapsed: 0.0015099048614501953
ell 211, elapsed: 0.000827789306640625
ell 210, elapsed: 0.0008249282836914062
ell 209, elapsed: 0.0008189678192138672
ell 208, elapsed: 0.0008749961853027344
ell 202, elapsed: 0.0015339851379394531
ell 201, elapsed: 0.0008909702301025391
ell 200, elapsed: 0.0009050369262695312
ell 199, elapsed: 0.0008358955383300781
ell 198, elapsed: 0.0008299350738525391
ell 192, elapsed: 0.0015230178833007812
ell 191, elapsed: 0.0008480548858642578
ell 190, elapsed: 0.0008211135864257812
ell 189, elapsed: 0.0008170604705810547
ell 188, elapsed: 0.0008308887481689453
ell 182, elapsed: 0.0015079975128173828
ell 181, elapsed: 0.0008380413055419922
ell 180, elapsed: 0.0008118152618408203
ell 179, elapsed: 0.000823974609375
ell 178, elapsed: 0.0008471012115478516
ell 172, elapsed: 0.0015110969543457031
ell 171, elapsed: 0.0008258819580078125
ell 170, elapsed: 0.0008380413055419922
ell 169, elapsed: 0.0008528232574462891
ell 168, elapsed: 0.0008218288421630859
ell 162, elapsed: 0.0015139579772949219
ell 161, elapsed: 0.0008361339569091797
ell 160, elapsed: 0.0008358955383300781
ell 159, elapsed: 0.0008289813995361328
ell 158, elapsed: 0.0008389949798583984
ell 152, elapsed: 0.001547098159790039
ell 151, elapsed: 0.0008230209350585938
ell 150, elapsed: 0.0008299350738525391
ell 149, elapsed: 0.000823974609375
ell 148, elapsed: 0.0008578300476074219
ell 142, elapsed: 0.001499176025390625
ell 141, elapsed: 0.0008389949798583984
ell 140, elapsed: 0.0008380413055419922
ell 139, elapsed: 0.0008590221405029297
ell 138, elapsed: 0.0008330345153808594
ell 132, elapsed: 0.0015158653259277344
ell 131, elapsed: 0.0008139610290527344
ell 130, elapsed: 0.0008380413055419922
ell 129, elapsed: 0.0008339881896972656
ell 128, elapsed: 0.0008230209350585938
ell 122, elapsed: 0.0017659664154052734
ell 121, elapsed: 0.0007910728454589844
ell 120, elapsed: 0.0010790824890136719
ell 119, elapsed: 0.000820159912109375
ell 118, elapsed: 0.0008559226989746094
ell 112, elapsed: 0.0017621517181396484
ell 111, elapsed: 0.0008070468902587891
ell 110, elapsed: 0.0008320808410644531
ell 109, elapsed: 0.0008440017700195312
ell 108, elapsed: 0.0008399486541748047
ell 102, elapsed: 0.00150299072265625
ell 101, elapsed: 0.003857851028442383
ell 100, elapsed: 0.003910064697265625
ell 99, elapsed: 0.004235982894897461
ell 98, elapsed: 0.0036859512329101562
ell 92, elapsed: 0.006539106369018555
ell 91, elapsed: 0.003662109375
ell 90, elapsed: 0.003882884979248047
ell 89, elapsed: 0.003665924072265625
ell 88, elapsed: 0.003662109375
ell 82, elapsed: 0.006818056106567383
ell 81, elapsed: 0.003634929656982422
ell 80, elapsed: 0.0035810470581054688
ell 79, elapsed: 0.0038712024688720703
ell 78, elapsed: 0.0035622119903564453
ell 72, elapsed: 0.006260871887207031
ell 71, elapsed: 0.00339508056640625
ell 70, elapsed: 0.003442049026489258
ell 69, elapsed: 0.0034170150756835938
ell 68, elapsed: 0.003426074981689453
ell 62, elapsed: 0.00596308708190918
ell 61, elapsed: 0.0033011436462402344
ell 60, elapsed: 0.0033299922943115234
ell 59, elapsed: 0.003567934036254883
ell 58, elapsed: 0.003320932388305664
ell 52, elapsed: 0.006227016448974609
ell 51, elapsed: 0.0036067962646484375
ell 50, elapsed: 0.003345012664794922
ell 49, elapsed: 0.003340005874633789
ell 48, elapsed: 0.003631114959716797
ell 42, elapsed: 0.0062618255615234375
ell 41, elapsed: 0.003374814987182617
ell 40, elapsed: 0.003362894058227539
ell 39, elapsed: 0.0036211013793945312
ell 38, elapsed: 0.0034050941467285156
ell 32, elapsed: 0.006166934967041016
ell 31, elapsed: 0.003548145294189453
ell 30, elapsed: 0.003896951675415039
ell 29, elapsed: 0.003345966339111328
ell 28, elapsed: 0.0033130645751953125
ell 22, elapsed: 0.0060269832611083984
ell 21, elapsed: 0.0033690929412841797
ell 20, elapsed: 0.003428936004638672
ell 19, elapsed: 0.003410816192626953
ell 18, elapsed: 0.0033159255981445312
ell 12, elapsed: 0.006175994873046875
ell 11, elapsed: 0.003301858901977539
ell 10, elapsed: 0.0035839080810546875
ell 9, elapsed: 0.003316164016723633
ell 8, elapsed: 0.0038590431213378906
  0.872108 seconds (97.38 k allocations: 12.616 MiB)
elapsed: 0.003997802734375
step:          0.065758 sec (0 allocations: 0 byte, 0.0% gc time)
swapping:      0.000806 sec (0 allocations: 0 byte, 0.0% gc time)
calc_Mellell!: 0.042194 sec (0 allocations: 0 byte, 0.0% gc time)
  t0 :  0.01015 sec (0 allocations: 0 byte, 0.0% gc time)
  tm2 : 0.076613 sec (0 allocations: 0 byte, 0.0% gc time)
  tm2s: 0.008077 sec (0 allocations: 0 byte, 0.0% gc time)
  tm4 : 0.180818 sec (0 allocations: 0 byte, 0.0% gc time)
  tp2 : 0.0 sec (0 allocations: 0 byte, 0.0% gc time)
  tp2s: 0.0 sec (0 allocations: 0 byte, 0.0% gc time)
  tp4 : 0.0 sec (0 allocations: 0 byte, 0.0% gc time)
calc_wtdll!:   0.541966 sec (48.6 k allocations: 11.096 MB, 0.0% gc time)
calc_wljj!:    0.042552 sec (69 allocations: 1.078 KB, 0.0% gc time)
mult_prefac!:  0.0 sec (0 allocations: 0 byte, 0.0% gc time)
convert:       0.0 sec (0 allocations: 0 byte, 0.0% gc time)
write:         0.036918 sec (0 allocations: 0 byte, 0.0% gc time)
test_rand_2f1: 0.0 sec (0 allocations: 0 byte, 0.0% gc time)
Closing outfile out/MlCache/MlCache.bin...   0.000009 seconds
xi, l=0, nu=0:   0.343656 seconds (602.84 k allocations: 32.967 MiB)
xi, l=0, nu=-2:  0.002621 seconds (114 allocations: 148.969 KiB)
Created 'out/xi.tsv'.
  q=1.1, R=0.6:	  0.773051 seconds (264.51 k allocations: 38.097 MiB)
  q=1.1, R=0.7:	  0.922285 seconds (276.48 k allocations: 40.118 MiB, 1.66% gc time)
  q=1.1, R=0.8:	  0.974082 seconds (271.73 k allocations: 39.310 MiB, 1.11% gc time)
  q=1.1, R=0.9:	  1.024769 seconds (266.62 k allocations: 38.459 MiB, 2.57% gc time)
  q=1.1, R=0.998:	 19.810474 seconds (114.96 k allocations: 7.588 MiB)
  q=1.1, R=1.0:	  0.004490 seconds (8.20 k allocations: 704.344 KiB)

ℓ = 1000
Δℓ = 4
ΔℓRg1 = -4
N = 4096
q = 1.1
kmin = 1.0e-5
kmax = 1000.0
χ0 = 0.001
RR = RR.tsv
ℓmax = ℓmax.bin
f21 = f21.bin
kmin = 1.0e-5
kmax = 1000.0
dlrec    = 4
dlrecRg1 = -4
Output size: 1573632 bytes = 0.0014655590057373047 GiB
Output size: 786816 bytes = 0.0007327795028686523 GiB
Reading 'out/F21EllCache'...   0.001835 seconds (198 allocations: 533.078 KiB)
ellmax: 1002
lmaxcache: 1000
fell[:,1,1] = ComplexF64[1.726292812820208e-224 - 4.2281979352226965e-240im, 1.7282693092099638e-224 - 4.233038955177178e-240im]
ell 1002, elapsed: 8.296966552734375e-5
ell 1001, elapsed: 0.0007479190826416016
ell 1000, elapsed: 0.0009799003601074219
ell 999, elapsed: 0.005454063415527344
ell 998, elapsed: 0.005792856216430664
ell 44, elapsed: 0.7144420146942139
ell 43, elapsed: 0.006424903869628906
ell 42, elapsed: 0.005972146987915039
ell 41, elapsed: 0.005625009536743164
ell 40, elapsed: 0.005554914474487305
  0.759947 seconds (5.05 k allocations: 329.328 KiB)
elapsed: 0.006948947906494141
step:          0.710971 sec (0 allocations: 0 byte, 0.0% gc time)
swapping:      0.000561 sec (0 allocations: 0 byte, 0.0% gc time)
calc_Mellell!: 0.001296 sec (0 allocations: 0 byte, 0.0% gc time)
  t0 :  0.000513 sec (0 allocations: 0 byte, 0.0% gc time)
  tm2 : 0.01015 sec (0 allocations: 0 byte, 0.0% gc time)
  tm2s: 0.000372 sec (0 allocations: 0 byte, 0.0% gc time)
  tm4 : 0.026865 sec (0 allocations: 0 byte, 0.0% gc time)
  tp2 : 0.0 sec (0 allocations: 0 byte, 0.0% gc time)
  tp2s: 0.0 sec (0 allocations: 0 byte, 0.0% gc time)
  tp4 : 0.0 sec (0 allocations: 0 byte, 0.0% gc time)
calc_wtdll!:   0.038207 sec (480 allocations: 52.5 KB, 0.0% gc time)
calc_wljj!:    0.000967 sec (1 allocations: 16 byte, 0.0% gc time)
mult_prefac!:  0.0 sec (0 allocations: 0 byte, 0.0% gc time)
convert:       0.0 sec (0 allocations: 0 byte, 0.0% gc time)
write:         0.000915 sec (0 allocations: 0 byte, 0.0% gc time)
test_rand_2f1: 0.0 sec (0 allocations: 0 byte, 0.0% gc time)
Closing outfile out/MlCache/MlCache.bin...   0.000010 seconds
  0.515285 seconds (38 allocations: 66.859 KiB)
make_phi():   0.010195 seconds (65 allocations: 275.984 KiB)
  0.045298 seconds (11.42 k allocations: 711.851 KiB)
tskip:       1.0e-6 sec (0 allocations: 0 byte, 0.0% gc time)
tread:       0.000762 sec (17 allocations: 1.266 KB, 0.0% gc time)
tmultphi:    0.000347 sec (0 allocations: 0 byte, 0.0% gc time)
tbrfft:      0.001142 sec (0 allocations: 0 byte, 0.0% gc time)
tmultprefac: 0.001218 sec (0 allocations: 0 byte, 0.0% gc time)
toutfunc:    0.00015 sec (0 allocations: 0 byte, 0.0% gc time)
Created 'out/wl42_jj00.tsv'.
Created 'out/wl42_jj02.tsv'.
    Testing TwoFAST tests passed 
