Julia Version 1.4.3-pre.0
Commit b5f13c3a1a (2020-05-25 19:42 UTC)
Platform Info:
  OS: Linux (x86_64-linux-gnu)
  CPU: Intel(R) Xeon(R) Silver 4114 CPU @ 2.20GHz
  WORD_SIZE: 64
  LIBM: libopenlibm
  LLVM: libLLVM-8.0.1 (ORCJIT, skylake)
Environment:
  JULIA_DEPOT_PATH = ::/usr/local/share/julia
  JULIA_NUM_THREADS = 2

  Resolving package versions...
  Installed OpenSpecFun_jll ────────────── v0.5.3+3
  Installed Reexport ───────────────────── v0.2.0
  Installed FFTW_jll ───────────────────── v3.3.9+5
  Installed AbstractFFTs ───────────────── v0.5.0
  Installed LoadFlint ──────────────────── v0.1.3
  Installed FFTW ───────────────────────── v1.2.1
  Installed Nemo ───────────────────────── v0.17.5
  Installed MKL_jll ────────────────────── v2019.0.117+2
  Installed IntelOpenMP_jll ────────────── v2018.0.3+0
  Installed CompilerSupportLibraries_jll ─ v0.3.3+0
  Installed SpecialFunctions ───────────── v0.10.3
  Installed BinaryProvider ─────────────── v0.5.10
  Installed TwoFAST ────────────────────── v0.1.1
  Installed AbstractAlgebra ────────────── v0.9.1
   Updating `~/.julia/environments/v1.4/Project.toml`
  [0dd23c3e] + TwoFAST v0.1.1
   Updating `~/.julia/environments/v1.4/Manifest.toml`
  [c3fe647b] + AbstractAlgebra v0.9.1
  [621f4979] + AbstractFFTs v0.5.0
  [b99e7846] + BinaryProvider v0.5.10
  [e66e0078] + CompilerSupportLibraries_jll v0.3.3+0
  [7a1cc6ca] + FFTW v1.2.1
  [f5851436] + FFTW_jll v3.3.9+5
  [1d5cc7b8] + IntelOpenMP_jll v2018.0.3+0
  [472f376f] + LoadFlint v0.1.3
  [856f044c] + MKL_jll v2019.0.117+2
  [2edaba10] + Nemo v0.17.5
  [efe28fd5] + OpenSpecFun_jll v0.5.3+3
  [189a3867] + Reexport v0.2.0
  [276daf66] + SpecialFunctions v0.10.3
  [0dd23c3e] + TwoFAST v0.1.1
  [2a0f44e3] + Base64 
  [ade2ca70] + Dates 
  [8bb1440f] + DelimitedFiles 
  [8ba89e20] + Distributed 
  [b77e0a4c] + InteractiveUtils 
  [76f85450] + LibGit2 
  [8f399da3] + Libdl 
  [37e2e46d] + LinearAlgebra 
  [56ddb016] + Logging 
  [d6f4376e] + Markdown 
  [a63ad114] + Mmap 
  [44cfe95a] + Pkg 
  [de0858da] + Printf 
  [3fa0cd96] + REPL 
  [9a3f8284] + Random 
  [ea8e919c] + SHA 
  [9e88b42a] + Serialization 
  [6462fe0b] + Sockets 
  [2f01184e] + SparseArrays 
  [8dfed614] + Test 
  [cf7118a7] + UUIDs 
  [4ec0a83e] + Unicode 
   Building LoadFlint → `~/.julia/packages/LoadFlint/42zpR/deps/build.log`
   Building FFTW ─────→ `~/.julia/packages/FFTW/5DZuu/deps/build.log`
   Building Nemo ─────→ `~/.julia/packages/Nemo/Pc5ui/deps/build.log`
    Testing TwoFAST
Status `/tmp/jl_fGu13Q/Manifest.toml`
  [c3fe647b] AbstractAlgebra v0.9.1
  [621f4979] AbstractFFTs v0.5.0
  [b99e7846] BinaryProvider v0.5.10
  [e66e0078] CompilerSupportLibraries_jll v0.3.3+0
  [39dd38d3] Dierckx v0.4.1
  [7a1cc6ca] FFTW v1.2.1
  [f5851436] FFTW_jll v3.3.9+5
  [1d5cc7b8] IntelOpenMP_jll v2018.0.3+0
  [472f376f] LoadFlint v0.1.3
  [856f044c] MKL_jll v2019.0.117+2
  [2edaba10] Nemo v0.17.5
  [efe28fd5] OpenSpecFun_jll v0.5.3+3
  [189a3867] Reexport v0.2.0
  [276daf66] SpecialFunctions v0.10.3
  [0dd23c3e] TwoFAST v0.1.1
  [2a0f44e3] Base64 
  [ade2ca70] Dates 
  [8bb1440f] DelimitedFiles 
  [8ba89e20] Distributed 
  [b77e0a4c] InteractiveUtils 
  [76f85450] LibGit2 
  [8f399da3] Libdl 
  [37e2e46d] LinearAlgebra 
  [56ddb016] Logging 
  [d6f4376e] Markdown 
  [a63ad114] Mmap 
  [44cfe95a] Pkg 
  [de0858da] Printf 
  [3fa0cd96] REPL 
  [9a3f8284] Random 
  [ea8e919c] SHA 
  [9e88b42a] Serialization 
  [6462fe0b] Sockets 
  [2f01184e] SparseArrays 
  [8dfed614] Test 
  [cf7118a7] UUIDs 
  [4ec0a83e] Unicode 
Testing ξ(r), ℓ=0, ν=-1 ... passed
Testing ξ(r), ℓ=0, ν=0 ... passed
Testing ξ(r), ℓ=0, ν=1 ... passed
Testing ξ(r), ℓ=0, ν=2 ... passed
Testing ξ(r), ℓ=0, ν=3 ... passed
Testing ξ(r), ℓ=1, ν=0 ... passed
Testing ξ(r), ℓ=1, ν=1 ... passed
Testing ξ(r), ℓ=1, ν=2 ... passed
Testing ξ(r), ℓ=1, ν=3 ... passed
Testing ξ(r), ℓ=2, ν=-1 ... passed
Testing ξ(r), ℓ=2, ν=0 ... passed
Testing ξ(r), ℓ=2, ν=1 ... passed
Testing ξ(r), ℓ=2, ν=2 ... passed
Testing ξ(r), ℓ=2, ν=3 ... passed
Testing ξ(r), ℓ=3, ν=-1 ... passed
Testing ξ(r), ℓ=3, ν=0 ... passed
Testing ξ(r), ℓ=3, ν=1 ... passed
Testing ξ(r), ℓ=3, ν=2 ... passed
Testing ξ(r), ℓ=3, ν=3 ... passed
Testing ξ(r), ℓ=4, ν=-1 ... passed
Testing ξ(r), ℓ=4, ν=0 ... passed
Testing ξ(r), ℓ=4, ν=1 ... passed
Testing ξ(r), ℓ=4, ν=2 ... passed
Testing ξ(r), ℓ=4, ν=3 ... passed
Testing ξ(r) ... passed
Testing ξ′(r) ... passed
Testing ξ″(r) ... passed
Calculating fmax: 
  dlrec    = 4
  dlrecRg1 = -4
  q=1.1, R=1.1:	  4.630903 seconds (1.39 M allocations: 76.346 MiB, 0.52% gc time)

  4.670707 seconds (1.41 M allocations: 77.456 MiB, 0.52% gc time)
ℓ = 1202
Δℓ = 4
ΔℓRg1 = -4
N = 1600
q = 1.1
kmin = 1.0e-5
kmax = 100000.00000000004
χ0 = 0.023029999999999995
RR = RR.tsv
ℓmax = ℓmax.bin
f21 = f21.bin
kmin = 1.0e-5
kmax = 100000.0
dlrec    = 4
dlrecRg1 = -4
Output size: 5741568 bytes = 0.005347251892089844 GiB
Output size: 51264 bytes = 4.774332046508789e-5 GiB
Reading 'out/F21EllCache'...   0.505307 seconds (320.89 k allocations: 16.472 MiB)
ellmax: 1202
lmaxcache: 1202
fell[:,1,1] = Complex{Float64}[3.9583795592771634e-52 - 9.695233714158177e-68im, 3.990121772925759e-52 - 9.772979714843386e-68im]
ell 1202, elapsed: 0.00014019012451171875
ell 1201, elapsed: 2.312452793121338
ell 1200, elapsed: 0.0008180141448974609
ell 1199, elapsed: 0.00057220458984375
ell 1198, elapsed: 0.0005860328674316406
ell 1002, elapsed: 0.009742975234985352
ell 1001, elapsed: 0.0006589889526367188
ell 1000, elapsed: 0.0006189346313476562
ell 999, elapsed: 0.0005590915679931641
ell 998, elapsed: 0.0005381107330322266
ell 902, elapsed: 0.005154848098754883
ell 901, elapsed: 0.0006232261657714844
ell 900, elapsed: 0.0005850791931152344
ell 899, elapsed: 0.0005700588226318359
ell 898, elapsed: 0.0006039142608642578
ell 802, elapsed: 0.005266904830932617
ell 801, elapsed: 0.0005929470062255859
ell 800, elapsed: 0.0005891323089599609
ell 799, elapsed: 0.0005831718444824219
ell 798, elapsed: 0.0005960464477539062
ell 702, elapsed: 0.005072116851806641
ell 701, elapsed: 0.0006299018859863281
ell 700, elapsed: 0.0005710124969482422
ell 699, elapsed: 0.0006229877471923828
ell 698, elapsed: 0.0005350112915039062
ell 602, elapsed: 0.005265951156616211
ell 601, elapsed: 0.0006139278411865234
ell 600, elapsed: 0.0006449222564697266
ell 599, elapsed: 0.0005419254302978516
ell 598, elapsed: 0.0005471706390380859
ell 502, elapsed: 0.005237102508544922
ell 501, elapsed: 0.0006151199340820312
ell 500, elapsed: 0.0005810260772705078
ell 499, elapsed: 0.0005338191986083984
ell 498, elapsed: 0.0005240440368652344
ell 402, elapsed: 0.005181074142456055
ell 401, elapsed: 0.0006978511810302734
ell 400, elapsed: 0.0005528926849365234
ell 399, elapsed: 0.0005660057067871094
ell 398, elapsed: 0.0005478858947753906
ell 302, elapsed: 0.005221843719482422
ell 301, elapsed: 0.0006089210510253906
ell 300, elapsed: 0.0005750656127929688
ell 299, elapsed: 0.00055694580078125
ell 298, elapsed: 0.0005259513854980469
ell 202, elapsed: 0.005227088928222656
ell 201, elapsed: 0.0005230903625488281
ell 200, elapsed: 0.0004830360412597656
ell 199, elapsed: 0.0004830360412597656
ell 198, elapsed: 0.0004799365997314453
ell 152, elapsed: 0.0025680065155029297
ell 151, elapsed: 0.000492095947265625
ell 150, elapsed: 0.00047707557678222656
ell 149, elapsed: 0.00047707557678222656
ell 148, elapsed: 0.0005121231079101562
ell 127, elapsed: 0.0016329288482666016
ell 126, elapsed: 0.0004661083221435547
ell 125, elapsed: 0.0004639625549316406
ell 124, elapsed: 0.0004711151123046875
ell 123, elapsed: 0.0004661083221435547
ell 114, elapsed: 0.000885009765625
ell 113, elapsed: 0.0004711151123046875
ell 112, elapsed: 0.0004589557647705078
ell 111, elapsed: 0.00045800209045410156
ell 110, elapsed: 0.000514984130859375
ell 102, elapsed: 0.0009369850158691406
ell 101, elapsed: 0.0004889965057373047
ell 100, elapsed: 0.0004730224609375
ell 99, elapsed: 0.0004730224609375
ell 98, elapsed: 0.0004570484161376953
ell 97, elapsed: 0.0005319118499755859
ell 96, elapsed: 0.0006511211395263672
ell 95, elapsed: 0.0004899501800537109
ell 94, elapsed: 0.0005640983581542969
ell 93, elapsed: 0.0005571842193603516
ell 92, elapsed: 0.0005769729614257812
ell 91, elapsed: 0.0004899501800537109
ell 90, elapsed: 0.0005500316619873047
ell 89, elapsed: 0.0005090236663818359
ell 88, elapsed: 0.0005588531494140625
ell 87, elapsed: 0.0005028247833251953
ell 86, elapsed: 0.0005850791931152344
ell 85, elapsed: 0.0005090236663818359
ell 84, elapsed: 0.0005970001220703125
ell 83, elapsed: 0.0005109310150146484
ell 82, elapsed: 0.0005850791931152344
ell 81, elapsed: 0.0005090236663818359
ell 80, elapsed: 0.0005650520324707031
ell 79, elapsed: 0.0005209445953369141
ell 78, elapsed: 0.0005769729614257812
ell 77, elapsed: 0.0005240440368652344
ell 76, elapsed: 0.0005888938903808594
ell 75, elapsed: 0.0005080699920654297
ell 74, elapsed: 0.000579833984375
ell 73, elapsed: 0.0005130767822265625
ell 72, elapsed: 0.0006330013275146484
ell 71, elapsed: 0.0005099773406982422
ell 70, elapsed: 0.0005729198455810547
ell 69, elapsed: 0.0005168914794921875
ell 68, elapsed: 0.0005869865417480469
ell 67, elapsed: 0.0005319118499755859
ell 66, elapsed: 0.018996000289916992
ell 65, elapsed: 0.0005578994750976562
ell 64, elapsed: 0.0006129741668701172
ell 63, elapsed: 0.0005338191986083984
ell 62, elapsed: 0.0005931854248046875
ell 61, elapsed: 0.0005130767822265625
ell 60, elapsed: 0.0005810260772705078
ell 59, elapsed: 0.0005099773406982422
ell 58, elapsed: 0.0005822181701660156
ell 57, elapsed: 0.0005159378051757812
ell 56, elapsed: 0.0006148815155029297
ell 55, elapsed: 0.0005869865417480469
ell 54, elapsed: 0.0005779266357421875
ell 53, elapsed: 0.0005140304565429688
ell 52, elapsed: 0.0005829334259033203
ell 51, elapsed: 0.000514984130859375
ell 50, elapsed: 0.000576019287109375
ell 49, elapsed: 0.0005238056182861328
ell 48, elapsed: 0.0005710124969482422
ell 47, elapsed: 0.0005209445953369141
ell 46, elapsed: 0.0005791187286376953
ell 45, elapsed: 0.0005609989166259766
ell 44, elapsed: 0.0006210803985595703
ell 43, elapsed: 0.0005390644073486328
ell 42, elapsed: 0.0005829334259033203
ell 41, elapsed: 0.0005140304565429688
ell 40, elapsed: 0.00055694580078125
ell 39, elapsed: 0.0005118846893310547
ell 38, elapsed: 0.0005700588226318359
ell 37, elapsed: 0.0005071163177490234
ell 36, elapsed: 0.0005910396575927734
ell 35, elapsed: 0.0005130767822265625
ell 34, elapsed: 0.0005791187286376953
ell 33, elapsed: 0.0005099773406982422
ell 32, elapsed: 0.0005807876586914062
ell 31, elapsed: 0.0005130767822265625
ell 30, elapsed: 0.0005750656127929688
ell 29, elapsed: 0.0005288124084472656
ell 28, elapsed: 0.0005669593811035156
ell 27, elapsed: 0.0005099773406982422
ell 26, elapsed: 0.000576019287109375
ell 25, elapsed: 0.0004990100860595703
ell 24, elapsed: 0.0005409717559814453
ell 23, elapsed: 0.0005021095275878906
ell 22, elapsed: 0.0006208419799804688
ell 21, elapsed: 0.0005121231079101562
ell 20, elapsed: 0.0005679130554199219
ell 19, elapsed: 0.0005118846893310547
ell 18, elapsed: 0.0005729198455810547
ell 17, elapsed: 0.0005118846893310547
ell 16, elapsed: 0.0005638599395751953
ell 15, elapsed: 0.0004980564117431641
ell 14, elapsed: 0.0005509853363037109
ell 13, elapsed: 0.0004971027374267578
ell 12, elapsed: 0.0005729198455810547
ell 11, elapsed: 0.0005090236663818359
ell 10, elapsed: 0.0005648136138916016
ell 9, elapsed: 0.0004830360412597656
ell 8, elapsed: 0.0005588531494140625
ell 7, elapsed: 0.0005061626434326172
ell 6, elapsed: 0.0005691051483154297
ell 5, elapsed: 0.0005049705505371094
ell 4, elapsed: 0.0005600452423095703
ell 3, elapsed: 0.0004839897155761719
ell 2, elapsed: 0.0005600452423095703
ell 1, elapsed: 0.0006160736083984375
ell 0, elapsed: 0.0006031990051269531
  3.156317 seconds (2.03 M allocations: 98.015 MiB, 1.88% gc time)
elapsed: 0.0006420612335205078
step:          0.937382 sec (593.76 k allocations: 28.701 MB, 2.59% gc time)
swapping:      0.000555 sec (0 allocations: 0 byte, 0.0% gc time)
calc_Mellell!: 0.559198 sec (389.769 k allocations: 19.053 MB, 6.26% gc time)
  t0 :  0.0 sec (0 allocations: 0 byte, 0.0% gc time)
  tm2 : 0.0 sec (0 allocations: 0 byte, 0.0% gc time)
  tm2s: 0.0 sec (0 allocations: 0 byte, 0.0% gc time)
  tm4 : 0.0 sec (0 allocations: 0 byte, 0.0% gc time)
  tp2 : 0.0 sec (0 allocations: 0 byte, 0.0% gc time)
  tp2s: 0.0 sec (0 allocations: 0 byte, 0.0% gc time)
  tp4 : 0.0 sec (0 allocations: 0 byte, 0.0% gc time)
calc_wtdll!:   0.939541 sec (526.101 k allocations: 26.389 MB, 0.0% gc time)
calc_wljj!:    0.00324 sec (6 allocations: 96 byte, 0.0% gc time)
mult_prefac!:  0.0 sec (0 allocations: 0 byte, 0.0% gc time)
convert:       0.0 sec (0 allocations: 0 byte, 0.0% gc time)
write:         0.022485 sec (0 allocations: 0 byte, 0.0% gc time)
test_rand_2f1: 0.0 sec (0 allocations: 0 byte, 0.0% gc time)
Closing outfile out/Ml21-cache.bin...   0.000113 seconds
  2.663326 seconds (834.90 k allocations: 80.426 MiB, 3.16% gc time)
make_phi():   0.041569 seconds (8.33 k allocations: 250.469 KiB)
  0.302456 seconds (179.03 k allocations: 11.507 MiB)
tskip:       4.8e-5 sec (0 allocations: 0 byte, 0.0% gc time)
tread:       0.011046 sec (19 allocations: 2.172 KB, 0.0% gc time)
tmultphi:    0.045272 sec (26.022 k allocations: 1.338 MB, 0.0% gc time)
tbrfft:      0.065623 sec (58.209 k allocations: 5.646 MB, 0.0% gc time)
tmultprefac: 0.003503 sec (0 allocations: 0 byte, 0.0% gc time)
toutfunc:    0.176833 sec (94.126 k allocations: 4.451 MB, 0.0% gc time)
Testing R=1.1 ... passed
Calculating fmax: 
  dlrec    = 4
  dlrecRg1 = -4
  q=1.1, R=1.0:	  0.001748 seconds (4.00 k allocations: 300.375 KiB)

  0.002776 seconds (4.04 k allocations: 334.734 KiB)
ℓ = 1202
Δℓ = 4
ΔℓRg1 = -4
N = 1600
q = 1.1
kmin = 1.0e-5
kmax = 100000.00000000004
χ0 = 0.023029999999999995
RR = RR.tsv
ℓmax = ℓmax.bin
f21 = f21.bin
kmin = 1.0e-5
kmax = 100000.0
dlrec    = 4
dlrecRg1 = -4
Output size: 61465536 bytes = 0.05724424123764038 GiB
Output size: 51264 bytes = 4.774332046508789e-5 GiB
Reading 'out/F21EllCache'...   0.001104 seconds (267 allocations: 84.656 KiB)
ellmax: 1202
lmaxcache: 1202
fell[:,1,1] = Complex{Float64}[809.6031528389767 - 1.9829558194077161e-13im, 0.0 + 0.0im]
ell 1202, elapsed: 0.0001049041748046875
ell 1201, elapsed: 0.015099048614501953
ell 1200, elapsed: 0.0006759166717529297
ell 1199, elapsed: 0.0006520748138427734
ell 1198, elapsed: 0.0005979537963867188
ell 1197, elapsed: 0.0006680488586425781
ell 1196, elapsed: 0.0005230903625488281
ell 1195, elapsed: 0.0008149147033691406
ell 1194, elapsed: 0.0007348060607910156
ell 1193, elapsed: 0.0007498264312744141
ell 1192, elapsed: 0.0006618499755859375
ell 1191, elapsed: 0.0008351802825927734
ell 1190, elapsed: 0.00048089027404785156
ell 1189, elapsed: 0.0005450248718261719
ell 1188, elapsed: 0.0007081031799316406
ell 1187, elapsed: 0.0005509853363037109
ell 1186, elapsed: 0.0007150173187255859
ell 1185, elapsed: 0.0005688667297363281
ell 1184, elapsed: 0.0006968975067138672
ell 1183, elapsed: 0.0005621910095214844
ell 1182, elapsed: 0.000698089599609375
ell 1181, elapsed: 0.0005421638488769531
ell 1180, elapsed: 0.0006580352783203125
ell 1179, elapsed: 0.0008280277252197266
ell 1178, elapsed: 0.0006930828094482422
ell 1177, elapsed: 0.0007867813110351562
ell 1176, elapsed: 0.0006818771362304688
ell 1175, elapsed: 0.0008070468902587891
ell 1174, elapsed: 0.0006310939788818359
ell 1173, elapsed: 0.0005660057067871094
ell 1172, elapsed: 0.0006999969482421875
ell 1171, elapsed: 0.0005791187286376953
ell 1170, elapsed: 0.0004909038543701172
ell 1169, elapsed: 0.0005400180816650391
ell 1168, elapsed: 0.0006210803985595703
ell 1167, elapsed: 0.0008599758148193359
ell 1166, elapsed: 0.0006799697875976562
ell 1165, elapsed: 0.0006041526794433594
ell 1164, elapsed: 0.0007290840148925781
ell 1163, elapsed: 0.000576019287109375
ell 1162, elapsed: 0.0005049705505371094
ell 1161, elapsed: 0.0005631446838378906
ell 1160, elapsed: 0.0004911422729492188
ell 1159, elapsed: 0.00055694580078125
ell 1158, elapsed: 0.0004870891571044922
ell 1157, elapsed: 0.0005679130554199219
ell 1156, elapsed: 0.00047707557678222656
ell 1155, elapsed: 0.0007879734039306641
ell 1154, elapsed: 0.0007200241088867188
ell 1153, elapsed: 0.0005450248718261719
ell 1152, elapsed: 0.0004749298095703125
ell 1151, elapsed: 0.0007960796356201172
ell 1150, elapsed: 0.0007369518280029297
ell 1149, elapsed: 0.0007519721984863281
ell 1148, elapsed: 0.0005009174346923828
ell 1147, elapsed: 0.0005481243133544922
ell 1146, elapsed: 0.0004930496215820312
ell 1145, elapsed: 0.0005638599395751953
ell 1144, elapsed: 0.0004889965057373047
ell 1143, elapsed: 0.0005481243133544922
ell 1142, elapsed: 0.0006499290466308594
ell 1141, elapsed: 0.0008699893951416016
ell 1140, elapsed: 0.0006778240203857422
ell 1139, elapsed: 0.0007448196411132812
ell 1138, elapsed: 0.0006799697875976562
ell 1137, elapsed: 0.0007791519165039062
ell 1136, elapsed: 0.0006740093231201172
ell 1135, elapsed: 0.0005750656127929688
ell 1134, elapsed: 0.0006670951843261719
ell 1133, elapsed: 0.0007779598236083984
ell 1132, elapsed: 0.0006961822509765625
ell 1131, elapsed: 0.0008370876312255859
ell 1130, elapsed: 0.0006699562072753906
ell 1129, elapsed: 0.0008270740509033203
ell 1128, elapsed: 0.0007140636444091797
ell 1127, elapsed: 0.0005609989166259766
ell 1126, elapsed: 0.0004930496215820312
ell 1125, elapsed: 0.0007970333099365234
ell 1124, elapsed: 0.0006999969482421875
ell 1123, elapsed: 0.0005578994750976562
ell 1122, elapsed: 0.0007178783416748047
ell 1121, elapsed: 0.0007951259613037109
ell 1120, elapsed: 0.0007090568542480469
ell 1119, elapsed: 0.0005640983581542969
ell 1118, elapsed: 0.0005180835723876953
ell 1117, elapsed: 0.0007879734039306641
ell 1116, elapsed: 0.0007271766662597656
ell 1115, elapsed: 0.0008161067962646484
ell 1114, elapsed: 0.0007150173187255859
ell 1113, elapsed: 0.0008471012115478516
ell 1112, elapsed: 0.0005061626434326172
ell 1111, elapsed: 0.00080108642578125
ell 1110, elapsed: 0.0006880760192871094
ell 1109, elapsed: 0.0008399486541748047
ell 1108, elapsed: 0.0006601810455322266
ell 1107, elapsed: 0.0008261203765869141
ell 1106, elapsed: 0.0007390975952148438
ell 1105, elapsed: 0.0005347728729248047
ell 1104, elapsed: 0.0007030963897705078
ell 1103, elapsed: 0.0005481243133544922
ell 1102, elapsed: 0.000659942626953125
ell 1101, elapsed: 0.0005710124969482422
ell 1100, elapsed: 0.000492095947265625
ell 1099, elapsed: 0.00055694580078125
ell 1098, elapsed: 0.0007500648498535156
ell 1097, elapsed: 0.0008189678192138672
ell 1096, elapsed: 0.0006940364837646484
ell 1095, elapsed: 0.0008001327514648438
ell 1094, elapsed: 0.0007159709930419922
ell 1093, elapsed: 0.0005700588226318359
ell 1092, elapsed: 0.0006349086761474609
ell 1091, elapsed: 0.0005769729614257812
ell 1090, elapsed: 0.0006840229034423828
ell 1089, elapsed: 0.0006079673767089844
ell 1088, elapsed: 0.00046706199645996094
ell 1087, elapsed: 0.0005431175231933594
ell 1086, elapsed: 0.0004658699035644531
ell 1085, elapsed: 0.0005550384521484375
ell 1084, elapsed: 0.0006220340728759766
ell 1083, elapsed: 0.0005609989166259766
ell 1082, elapsed: 0.0006330013275146484
ell 1081, elapsed: 0.0005650520324707031
ell 1080, elapsed: 0.0005021095275878906
ell 1079, elapsed: 0.0005588531494140625
ell 1078, elapsed: 0.0006601810455322266
ell 1077, elapsed: 0.0007650852203369141
ell 1076, elapsed: 0.00048804283142089844
ell 1075, elapsed: 0.0007750988006591797
ell 1074, elapsed: 0.0006880760192871094
ell 1073, elapsed: 0.0005478858947753906
ell 1072, elapsed: 0.0004799365997314453
ell 1071, elapsed: 0.0005359649658203125
ell 1070, elapsed: 0.0006859302520751953
ell 1069, elapsed: 0.0005648136138916016
ell 1068, elapsed: 0.0004858970642089844
ell 1067, elapsed: 0.0005559921264648438
ell 1066, elapsed: 0.00048804283142089844
ell 1065, elapsed: 0.0005590915679931641
ell 1064, elapsed: 0.0004868507385253906
ell 1063, elapsed: 0.0005500316619873047
ell 1062, elapsed: 0.0004930496215820312
ell 1061, elapsed: 0.0005578994750976562
ell 1060, elapsed: 0.0004870891571044922
ell 1059, elapsed: 0.0005490779876708984
ell 1058, elapsed: 0.0004868507385253906
ell 1057, elapsed: 0.0005490779876708984
ell 1056, elapsed: 0.00048613548278808594
ell 1055, elapsed: 0.0005540847778320312
ell 1054, elapsed: 0.0004899501800537109
ell 1053, elapsed: 0.00055694580078125
ell 1052, elapsed: 0.00048804283142089844
ell 1051, elapsed: 0.0005500316619873047
ell 1050, elapsed: 0.0004999637603759766
ell 1049, elapsed: 0.0005528926849365234
ell 1048, elapsed: 0.0004889965057373047
ell 1047, elapsed: 0.0005619525909423828
ell 1046, elapsed: 0.0004868507385253906
ell 1045, elapsed: 0.0005700588226318359
ell 1044, elapsed: 0.0004889965057373047
ell 1043, elapsed: 0.0005559921264648438
ell 1042, elapsed: 0.00048613548278808594
ell 1041, elapsed: 0.0007920265197753906
ell 1040, elapsed: 0.0004899501800537109
ell 1039, elapsed: 0.000553131103515625
ell 1038, elapsed: 0.0004820823669433594
ell 1037, elapsed: 0.0005428791046142578
ell 1036, elapsed: 0.0006351470947265625
ell 1035, elapsed: 0.0005700588226318359
ell 1034, elapsed: 0.00048613548278808594
ell 1033, elapsed: 0.0005590915679931641
ell 1032, elapsed: 0.0005340576171875
ell 1031, elapsed: 0.0006060600280761719
ell 1030, elapsed: 0.0004878044128417969
ell 1029, elapsed: 0.0005698204040527344
ell 1028, elapsed: 0.0004949569702148438
ell 1027, elapsed: 0.0005631446838378906
ell 1026, elapsed: 0.0004909038543701172
ell 1025, elapsed: 0.0005540847778320312
ell 1024, elapsed: 0.00048089027404785156
ell 1023, elapsed: 0.00055694580078125
ell 1022, elapsed: 0.0004889965057373047
ell 1021, elapsed: 0.0005741119384765625
ell 1020, elapsed: 0.0007190704345703125
ell 1019, elapsed: 0.0005650520324707031
ell 1018, elapsed: 0.0005061626434326172
ell 1017, elapsed: 0.0005640983581542969
ell 1016, elapsed: 0.00048804283142089844
ell 1015, elapsed: 0.000553131103515625
ell 1014, elapsed: 0.0005519390106201172
ell 1013, elapsed: 0.00055694580078125
ell 1012, elapsed: 0.0004699230194091797
ell 1011, elapsed: 0.0005490779876708984
ell 1010, elapsed: 0.0005009174346923828
ell 1009, elapsed: 0.00055694580078125
ell 1008, elapsed: 0.0004889965057373047
ell 1007, elapsed: 0.0005559921264648438
ell 1006, elapsed: 0.00049591064453125
ell 1005, elapsed: 0.0005650520324707031
ell 1004, elapsed: 0.00048613548278808594
ell 1003, elapsed: 0.0005850791931152344
ell 1002, elapsed: 0.0004930496215820312
ell 1001, elapsed: 0.0005688667297363281
ell 1000, elapsed: 0.0005030632019042969
ell 999, elapsed: 0.0005578994750976562
ell 998, elapsed: 0.0005021095275878906
ell 997, elapsed: 0.0005559921264648438
ell 996, elapsed: 0.0004990100860595703
ell 995, elapsed: 0.0005600452423095703
ell 994, elapsed: 0.0005018711090087891
ell 993, elapsed: 0.0005691051483154297
ell 992, elapsed: 0.0004930496215820312
ell 991, elapsed: 0.0008020401000976562
ell 990, elapsed: 0.0007331371307373047
ell 989, elapsed: 0.0005710124969482422
ell 988, elapsed: 0.0004949569702148438
ell 987, elapsed: 0.0005581378936767578
ell 986, elapsed: 0.0006501674652099609
ell 985, elapsed: 0.0007290840148925781
ell 984, elapsed: 0.0004978179931640625
ell 983, elapsed: 0.0007581710815429688
ell 982, elapsed: 0.0004820823669433594
ell 981, elapsed: 0.0005509853363037109
ell 980, elapsed: 0.0005109310150146484
ell 979, elapsed: 0.0006780624389648438
ell 978, elapsed: 0.00047206878662109375
ell 977, elapsed: 0.0005698204040527344
ell 976, elapsed: 0.0005660057067871094
ell 975, elapsed: 0.0005350112915039062
ell 974, elapsed: 0.0007281303405761719
ell 973, elapsed: 0.0006420612335205078
ell 972, elapsed: 0.00047516822814941406
ell 971, elapsed: 0.0005211830139160156
ell 970, elapsed: 0.0004010200500488281
ell 969, elapsed: 0.0005278587341308594
ell 968, elapsed: 0.0004680156707763672
ell 967, elapsed: 0.0005249977111816406
ell 966, elapsed: 0.0006661415100097656
ell 965, elapsed: 0.0005528926849365234
ell 964, elapsed: 0.00047206878662109375
ell 963, elapsed: 0.0005450248718261719
ell 962, elapsed: 0.00047206878662109375
ell 961, elapsed: 0.0005769729614257812
ell 960, elapsed: 0.0004918575286865234
ell 959, elapsed: 0.0005538463592529297
ell 958, elapsed: 0.0004901885986328125
ell 957, elapsed: 0.0005829334259033203
ell 956, elapsed: 0.0005040168762207031
ell 955, elapsed: 0.0005631446838378906
ell 954, elapsed: 0.0004990100860595703
ell 953, elapsed: 0.0007200241088867188
ell 952, elapsed: 0.0006601810455322266
ell 951, elapsed: 0.0007200241088867188
ell 950, elapsed: 0.0004990100860595703
ell 949, elapsed: 0.0007860660552978516
ell 948, elapsed: 0.0006380081176757812
ell 947, elapsed: 0.0005609989166259766
ell 946, elapsed: 0.0005011558532714844
ell 945, elapsed: 0.0005660057067871094
ell 944, elapsed: 0.0005090236663818359
ell 943, elapsed: 0.0005600452423095703
ell 942, elapsed: 0.0004990100860595703
ell 941, elapsed: 0.0005688667297363281
ell 940, elapsed: 0.0005009174346923828
ell 939, elapsed: 0.0006730556488037109
ell 938, elapsed: 0.0006349086761474609
ell 937, elapsed: 0.0008170604705810547
ell 936, elapsed: 0.0005278587341308594
ell 935, elapsed: 0.0006721019744873047
ell 934, elapsed: 0.0006251335144042969
ell 933, elapsed: 0.0007419586181640625
ell 932, elapsed: 0.0006480216979980469
ell 931, elapsed: 0.0005679130554199219
ell 930, elapsed: 0.0006630420684814453
ell 929, elapsed: 0.0006728172302246094
ell 928, elapsed: 0.0005970001220703125
ell 927, elapsed: 0.0007090568542480469
ell 926, elapsed: 0.0005109310150146484
ell 925, elapsed: 0.0005710124969482422
ell 924, elapsed: 0.0004999637603759766
ell 923, elapsed: 0.0005679130554199219
ell 922, elapsed: 0.0004968643188476562
ell 921, elapsed: 0.0005741119384765625
ell 920, elapsed: 0.0005009174346923828
ell 919, elapsed: 0.0006711483001708984
ell 918, elapsed: 0.0006377696990966797
ell 917, elapsed: 0.0005631446838378906
ell 916, elapsed: 0.0005121231079101562
ell 915, elapsed: 0.0005700588226318359
ell 914, elapsed: 0.0004978179931640625
ell 913, elapsed: 0.0005857944488525391
ell 912, elapsed: 0.00051116943359375
ell 911, elapsed: 0.0005738735198974609
ell 910, elapsed: 0.0004990100860595703
ell 909, elapsed: 0.0005619525909423828
ell 908, elapsed: 0.0005059242248535156
ell 907, elapsed: 0.0005629062652587891
ell 906, elapsed: 0.0005128383636474609
ell 905, elapsed: 0.0005700588226318359
ell 904, elapsed: 0.0005040168762207031
ell 903, elapsed: 0.0005681514739990234
ell 902, elapsed: 0.0005059242248535156
ell 901, elapsed: 0.0005700588226318359
ell 900, elapsed: 0.0005040168762207031
ell 899, elapsed: 0.0005819797515869141
ell 898, elapsed: 0.0005030632019042969
ell 897, elapsed: 0.000576019287109375
ell 896, elapsed: 0.0005040168762207031
ell 895, elapsed: 0.0005619525909423828
ell 894, elapsed: 0.0005059242248535156
ell 893, elapsed: 0.0005660057067871094
ell 892, elapsed: 0.0005161762237548828
ell 891, elapsed: 0.0005710124969482422
ell 890, elapsed: 0.0005090236663818359
ell 889, elapsed: 0.0005710124969482422
ell 888, elapsed: 0.0005030632019042969
ell 887, elapsed: 0.0005748271942138672
ell 886, elapsed: 0.0005078315734863281
ell 885, elapsed: 0.0005769729614257812
ell 884, elapsed: 0.0005059242248535156
ell 883, elapsed: 0.0005619525909423828
ell 882, elapsed: 0.0005009174346923828
ell 881, elapsed: 0.0005621910095214844
ell 880, elapsed: 0.0004990100860595703
ell 879, elapsed: 0.0005598068237304688
ell 878, elapsed: 0.0005109310150146484
ell 877, elapsed: 0.0005691051483154297
ell 876, elapsed: 0.0005109310150146484
ell 875, elapsed: 0.0005629062652587891
ell 874, elapsed: 0.0005049705505371094
ell 873, elapsed: 0.0005609989166259766
ell 872, elapsed: 0.0005049705505371094
ell 871, elapsed: 0.0005741119384765625
ell 870, elapsed: 0.0005040168762207031
ell 869, elapsed: 0.0005691051483154297
ell 868, elapsed: 0.0005059242248535156
ell 867, elapsed: 0.0005719661712646484
ell 866, elapsed: 0.0005021095275878906
ell 865, elapsed: 0.0005698204040527344
ell 864, elapsed: 0.0005161762237548828
ell 863, elapsed: 0.0005698204040527344
ell 862, elapsed: 0.0005068778991699219
ell 861, elapsed: 0.0005950927734375
ell 860, elapsed: 0.0004999637603759766
ell 859, elapsed: 0.0005629062652587891
ell 858, elapsed: 0.0004980564117431641
ell 857, elapsed: 0.00057220458984375
ell 856, elapsed: 0.0005071163177490234
ell 855, elapsed: 0.0005538463592529297
ell 854, elapsed: 0.0005059242248535156
ell 853, elapsed: 0.0005679130554199219
ell 852, elapsed: 0.0005040168762207031
ell 851, elapsed: 0.0005691051483154297
ell 850, elapsed: 0.0005140304565429688
ell 849, elapsed: 0.0005729198455810547
ell 848, elapsed: 0.0005061626434326172
ell 847, elapsed: 0.0005660057067871094
ell 846, elapsed: 0.0005118846893310547
ell 845, elapsed: 0.0007069110870361328
ell 844, elapsed: 0.0005910396575927734
ell 843, elapsed: 0.0005769729614257812
ell 842, elapsed: 0.0005040168762207031
ell 841, elapsed: 0.0005660057067871094
ell 840, elapsed: 0.0005071163177490234
ell 839, elapsed: 0.0005710124969482422
ell 838, elapsed: 0.0005040168762207031
ell 837, elapsed: 0.0005731582641601562
ell 836, elapsed: 0.0004999637603759766
ell 835, elapsed: 0.0005700588226318359
ell 834, elapsed: 0.0005059242248535156
ell 833, elapsed: 0.0005621910095214844
ell 832, elapsed: 0.0005068778991699219
ell 831, elapsed: 0.0005741119384765625
ell 830, elapsed: 0.0005030632019042969
ell 829, elapsed: 0.00057220458984375
ell 828, elapsed: 0.0005049705505371094
ell 827, elapsed: 0.0005660057067871094
ell 826, elapsed: 0.0005009174346923828
ell 825, elapsed: 0.0005590915679931641
ell 824, elapsed: 0.0004968643188476562
ell 823, elapsed: 0.00055694580078125
ell 822, elapsed: 0.0005121231079101562
ell 821, elapsed: 0.0005671977996826172
ell 820, elapsed: 0.0005030632019042969
ell 819, elapsed: 0.0005688667297363281
ell 818, elapsed: 0.0005049705505371094
ell 817, elapsed: 0.0005700588226318359
ell 816, elapsed: 0.0004990100860595703
ell 815, elapsed: 0.0005650520324707031
ell 814, elapsed: 0.0004990100860595703
ell 813, elapsed: 0.0005590915679931641
ell 812, elapsed: 0.0004999637603759766
ell 811, elapsed: 0.0005669593811035156
ell 810, elapsed: 0.0004999637603759766
ell 809, elapsed: 0.0005750656127929688
ell 808, elapsed: 0.0005040168762207031
ell 807, elapsed: 0.0005688667297363281
ell 806, elapsed: 0.0004999637603759766
ell 805, elapsed: 0.0005619525909423828
ell 804, elapsed: 0.0005071163177490234
ell 803, elapsed: 0.0007579326629638672
ell 802, elapsed: 0.0006351470947265625
ell 801, elapsed: 0.0007109642028808594
ell 800, elapsed: 0.0005059242248535156
ell 799, elapsed: 0.0005700588226318359
ell 798, elapsed: 0.0005090236663818359
ell 797, elapsed: 0.0005750656127929688
ell 796, elapsed: 0.0005171298980712891
ell 795, elapsed: 0.0005729198455810547
ell 794, elapsed: 0.0005011558532714844
ell 793, elapsed: 0.0005819797515869141
ell 792, elapsed: 0.0005080699920654297
ell 791, elapsed: 0.0005578994750976562
ell 790, elapsed: 0.0004999637603759766
ell 789, elapsed: 0.0005769729614257812
ell 788, elapsed: 0.0005030632019042969
ell 787, elapsed: 0.0007510185241699219
ell 786, elapsed: 0.0006039142608642578
ell 785, elapsed: 0.0005741119384765625
ell 784, elapsed: 0.0005080699920654297
ell 783, elapsed: 0.0005691051483154297
ell 782, elapsed: 0.0005190372467041016
ell 781, elapsed: 0.0007071495056152344
ell 780, elapsed: 0.0006029605865478516
ell 779, elapsed: 0.0005590915679931641
ell 778, elapsed: 0.0004961490631103516
ell 777, elapsed: 0.0005488395690917969
ell 776, elapsed: 0.0005319118499755859
ell 775, elapsed: 0.0005791187286376953
ell 774, elapsed: 0.0004169940948486328
ell 773, elapsed: 0.0004870891571044922
ell 772, elapsed: 0.0004229545593261719
ell 771, elapsed: 0.0006258487701416016
ell 770, elapsed: 0.000576019287109375
ell 769, elapsed: 0.0006399154663085938
ell 768, elapsed: 0.0004220008850097656
ell 767, elapsed: 0.0004930496215820312
ell 766, elapsed: 0.0004200935363769531
ell 765, elapsed: 0.0006260871887207031
ell 764, elapsed: 0.0006120204925537109
ell 763, elapsed: 0.0006299018859863281
ell 762, elapsed: 0.0005700588226318359
ell 761, elapsed: 0.0004858970642089844
ell 760, elapsed: 0.0004239082336425781
ell 759, elapsed: 0.0006339550018310547
ell 758, elapsed: 0.0004379749298095703
ell 757, elapsed: 0.0006468296051025391
ell 756, elapsed: 0.0004150867462158203
ell 755, elapsed: 0.0006191730499267578
ell 754, elapsed: 0.0005609989166259766
ell 753, elapsed: 0.0006701946258544922
ell 752, elapsed: 0.0005528926849365234
ell 751, elapsed: 0.0004858970642089844
ell 750, elapsed: 0.0004220008850097656
ell 749, elapsed: 0.0006351470947265625
ell 748, elapsed: 0.0004189014434814453
ell 747, elapsed: 0.0004889965057373047
ell 746, elapsed: 0.0004220008850097656
ell 745, elapsed: 0.0004799365997314453
ell 744, elapsed: 0.0004210472106933594
ell 743, elapsed: 0.0004868507385253906
ell 742, elapsed: 0.0004210472106933594
ell 741, elapsed: 0.0004940032958984375
ell 740, elapsed: 0.0005819797515869141
ell 739, elapsed: 0.0006930828094482422
ell 738, elapsed: 0.0005698204040527344
ell 737, elapsed: 0.00047588348388671875
ell 736, elapsed: 0.0004189014434814453
ell 735, elapsed: 0.0006859302520751953
ell 734, elapsed: 0.0005478858947753906
ell 733, elapsed: 0.000598907470703125
ell 732, elapsed: 0.0005300045013427734
ell 731, elapsed: 0.0005791187286376953
ell 730, elapsed: 0.00041294097900390625
ell 729, elapsed: 0.0004980564117431641
ell 728, elapsed: 0.0004138946533203125
ell 727, elapsed: 0.0006611347198486328
ell 726, elapsed: 0.0004169940948486328
ell 725, elapsed: 0.00047707557678222656
ell 724, elapsed: 0.0004150867462158203
ell 723, elapsed: 0.0004918575286865234
ell 722, elapsed: 0.0004200935363769531
ell 721, elapsed: 0.0004870891571044922
ell 720, elapsed: 0.00041484832763671875
ell 719, elapsed: 0.0004889965057373047
ell 718, elapsed: 0.0004229545593261719
ell 717, elapsed: 0.000492095947265625
ell 716, elapsed: 0.0004210472106933594
ell 715, elapsed: 0.0006818771362304688
ell 714, elapsed: 0.0006589889526367188
ell 713, elapsed: 0.0006220340728759766
ell 712, elapsed: 0.00043702125549316406
ell 711, elapsed: 0.0004940032958984375
ell 710, elapsed: 0.0004241466522216797
ell 709, elapsed: 0.0004830360412597656
ell 708, elapsed: 0.00041604042053222656
ell 707, elapsed: 0.0004870891571044922
ell 706, elapsed: 0.0004239082336425781
ell 705, elapsed: 0.00047779083251953125
ell 704, elapsed: 0.0004189014434814453
ell 703, elapsed: 0.0004849433898925781
ell 702, elapsed: 0.0004169940948486328
ell 701, elapsed: 0.0004918575286865234
ell 700, elapsed: 0.0004191398620605469
ell 699, elapsed: 0.0006499290466308594
ell 698, elapsed: 0.0005600452423095703
ell 697, elapsed: 0.0004820823669433594
ell 696, elapsed: 0.00041413307189941406
ell 695, elapsed: 0.0004780292510986328
ell 694, elapsed: 0.0005848407745361328
ell 693, elapsed: 0.0006351470947265625
ell 692, elapsed: 0.0004150867462158203
ell 691, elapsed: 0.0006248950958251953
ell 690, elapsed: 0.00043702125549316406
ell 689, elapsed: 0.0006258487701416016
ell 688, elapsed: 0.0005691051483154297
ell 687, elapsed: 0.0004849433898925781
ell 686, elapsed: 0.0005660057067871094
ell 685, elapsed: 0.0006260871887207031
ell 684, elapsed: 0.0004200935363769531
ell 683, elapsed: 0.0006220340728759766
ell 682, elapsed: 0.00043082237243652344
ell 681, elapsed: 0.0004830360412597656
ell 680, elapsed: 0.0005598068237304688
ell 679, elapsed: 0.000720977783203125
ell 678, elapsed: 0.0005500316619873047
ell 677, elapsed: 0.0006170272827148438
ell 676, elapsed: 0.0004258155822753906
ell 675, elapsed: 0.0004870891571044922
ell 674, elapsed: 0.00041484832763671875
ell 673, elapsed: 0.000476837158203125
ell 672, elapsed: 0.00041794776916503906
ell 671, elapsed: 0.0006320476531982422
ell 670, elapsed: 0.0005950927734375
ell 669, elapsed: 0.0008258819580078125
ell 668, elapsed: 0.0005540847778320312
ell 667, elapsed: 0.0004799365997314453
ell 666, elapsed: 0.0008108615875244141
ell 665, elapsed: 0.0006160736083984375
ell 664, elapsed: 0.0004119873046875
ell 663, elapsed: 0.00047397613525390625
ell 662, elapsed: 0.00041794776916503906
ell 661, elapsed: 0.0006339550018310547
ell 660, elapsed: 0.00041484832763671875
ell 659, elapsed: 0.0004990100860595703
ell 658, elapsed: 0.0004200935363769531
ell 657, elapsed: 0.00047898292541503906
ell 656, elapsed: 0.0005738735198974609
ell 655, elapsed: 0.0004930496215820312
ell 654, elapsed: 0.0004239082336425781
ell 653, elapsed: 0.0006520748138427734
ell 652, elapsed: 0.0007898807525634766
ell 651, elapsed: 0.0006048679351806641
ell 650, elapsed: 0.0005431175231933594
ell 649, elapsed: 0.0004968643188476562
ell 648, elapsed: 0.000576019287109375
ell 647, elapsed: 0.00048089027404785156
ell 646, elapsed: 0.0004189014434814453
ell 645, elapsed: 0.0004801750183105469
ell 644, elapsed: 0.0005850791931152344
ell 643, elapsed: 0.0006580352783203125
ell 642, elapsed: 0.0006041526794433594
ell 641, elapsed: 0.0006458759307861328
ell 640, elapsed: 0.00041413307189941406
ell 639, elapsed: 0.0008130073547363281
ell 638, elapsed: 0.0007300376892089844
ell 637, elapsed: 0.0006501674652099609
ell 636, elapsed: 0.0004191398620605469
ell 635, elapsed: 0.0007040500640869141
ell 634, elapsed: 0.0004241466522216797
ell 633, elapsed: 0.00048279762268066406
ell 632, elapsed: 0.0004298686981201172
ell 631, elapsed: 0.0006458759307861328
ell 630, elapsed: 0.00041604042053222656
ell 629, elapsed: 0.0006489753723144531
ell 628, elapsed: 0.0005831718444824219
ell 627, elapsed: 0.0004818439483642578
ell 626, elapsed: 0.0004010200500488281
ell 625, elapsed: 0.0006380081176757812
ell 624, elapsed: 0.0006639957427978516
ell 623, elapsed: 0.0006010532379150391
ell 622, elapsed: 0.0005300045013427734
ell 621, elapsed: 0.0007989406585693359
ell 620, elapsed: 0.0006668567657470703
ell 619, elapsed: 0.0005559921264648438
ell 618, elapsed: 0.0004978179931640625
ell 617, elapsed: 0.0005519390106201172
ell 616, elapsed: 0.0004961490631103516
ell 615, elapsed: 0.0005571842193603516
ell 614, elapsed: 0.0005068778991699219
ell 613, elapsed: 0.0005588531494140625
ell 612, elapsed: 0.0004978179931640625
ell 611, elapsed: 0.0005598068237304688
ell 610, elapsed: 0.0005002021789550781
ell 609, elapsed: 0.0005581378936767578
ell 608, elapsed: 0.0005009174346923828
ell 607, elapsed: 0.0005710124969482422
ell 606, elapsed: 0.00049591064453125
ell 605, elapsed: 0.00055694580078125
ell 604, elapsed: 0.0004999637603759766
ell 603, elapsed: 0.0005640983581542969
ell 602, elapsed: 0.0004987716674804688
ell 601, elapsed: 0.0005578994750976562
ell 600, elapsed: 0.0005819797515869141
ell 599, elapsed: 0.0007169246673583984
ell 598, elapsed: 0.0006041526794433594
ell 597, elapsed: 0.0006749629974365234
ell 596, elapsed: 0.0005040168762207031
ell 595, elapsed: 0.0005640983581542969
ell 594, elapsed: 0.0006210803985595703
ell 593, elapsed: 0.0006620883941650391
ell 592, elapsed: 0.0006520748138427734
ell 591, elapsed: 0.0007128715515136719
ell 590, elapsed: 0.0004928112030029297
ell 589, elapsed: 0.0005469322204589844
ell 588, elapsed: 0.0005021095275878906
ell 587, elapsed: 0.0005548000335693359
ell 586, elapsed: 0.0004911422729492188
ell 585, elapsed: 0.0005581378936767578
ell 584, elapsed: 0.0004909038543701172
ell 583, elapsed: 0.0006649494171142578
ell 582, elapsed: 0.0006070137023925781
ell 581, elapsed: 0.000782012939453125
ell 580, elapsed: 0.0005719661712646484
ell 579, elapsed: 0.0006480216979980469
ell 578, elapsed: 0.0005009174346923828
ell 577, elapsed: 0.0006330013275146484
ell 576, elapsed: 0.0005500316619873047
ell 575, elapsed: 0.0005619525909423828
ell 574, elapsed: 0.0005137920379638672
ell 573, elapsed: 0.0006990432739257812
ell 572, elapsed: 0.0005118846893310547
ell 571, elapsed: 0.0004451274871826172
ell 570, elapsed: 0.0003921985626220703
ell 569, elapsed: 0.0004458427429199219
ell 568, elapsed: 0.0004048347473144531
ell 567, elapsed: 0.0005419254302978516
ell 566, elapsed: 0.00047087669372558594
ell 565, elapsed: 0.0005140304565429688
ell 564, elapsed: 0.0003871917724609375
ell 563, elapsed: 0.0004489421844482422
ell 562, elapsed: 0.0003840923309326172
ell 561, elapsed: 0.000453948974609375
ell 560, elapsed: 0.0003898143768310547
ell 559, elapsed: 0.00047278404235839844
ell 558, elapsed: 0.00038504600524902344
ell 557, elapsed: 0.00045609474182128906
ell 556, elapsed: 0.00039005279541015625
ell 555, elapsed: 0.0004470348358154297
ell 554, elapsed: 0.00038886070251464844
ell 553, elapsed: 0.00045418739318847656
ell 552, elapsed: 0.00039196014404296875
ell 551, elapsed: 0.0004718303680419922
ell 550, elapsed: 0.00039196014404296875
ell 549, elapsed: 0.000453948974609375
ell 548, elapsed: 0.0003859996795654297
ell 547, elapsed: 0.00044798851013183594
ell 546, elapsed: 0.0003819465637207031
ell 545, elapsed: 0.0004489421844482422
ell 544, elapsed: 0.0003960132598876953
ell 543, elapsed: 0.0004439353942871094
ell 542, elapsed: 0.00040411949157714844
ell 541, elapsed: 0.00045013427734375
ell 540, elapsed: 0.00038909912109375
ell 539, elapsed: 0.000453948974609375
ell 538, elapsed: 0.00039005279541015625
ell 537, elapsed: 0.0004570484161376953
ell 536, elapsed: 0.00038909912109375
ell 535, elapsed: 0.0004589557647705078
ell 534, elapsed: 0.0003879070281982422
ell 533, elapsed: 0.0004639625549316406
ell 532, elapsed: 0.00038695335388183594
ell 531, elapsed: 0.00045490264892578125
ell 530, elapsed: 0.0003948211669921875
ell 529, elapsed: 0.00045418739318847656
ell 528, elapsed: 0.0003838539123535156
ell 527, elapsed: 0.0004470348358154297
ell 526, elapsed: 0.00038504600524902344
ell 525, elapsed: 0.0004429817199707031
ell 524, elapsed: 0.0004038810729980469
ell 523, elapsed: 0.00045680999755859375
ell 522, elapsed: 0.00038814544677734375
ell 521, elapsed: 0.00044989585876464844
ell 520, elapsed: 0.0003898143768310547
ell 519, elapsed: 0.0005939006805419922
ell 518, elapsed: 0.0004811286926269531
ell 517, elapsed: 0.0004730224609375
ell 516, elapsed: 0.00042700767517089844
ell 515, elapsed: 0.0004658699035644531
ell 514, elapsed: 0.00039196014404296875
ell 513, elapsed: 0.0004558563232421875
ell 512, elapsed: 0.00039505958557128906
ell 511, elapsed: 0.0004680156707763672
ell 510, elapsed: 0.00039696693420410156
ell 509, elapsed: 0.00045490264892578125
ell 508, elapsed: 0.00038504600524902344
ell 507, elapsed: 0.0004699230194091797
ell 506, elapsed: 0.00039005279541015625
ell 505, elapsed: 0.00045180320739746094
ell 504, elapsed: 0.00038504600524902344
ell 503, elapsed: 0.00045299530029296875
ell 502, elapsed: 0.00039386749267578125
ell 501, elapsed: 0.00045299530029296875
ell 500, elapsed: 0.00039315223693847656
ell 499, elapsed: 0.0006458759307861328
ell 498, elapsed: 0.0004680156707763672
ell 497, elapsed: 0.00045299530029296875
ell 496, elapsed: 0.00039505958557128906
ell 495, elapsed: 0.0006291866302490234
ell 494, elapsed: 0.0004410743713378906
ell 493, elapsed: 0.0004489421844482422
ell 492, elapsed: 0.0005168914794921875
ell 491, elapsed: 0.0007131099700927734
ell 490, elapsed: 0.000453948974609375
ell 489, elapsed: 0.0004489421844482422
ell 488, elapsed: 0.0006120204925537109
ell 487, elapsed: 0.0005340576171875
ell 486, elapsed: 0.0003910064697265625
ell 485, elapsed: 0.00045013427734375
ell 484, elapsed: 0.0004019737243652344
ell 483, elapsed: 0.00045299530029296875
ell 482, elapsed: 0.00039196014404296875
ell 481, elapsed: 0.00045108795166015625
ell 480, elapsed: 0.0003941059112548828
ell 479, elapsed: 0.00045108795166015625
ell 478, elapsed: 0.0003948211669921875
ell 477, elapsed: 0.00045800209045410156
ell 476, elapsed: 0.00039696693420410156
ell 475, elapsed: 0.00047397613525390625
ell 474, elapsed: 0.00039386749267578125
ell 473, elapsed: 0.0006291866302490234
ell 472, elapsed: 0.0004649162292480469
ell 471, elapsed: 0.0004611015319824219
ell 470, elapsed: 0.0003979206085205078
ell 469, elapsed: 0.0004630088806152344
ell 468, elapsed: 0.0005919933319091797
ell 467, elapsed: 0.0006051063537597656
ell 466, elapsed: 0.00039196014404296875
ell 465, elapsed: 0.0004589557647705078
ell 464, elapsed: 0.00039887428283691406
ell 463, elapsed: 0.0005590915679931641
ell 462, elapsed: 0.0006120204925537109
ell 461, elapsed: 0.0005400180816650391
ell 460, elapsed: 0.0006120204925537109
ell 459, elapsed: 0.000682830810546875
ell 458, elapsed: 0.0005540847778320312
ell 457, elapsed: 0.0005719661712646484
ell 456, elapsed: 0.000453948974609375
ell 455, elapsed: 0.0006959438323974609
ell 454, elapsed: 0.0005211830139160156
ell 453, elapsed: 0.0005629062652587891
ell 452, elapsed: 0.0005049705505371094
ell 451, elapsed: 0.0006480216979980469
ell 450, elapsed: 0.00044798851013183594
ell 449, elapsed: 0.00045299530029296875
ell 448, elapsed: 0.0003829002380371094
ell 447, elapsed: 0.00046706199645996094
ell 446, elapsed: 0.00038814544677734375
ell 445, elapsed: 0.000453948974609375
ell 444, elapsed: 0.0003840923309326172
ell 443, elapsed: 0.000453948974609375
ell 442, elapsed: 0.00039196014404296875
ell 441, elapsed: 0.00045800209045410156
ell 440, elapsed: 0.00039505958557128906
ell 439, elapsed: 0.0004589557647705078
ell 438, elapsed: 0.00040984153747558594
ell 437, elapsed: 0.0004601478576660156
ell 436, elapsed: 0.00039196014404296875
ell 435, elapsed: 0.0004589557647705078
ell 434, elapsed: 0.0003910064697265625
ell 433, elapsed: 0.0004630088806152344
ell 432, elapsed: 0.0005331039428710938
ell 431, elapsed: 0.0005691051483154297
ell 430, elapsed: 0.0004169940948486328
ell 429, elapsed: 0.00046706199645996094
ell 428, elapsed: 0.0003910064697265625
ell 427, elapsed: 0.0004639625549316406
ell 426, elapsed: 0.00038695335388183594
ell 425, elapsed: 0.0004558563232421875
ell 424, elapsed: 0.0005578994750976562
ell 423, elapsed: 0.0005481243133544922
ell 422, elapsed: 0.0004711151123046875
ell 421, elapsed: 0.0006270408630371094
ell 420, elapsed: 0.0003910064697265625
ell 419, elapsed: 0.00045299530029296875
ell 418, elapsed: 0.00038504600524902344
ell 417, elapsed: 0.0004620552062988281
ell 416, elapsed: 0.0005948543548583984
ell 415, elapsed: 0.000553131103515625
ell 414, elapsed: 0.00041294097900390625
ell 413, elapsed: 0.0004508495330810547
ell 412, elapsed: 0.00038695335388183594
ell 411, elapsed: 0.0004520416259765625
ell 410, elapsed: 0.00038814544677734375
ell 409, elapsed: 0.00045108795166015625
ell 408, elapsed: 0.00039005279541015625
ell 407, elapsed: 0.00045299530029296875
ell 406, elapsed: 0.00038814544677734375
ell 405, elapsed: 0.00046706199645996094
ell 404, elapsed: 0.00038909912109375
ell 403, elapsed: 0.00044989585876464844
ell 402, elapsed: 0.00039005279541015625
ell 401, elapsed: 0.00045299530029296875
ell 400, elapsed: 0.0004570484161376953
ell 399, elapsed: 0.0005679130554199219
ell 398, elapsed: 0.0004968643188476562
ell 397, elapsed: 0.0005421638488769531
ell 396, elapsed: 0.0004868507385253906
ell 395, elapsed: 0.0005447864532470703
ell 394, elapsed: 0.0005130767822265625
ell 393, elapsed: 0.0005650520324707031
ell 392, elapsed: 0.0005021095275878906
ell 391, elapsed: 0.0005540847778320312
ell 390, elapsed: 0.00048804283142089844
ell 389, elapsed: 0.0005540847778320312
ell 388, elapsed: 0.0004868507385253906
ell 387, elapsed: 0.0005450248718261719
ell 386, elapsed: 0.0004899501800537109
ell 385, elapsed: 0.0005629062652587891
ell 384, elapsed: 0.000492095947265625
ell 383, elapsed: 0.0005550384521484375
ell 382, elapsed: 0.0005021095275878906
ell 381, elapsed: 0.0005559921264648438
ell 380, elapsed: 0.0004019737243652344
ell 379, elapsed: 0.0004589557647705078
ell 378, elapsed: 0.00038909912109375
ell 377, elapsed: 0.0004570484161376953
ell 376, elapsed: 0.0003910064697265625
ell 375, elapsed: 0.00047087669372558594
ell 374, elapsed: 0.00038886070251464844
ell 373, elapsed: 0.0004508495330810547
ell 372, elapsed: 0.00038886070251464844
ell 371, elapsed: 0.0004558563232421875
ell 370, elapsed: 0.00039005279541015625
ell 369, elapsed: 0.00044989585876464844
ell 368, elapsed: 0.00038814544677734375
ell 367, elapsed: 0.0004680156707763672
ell 366, elapsed: 0.0004100799560546875
ell 365, elapsed: 0.00045490264892578125
ell 364, elapsed: 0.0003898143768310547
ell 363, elapsed: 0.0004558563232421875
ell 362, elapsed: 0.0004000663757324219
ell 361, elapsed: 0.0004489421844482422
ell 360, elapsed: 0.0003910064697265625
ell 359, elapsed: 0.00045299530029296875
ell 358, elapsed: 0.00038695335388183594
ell 357, elapsed: 0.00047397613525390625
ell 356, elapsed: 0.0003879070281982422
ell 355, elapsed: 0.00045609474182128906
ell 354, elapsed: 0.00038909912109375
ell 353, elapsed: 0.0004620552062988281
ell 352, elapsed: 0.00039005279541015625
ell 351, elapsed: 0.00045013427734375
ell 350, elapsed: 0.0003960132598876953
ell 349, elapsed: 0.0004649162292480469
ell 348, elapsed: 0.0003910064697265625
ell 347, elapsed: 0.00045490264892578125
ell 346, elapsed: 0.00039505958557128906
ell 345, elapsed: 0.00045800209045410156
ell 344, elapsed: 0.00038814544677734375
ell 343, elapsed: 0.0004558563232421875
ell 342, elapsed: 0.00039005279541015625
ell 341, elapsed: 0.00044608116149902344
ell 340, elapsed: 0.0004069805145263672
ell 339, elapsed: 0.0004508495330810547
ell 338, elapsed: 0.00039386749267578125
ell 337, elapsed: 0.0004630088806152344
ell 336, elapsed: 0.00039005279541015625
ell 335, elapsed: 0.0004589557647705078
ell 334, elapsed: 0.0003910064697265625
ell 333, elapsed: 0.00045990943908691406
ell 332, elapsed: 0.000392913818359375
ell 331, elapsed: 0.00047206878662109375
ell 330, elapsed: 0.00039505958557128906
ell 329, elapsed: 0.00045108795166015625
ell 328, elapsed: 0.00039196014404296875
ell 327, elapsed: 0.00045990943908691406
ell 326, elapsed: 0.0004010200500488281
ell 325, elapsed: 0.00046181678771972656
ell 324, elapsed: 0.000392913818359375
ell 323, elapsed: 0.00048613548278808594
ell 322, elapsed: 0.0003910064697265625
ell 321, elapsed: 0.0004589557647705078
ell 320, elapsed: 0.0003871917724609375
ell 319, elapsed: 0.0004589557647705078
ell 318, elapsed: 0.00039505958557128906
ell 317, elapsed: 0.0004630088806152344
ell 316, elapsed: 0.0005588531494140625
ell 315, elapsed: 0.0004909038543701172
ell 314, elapsed: 0.0005390644073486328
ell 313, elapsed: 0.0005991458892822266
ell 312, elapsed: 0.0003960132598876953
ell 311, elapsed: 0.0006120204925537109
ell 310, elapsed: 0.0005099773406982422
ell 309, elapsed: 0.0006210803985595703
ell 308, elapsed: 0.0005049705505371094
ell 307, elapsed: 0.0005729198455810547
ell 306, elapsed: 0.0005009174346923828
ell 305, elapsed: 0.0005679130554199219
ell 304, elapsed: 0.0004971027374267578
ell 303, elapsed: 0.0005629062652587891
ell 302, elapsed: 0.0004930496215820312
ell 301, elapsed: 0.0005660057067871094
ell 300, elapsed: 0.0005910396575927734
ell 299, elapsed: 0.0005168914794921875
ell 298, elapsed: 0.0005869865417480469
ell 297, elapsed: 0.0005509853363037109
ell 296, elapsed: 0.00038909912109375
ell 295, elapsed: 0.0004699230194091797
ell 294, elapsed: 0.0004990100860595703
ell 293, elapsed: 0.0005669593811035156
ell 292, elapsed: 0.00048804283142089844
ell 291, elapsed: 0.0005490779876708984
ell 290, elapsed: 0.0005011558532714844
ell 289, elapsed: 0.0005679130554199219
ell 288, elapsed: 0.0005049705505371094
ell 287, elapsed: 0.0005500316619873047
ell 286, elapsed: 0.0005018711090087891
ell 285, elapsed: 0.0005609989166259766
ell 284, elapsed: 0.0004999637603759766
ell 283, elapsed: 0.0005741119384765625
ell 282, elapsed: 0.0005009174346923828
ell 281, elapsed: 0.0005581378936767578
ell 280, elapsed: 0.0006380081176757812
ell 279, elapsed: 0.0006539821624755859
ell 278, elapsed: 0.0008249282836914062
ell 277, elapsed: 0.0008628368377685547
ell 276, elapsed: 0.0005960464477539062
ell 275, elapsed: 0.0006651878356933594
ell 274, elapsed: 0.0005900859832763672
ell 273, elapsed: 0.0006608963012695312
ell 272, elapsed: 0.0005841255187988281
ell 271, elapsed: 0.0006721019744873047
ell 270, elapsed: 0.0005900859832763672
ell 269, elapsed: 0.0009000301361083984
ell 268, elapsed: 0.0008199214935302734
ell 267, elapsed: 0.0006651878356933594
ell 266, elapsed: 0.0005860328674316406
ell 265, elapsed: 0.0006561279296875
ell 264, elapsed: 0.0006031990051269531
ell 263, elapsed: 0.0006630420684814453
ell 262, elapsed: 0.0008552074432373047
ell 261, elapsed: 0.0006899833679199219
ell 260, elapsed: 0.0005910396575927734
ell 259, elapsed: 0.0006690025329589844
ell 258, elapsed: 0.0005869865417480469
ell 257, elapsed: 0.0006680488586425781
ell 256, elapsed: 0.0005850791931152344
ell 255, elapsed: 0.0006730556488037109
ell 254, elapsed: 0.0006189346313476562
ell 253, elapsed: 0.00067901611328125
ell 252, elapsed: 0.0006089210510253906
ell 251, elapsed: 0.0006961822509765625
ell 250, elapsed: 0.0006048679351806641
ell 249, elapsed: 0.0006659030914306641
ell 248, elapsed: 0.0005950927734375
ell 247, elapsed: 0.0006639957427978516
ell 246, elapsed: 0.0008449554443359375
ell 245, elapsed: 0.0006630420684814453
ell 244, elapsed: 0.0006151199340820312
ell 243, elapsed: 0.0009291172027587891
ell 242, elapsed: 0.0007801055908203125
ell 241, elapsed: 0.0006608963012695312
ell 240, elapsed: 0.0004169940948486328
ell 239, elapsed: 0.0005059242248535156
ell 238, elapsed: 0.0005500316619873047
ell 237, elapsed: 0.0008180141448974609
ell 236, elapsed: 0.0008208751678466797
ell 235, elapsed: 0.00045418739318847656
ell 234, elapsed: 0.0006570816040039062
ell 233, elapsed: 0.0009551048278808594
ell 232, elapsed: 0.0004470348358154297
ell 231, elapsed: 0.000576019287109375
ell 230, elapsed: 0.0005230903625488281
ell 229, elapsed: 0.0004620552062988281
ell 228, elapsed: 0.0005049705505371094
ell 227, elapsed: 0.0005660057067871094
ell 226, elapsed: 0.0004010200500488281
ell 225, elapsed: 0.0005939006805419922
ell 224, elapsed: 0.0005109310150146484
ell 223, elapsed: 0.0004608631134033203
ell 222, elapsed: 0.0004010200500488281
ell 221, elapsed: 0.0005838871002197266
ell 220, elapsed: 0.00049591064453125
ell 219, elapsed: 0.00055694580078125
ell 218, elapsed: 0.0005068778991699219
ell 217, elapsed: 0.0005090236663818359
ell 216, elapsed: 0.0004448890686035156
ell 215, elapsed: 0.0005609989166259766
ell 214, elapsed: 0.0005121231079101562
ell 213, elapsed: 0.0008111000061035156
ell 212, elapsed: 0.0004279613494873047
ell 211, elapsed: 0.0005118846893310547
ell 210, elapsed: 0.0004699230194091797
ell 209, elapsed: 0.0005609989166259766
ell 208, elapsed: 0.00045299530029296875
ell 207, elapsed: 0.0006189346313476562
ell 206, elapsed: 0.0005059242248535156
ell 205, elapsed: 0.0005190372467041016
ell 204, elapsed: 0.00044798851013183594
ell 203, elapsed: 0.0004971027374267578
ell 202, elapsed: 0.0006220340728759766
ell 201, elapsed: 0.0006299018859863281
ell 200, elapsed: 0.00043702125549316406
ell 199, elapsed: 0.00051116943359375
ell 198, elapsed: 0.0004341602325439453
ell 197, elapsed: 0.0004470348358154297
ell 196, elapsed: 0.00044608116149902344
ell 195, elapsed: 0.0004971027374267578
ell 194, elapsed: 0.000514984130859375
ell 193, elapsed: 0.0006158351898193359
ell 192, elapsed: 0.00043702125549316406
ell 191, elapsed: 0.0005099773406982422
ell 190, elapsed: 0.00043702125549316406
ell 189, elapsed: 0.0004990100860595703
ell 188, elapsed: 0.0004429817199707031
ell 187, elapsed: 0.0004990100860595703
ell 186, elapsed: 0.0004520416259765625
ell 185, elapsed: 0.0005040168762207031
ell 184, elapsed: 0.0004520416259765625
ell 183, elapsed: 0.0004990100860595703
ell 182, elapsed: 0.0006260871887207031
ell 181, elapsed: 0.0005779266357421875
ell 180, elapsed: 0.00045013427734375
ell 179, elapsed: 0.0005059242248535156
ell 178, elapsed: 0.0004439353942871094
ell 177, elapsed: 0.0005068778991699219
ell 176, elapsed: 0.0004432201385498047
ell 175, elapsed: 0.0004899501800537109
ell 174, elapsed: 0.0004439353942871094
ell 173, elapsed: 0.0004799365997314453
ell 172, elapsed: 0.0003879070281982422
ell 171, elapsed: 0.000598907470703125
ell 170, elapsed: 0.0005390644073486328
ell 169, elapsed: 0.0004570484161376953
ell 168, elapsed: 0.0006580352783203125
ell 167, elapsed: 0.0004940032958984375
ell 166, elapsed: 0.0005099773406982422
ell 165, elapsed: 0.0007281303405761719
ell 164, elapsed: 0.000469207763671875
ell 163, elapsed: 0.000537872314453125
ell 162, elapsed: 0.0005738735198974609
ell 161, elapsed: 0.0006489753723144531
ell 160, elapsed: 0.0005469322204589844
ell 159, elapsed: 0.0005941390991210938
ell 158, elapsed: 0.0004870891571044922
ell 157, elapsed: 0.0005409717559814453
ell 156, elapsed: 0.00048279762268066406
ell 155, elapsed: 0.00047206878662109375
ell 154, elapsed: 0.00041294097900390625
ell 153, elapsed: 0.0003731250762939453
ell 152, elapsed: 0.00032401084899902344
ell 151, elapsed: 0.00036907196044921875
ell 150, elapsed: 0.0003170967102050781
ell 149, elapsed: 0.0003650188446044922
ell 148, elapsed: 0.0004470348358154297
ell 147, elapsed: 0.0004830360412597656
ell 146, elapsed: 0.0003180503845214844
ell 145, elapsed: 0.0005800724029541016
ell 144, elapsed: 0.0004980564117431641
ell 143, elapsed: 0.0005221366882324219
ell 142, elapsed: 0.0004520416259765625
ell 141, elapsed: 0.0005180835723876953
ell 140, elapsed: 0.000453948974609375
ell 139, elapsed: 0.0005350112915039062
ell 138, elapsed: 0.00044989585876464844
ell 137, elapsed: 0.0005209445953369141
ell 136, elapsed: 0.00045299530029296875
ell 135, elapsed: 0.0005249977111816406
ell 134, elapsed: 0.000453948974609375
ell 133, elapsed: 0.0005409717559814453
ell 132, elapsed: 0.00045299530029296875
ell 131, elapsed: 0.0005249977111816406
ell 130, elapsed: 0.0004589557647705078
ell 129, elapsed: 0.0005109310150146484
ell 128, elapsed: 0.0004520416259765625
ell 127, elapsed: 0.0005350112915039062
ell 126, elapsed: 0.0004489421844482422
ell 125, elapsed: 0.0005240440368652344
ell 124, elapsed: 0.0004429817199707031
ell 123, elapsed: 0.0005259513854980469
ell 122, elapsed: 0.0004558563232421875
ell 121, elapsed: 0.0005259513854980469
ell 120, elapsed: 0.00047016143798828125
ell 119, elapsed: 0.0005238056182861328
ell 118, elapsed: 0.000453948974609375
ell 117, elapsed: 0.0005161762237548828
ell 116, elapsed: 0.00045800209045410156
ell 115, elapsed: 0.0005230903625488281
ell 114, elapsed: 0.00045680999755859375
ell 113, elapsed: 0.0005199909210205078
ell 112, elapsed: 0.00045299530029296875
ell 111, elapsed: 0.0005259513854980469
ell 110, elapsed: 0.0004589557647705078
ell 109, elapsed: 0.0005161762237548828
ell 108, elapsed: 0.00045299530029296875
ell 107, elapsed: 0.0005209445953369141
ell 106, elapsed: 0.0004520416259765625
ell 105, elapsed: 0.000514984130859375
ell 104, elapsed: 0.0004467964172363281
ell 103, elapsed: 0.0005180835723876953
ell 102, elapsed: 0.00045490264892578125
ell 101, elapsed: 0.0005090236663818359
ell 100, elapsed: 0.0004520416259765625
ell 99, elapsed: 0.0005080699920654297
ell 98, elapsed: 0.0004489421844482422
ell 97, elapsed: 0.0005309581756591797
ell 96, elapsed: 0.0004398822784423828
ell 95, elapsed: 0.0005018711090087891
ell 94, elapsed: 0.00044417381286621094
ell 93, elapsed: 0.0005059242248535156
ell 92, elapsed: 0.00045013427734375
ell 91, elapsed: 0.0005071163177490234
ell 90, elapsed: 0.0004410743713378906
ell 89, elapsed: 0.0005121231079101562
ell 88, elapsed: 0.00044083595275878906
ell 87, elapsed: 0.0005049705505371094
ell 86, elapsed: 0.0004448890686035156
ell 85, elapsed: 0.0005190372467041016
ell 84, elapsed: 0.00045680999755859375
ell 83, elapsed: 0.0005140304565429688
ell 82, elapsed: 0.0004458427429199219
ell 81, elapsed: 0.0005180835723876953
ell 80, elapsed: 0.00045609474182128906
ell 79, elapsed: 0.0005409717559814453
ell 78, elapsed: 0.00044417381286621094
ell 77, elapsed: 0.0005140304565429688
ell 76, elapsed: 0.00045299530029296875
ell 75, elapsed: 0.000514984130859375
ell 74, elapsed: 0.00043702125549316406
ell 73, elapsed: 0.0005238056182861328
ell 72, elapsed: 0.0004508495330810547
ell 71, elapsed: 0.000514984130859375
ell 70, elapsed: 0.0004482269287109375
ell 69, elapsed: 0.0005209445953369141
ell 68, elapsed: 0.0004489421844482422
ell 67, elapsed: 0.0005259513854980469
ell 66, elapsed: 0.0004429817199707031
ell 65, elapsed: 0.0005159378051757812
ell 64, elapsed: 0.0004589557647705078
ell 63, elapsed: 0.0005090236663818359
ell 62, elapsed: 0.0004451274871826172
ell 61, elapsed: 0.0005259513854980469
ell 60, elapsed: 0.00045800209045410156
ell 59, elapsed: 0.0005099773406982422
ell 58, elapsed: 0.0004520416259765625
ell 57, elapsed: 0.0005199909210205078
ell 56, elapsed: 0.0004439353942871094
ell 55, elapsed: 0.0005369186401367188
ell 54, elapsed: 0.000431060791015625
ell 53, elapsed: 0.0004899501800537109
ell 52, elapsed: 0.0004780292510986328
ell 51, elapsed: 0.0005171298980712891
ell 50, elapsed: 0.0004520416259765625
ell 49, elapsed: 0.0005490779876708984
ell 48, elapsed: 0.0004620552062988281
ell 47, elapsed: 0.0005168914794921875
ell 46, elapsed: 0.0004429817199707031
ell 45, elapsed: 0.0005090236663818359
ell 44, elapsed: 0.0004379749298095703
ell 43, elapsed: 0.0005109310150146484
ell 42, elapsed: 0.00044417381286621094
ell 41, elapsed: 0.0005049705505371094
ell 40, elapsed: 0.00044417381286621094
ell 39, elapsed: 0.000514984130859375
ell 38, elapsed: 0.0004448890686035156
ell 37, elapsed: 0.0005180835723876953
ell 36, elapsed: 0.0004608631134033203
ell 35, elapsed: 0.0005209445953369141
ell 34, elapsed: 0.00044798851013183594
ell 33, elapsed: 0.0005130767822265625
ell 32, elapsed: 0.0004489421844482422
ell 31, elapsed: 0.0005078315734863281
ell 30, elapsed: 0.0004611015319824219
ell 29, elapsed: 0.0005140304565429688
ell 28, elapsed: 0.0004520416259765625
ell 27, elapsed: 0.0005109310150146484
ell 26, elapsed: 0.0004489421844482422
ell 25, elapsed: 0.0006990432739257812
ell 24, elapsed: 0.0004661083221435547
ell 23, elapsed: 0.0005140304565429688
ell 22, elapsed: 0.00044608116149902344
ell 21, elapsed: 0.00051116943359375
ell 20, elapsed: 0.00045108795166015625
ell 19, elapsed: 0.0005128383636474609
ell 18, elapsed: 0.0004658699035644531
ell 17, elapsed: 0.0005159378051757812
ell 16, elapsed: 0.0004508495330810547
ell 15, elapsed: 0.0005209445953369141
ell 14, elapsed: 0.0004520416259765625
ell 13, elapsed: 0.0005211830139160156
ell 12, elapsed: 0.0004658699035644531
ell 11, elapsed: 0.0005190372467041016
ell 10, elapsed: 0.00045609474182128906
ell 9, elapsed: 0.0005218982696533203
ell 8, elapsed: 0.00044989585876464844
ell 7, elapsed: 0.0005180835723876953
ell 6, elapsed: 0.0004639625549316406
ell 5, elapsed: 0.0005209445953369141
ell 4, elapsed: 0.0004508495330810547
ell 3, elapsed: 0.000514984130859375
ell 2, elapsed: 0.0005090236663818359
ell 1, elapsed: 0.0006380081176757812
ell 0, elapsed: 0.0004649162292480469
  0.825531 seconds (41.19 k allocations: 2.939 MiB)
elapsed: 0.001004934310913086
step:          0.064005 sec (0 allocations: 0 byte, 0.0% gc time)
swapping:      0.000912 sec (0 allocations: 0 byte, 0.0% gc time)
calc_Mellell!: 0.017129 sec (0 allocations: 0 byte, 0.0% gc time)
  t0 :  0.003323 sec (0 allocations: 0 byte, 0.0% gc time)
  tm2 : 0.131692 sec (0 allocations: 0 byte, 0.0% gc time)
  tm2s: 0.001938 sec (0 allocations: 0 byte, 0.0% gc time)
  tm4 : 0.245994 sec (0 allocations: 0 byte, 0.0% gc time)
  tp2 : 0.0 sec (0 allocations: 0 byte, 0.0% gc time)
  tp2s: 0.0 sec (0 allocations: 0 byte, 0.0% gc time)
  tp4 : 0.0 sec (0 allocations: 0 byte, 0.0% gc time)
calc_wtdll!:   0.403181 sec (9.874 k allocations: 1.043 MB, 0.0% gc time)
calc_wljj!:    0.039486 sec (689 allocations: 10.766 KB, 0.0% gc time)
mult_prefac!:  0.0 sec (0 allocations: 0 byte, 0.0% gc time)
convert:       0.0 sec (0 allocations: 0 byte, 0.0% gc time)
write:         0.046319 sec (0 allocations: 0 byte, 0.0% gc time)
test_rand_2f1: 0.0 sec (0 allocations: 0 byte, 0.0% gc time)
Closing outfile out/Ml21-cache.bin...   0.000043 seconds
  0.000568 seconds (52 allocations: 28.297 KiB)
make_phi():   0.002506 seconds (8.33 k allocations: 250.469 KiB)
  0.737109 seconds (736.79 k allocations: 63.274 MiB, 1.07% gc time)
tskip:       0.001068 sec (0 allocations: 0 byte, 0.0% gc time)
tread:       0.038584 sec (19 allocations: 10.688 KB, 0.0% gc time)
tmultphi:    0.014018 sec (0 allocations: 0 byte, 0.0% gc time)
tbrfft:      0.557158 sec (599.692 k allocations: 60.085 MB, 1.42% gc time)
tmultprefac: 0.05311 sec (0 allocations: 0 byte, 0.0% gc time)
toutfunc:    0.070531 sec (129.905 k allocations: 2.421 MB, 0.0% gc time)
Testing R=1.0 ... passed
Calculating fmax: 
  dlrec    = 4
  dlrecRg1 = -4
  q=1.1, R=0.9:	  0.511736 seconds (116.47 k allocations: 15.614 MiB, 4.50% gc time)

  0.512255 seconds (116.51 k allocations: 15.648 MiB, 4.50% gc time)
ℓ = 1202
Δℓ = 4
ΔℓRg1 = -4
N = 1600
q = 1.1
kmin = 1.0e-5
kmax = 100000.00000000004
χ0 = 0.023029999999999995
RR = RR.tsv
ℓmax = ℓmax.bin
f21 = f21.bin
kmin = 1.0e-5
kmax = 100000.0
dlrec    = 4
dlrecRg1 = -4
Output size: 5741568 bytes = 0.005347251892089844 GiB
Output size: 51264 bytes = 4.774332046508789e-5 GiB
Reading 'out/F21EllCache'...   0.001037 seconds (267 allocations: 84.656 KiB)
ellmax: 1202
lmaxcache: 1202
fell[:,1,1] = Complex{Float64}[1.3482014726274674e-57 - 3.302141236118086e-73im, 1.357860004724329e-57 - 3.3257978169518355e-73im]
ell 1202, elapsed: 2.09808349609375e-5
ell 1201, elapsed: 0.00047206878662109375
ell 1200, elapsed: 0.0005848407745361328
ell 1199, elapsed: 0.0005609989166259766
ell 1198, elapsed: 0.0005488395690917969
ell 1002, elapsed: 0.010288000106811523
ell 1001, elapsed: 0.00039696693420410156
ell 1000, elapsed: 0.00035309791564941406
ell 999, elapsed: 0.0003528594970703125
ell 998, elapsed: 0.00041604042053222656
ell 902, elapsed: 0.005949974060058594
ell 901, elapsed: 0.0004100799560546875
ell 900, elapsed: 0.00039696693420410156
ell 899, elapsed: 0.0003859996795654297
ell 898, elapsed: 0.00038504600524902344
ell 802, elapsed: 0.005838871002197266
ell 801, elapsed: 0.0003941059112548828
ell 800, elapsed: 0.0004420280456542969
ell 799, elapsed: 0.0006301403045654297
ell 798, elapsed: 0.0004761219024658203
ell 702, elapsed: 0.0056018829345703125
ell 701, elapsed: 0.0004589557647705078
ell 700, elapsed: 0.0003898143768310547
ell 699, elapsed: 0.0003848075866699219
ell 698, elapsed: 0.0003829002380371094
ell 602, elapsed: 0.00580906867980957
ell 601, elapsed: 0.00038909912109375
ell 600, elapsed: 0.0003840923309326172
ell 599, elapsed: 0.00038504600524902344
ell 598, elapsed: 0.00038504600524902344
ell 502, elapsed: 0.005721092224121094
ell 501, elapsed: 0.0003859996795654297
ell 500, elapsed: 0.0003821849822998047
ell 499, elapsed: 0.0003821849822998047
ell 498, elapsed: 0.00039005279541015625
ell 402, elapsed: 0.005742073059082031
ell 401, elapsed: 0.0003628730773925781
ell 400, elapsed: 0.0003478527069091797
ell 399, elapsed: 0.0003509521484375
ell 398, elapsed: 0.0004229545593261719
ell 302, elapsed: 0.0056688785552978516
ell 301, elapsed: 0.0004889965057373047
ell 300, elapsed: 0.00042891502380371094
ell 299, elapsed: 0.00041103363037109375
ell 298, elapsed: 0.00041413307189941406
ell 202, elapsed: 0.0058901309967041016
ell 201, elapsed: 0.00047898292541503906
ell 200, elapsed: 0.00045680999755859375
ell 199, elapsed: 0.0004570484161376953
ell 198, elapsed: 0.0004420280456542969
ell 152, elapsed: 0.002959012985229492
ell 151, elapsed: 0.00042510032653808594
ell 150, elapsed: 0.0004100799560546875
ell 149, elapsed: 0.00040602684020996094
ell 148, elapsed: 0.0004038810729980469
ell 127, elapsed: 0.001645803451538086
ell 126, elapsed: 0.00043201446533203125
ell 125, elapsed: 0.0004611015319824219
ell 124, elapsed: 0.0004570484161376953
ell 123, elapsed: 0.0004451274871826172
ell 114, elapsed: 0.0009331703186035156
ell 113, elapsed: 0.0004489421844482422
ell 112, elapsed: 0.00045490264892578125
ell 111, elapsed: 0.0004410743713378906
ell 110, elapsed: 0.0004410743713378906
ell 102, elapsed: 0.0009760856628417969
ell 101, elapsed: 0.00045990943908691406
ell 100, elapsed: 0.0004558563232421875
ell 99, elapsed: 0.0004391670227050781
ell 98, elapsed: 0.0004398822784423828
ell 97, elapsed: 0.0004870891571044922
ell 96, elapsed: 0.0005548000335693359
ell 95, elapsed: 0.0004820823669433594
ell 94, elapsed: 0.0005788803100585938
ell 93, elapsed: 0.0004818439483642578
ell 92, elapsed: 0.0005490779876708984
ell 91, elapsed: 0.0004799365997314453
ell 90, elapsed: 0.0005469322204589844
ell 89, elapsed: 0.0004930496215820312
ell 88, elapsed: 0.0005440711975097656
ell 87, elapsed: 0.00048804283142089844
ell 86, elapsed: 0.0005450248718261719
ell 85, elapsed: 0.00047898292541503906
ell 84, elapsed: 0.0005519390106201172
ell 83, elapsed: 0.0004940032958984375
ell 82, elapsed: 0.0005490779876708984
ell 81, elapsed: 0.0004858970642089844
ell 80, elapsed: 0.0005700588226318359
ell 79, elapsed: 0.0004868507385253906
ell 78, elapsed: 0.0005600452423095703
ell 77, elapsed: 0.0004858970642089844
ell 76, elapsed: 0.0005860328674316406
ell 75, elapsed: 0.0005009174346923828
ell 74, elapsed: 0.0005500316619873047
ell 73, elapsed: 0.0004620552062988281
ell 72, elapsed: 0.0005590915679931641
ell 71, elapsed: 0.0007140636444091797
ell 70, elapsed: 0.0005550384521484375
ell 69, elapsed: 0.0007100105285644531
ell 68, elapsed: 0.0006279945373535156
ell 67, elapsed: 0.0004899501800537109
ell 66, elapsed: 0.0005700588226318359
ell 65, elapsed: 0.0005068778991699219
ell 64, elapsed: 0.0005738735198974609
ell 63, elapsed: 0.0005199909210205078
ell 62, elapsed: 0.0005750656127929688
ell 61, elapsed: 0.0005068778991699219
ell 60, elapsed: 0.0005869865417480469
ell 59, elapsed: 0.0005068778991699219
ell 58, elapsed: 0.0005979537963867188
ell 57, elapsed: 0.0005199909210205078
ell 56, elapsed: 0.0005500316619873047
ell 55, elapsed: 0.0005052089691162109
ell 54, elapsed: 0.0005750656127929688
ell 53, elapsed: 0.0005159378051757812
ell 52, elapsed: 0.0005769729614257812
ell 51, elapsed: 0.0005018711090087891
ell 50, elapsed: 0.0005550384521484375
ell 49, elapsed: 0.0005021095275878906
ell 48, elapsed: 0.0005710124969482422
ell 47, elapsed: 0.0005028247833251953
ell 46, elapsed: 0.0005691051483154297
ell 45, elapsed: 0.0005049705505371094
ell 44, elapsed: 0.0005738735198974609
ell 43, elapsed: 0.00048804283142089844
ell 42, elapsed: 0.0005860328674316406
ell 41, elapsed: 0.0005221366882324219
ell 40, elapsed: 0.0005719661712646484
ell 39, elapsed: 0.0005071163177490234
ell 38, elapsed: 0.0005781650543212891
ell 37, elapsed: 0.0005371570587158203
ell 36, elapsed: 0.0005900859832763672
ell 35, elapsed: 0.0005249977111816406
ell 34, elapsed: 0.0005578994750976562
ell 33, elapsed: 0.0005171298980712891
ell 32, elapsed: 0.0005919933319091797
ell 31, elapsed: 0.0005080699920654297
ell 30, elapsed: 0.0005769729614257812
ell 29, elapsed: 0.0005040168762207031
ell 28, elapsed: 0.0007710456848144531
ell 27, elapsed: 0.0007841587066650391
ell 26, elapsed: 0.0005881786346435547
ell 25, elapsed: 0.0005121231079101562
ell 24, elapsed: 0.0005679130554199219
ell 23, elapsed: 0.0006740093231201172
ell 22, elapsed: 0.0008759498596191406
ell 21, elapsed: 0.0009348392486572266
ell 20, elapsed: 0.0008499622344970703
ell 19, elapsed: 0.0005309581756591797
ell 18, elapsed: 0.0005919933319091797
ell 17, elapsed: 0.0005228519439697266
ell 16, elapsed: 0.0005888938903808594
ell 15, elapsed: 0.0005109310150146484
ell 14, elapsed: 0.0005869865417480469
ell 13, elapsed: 0.0007388591766357422
ell 12, elapsed: 0.0008509159088134766
ell 11, elapsed: 0.0007469654083251953
ell 10, elapsed: 0.0006608963012695312
ell 9, elapsed: 0.0005300045013427734
ell 8, elapsed: 0.0008349418640136719
ell 7, elapsed: 0.0007419586181640625
ell 6, elapsed: 0.0008320808410644531
ell 5, elapsed: 0.000576019287109375
ell 4, elapsed: 0.0006361007690429688
ell 3, elapsed: 0.0005519390106201172
ell 2, elapsed: 0.0006361007690429688
ell 1, elapsed: 0.0007390975952148438
ell 0, elapsed: 0.0008220672607421875
  0.176782 seconds (10.83 k allocations: 697.938 KiB)
elapsed: 0.0015840530395507812
step:          0.063549 sec (0 allocations: 0 byte, 0.0% gc time)
swapping:      0.000598 sec (0 allocations: 0 byte, 0.0% gc time)
calc_Mellell!: 0.001668 sec (0 allocations: 0 byte, 0.0% gc time)
  t0 :  0.000442 sec (0 allocations: 0 byte, 0.0% gc time)
  tm2 : 0.015523 sec (0 allocations: 0 byte, 0.0% gc time)
  tm2s: 0.000323 sec (0 allocations: 0 byte, 0.0% gc time)
  tm4 : 0.038419 sec (0 allocations: 0 byte, 0.0% gc time)
  tp2 : 0.0 sec (0 allocations: 0 byte, 0.0% gc time)
  tp2s: 0.0 sec (0 allocations: 0 byte, 0.0% gc time)
  tp4 : 0.0 sec (0 allocations: 0 byte, 0.0% gc time)
calc_wtdll!:   0.055334 sec (1.344 k allocations: 147.0 KB, 0.0% gc time)
calc_wljj!:    0.004086 sec (6 allocations: 96 byte, 0.0% gc time)
mult_prefac!:  0.0 sec (0 allocations: 0 byte, 0.0% gc time)
convert:       0.0 sec (0 allocations: 0 byte, 0.0% gc time)
write:         0.004577 sec (0 allocations: 0 byte, 0.0% gc time)
test_rand_2f1: 0.0 sec (0 allocations: 0 byte, 0.0% gc time)
Closing outfile out/Ml21-cache.bin...   0.000121 seconds
  0.000713 seconds (52 allocations: 28.297 KiB)
make_phi():   0.002980 seconds (8.33 k allocations: 250.500 KiB)
  0.053127 seconds (68.16 k allocations: 5.900 MiB)
tskip:       2.3e-5 sec (0 allocations: 0 byte, 0.0% gc time)
tread:       0.00263 sec (19 allocations: 2.172 KB, 0.0% gc time)
tmultphi:    0.001321 sec (0 allocations: 0 byte, 0.0% gc time)
tbrfft:      0.038899 sec (56.962 k allocations: 5.627 MB, 0.0% gc time)
tmultprefac: 0.003829 sec (0 allocations: 0 byte, 0.0% gc time)
toutfunc:    0.006298 sec (10.528 k allocations: 206.5 KB, 0.0% gc time)
Testing R=0.9 ... passed
Calculating fmax: 
  dlrec    = 4
  dlrecRg1 = -4
  q=1.1, R=0.8:	  0.406692 seconds (113.61 k allocations: 15.166 MiB)

  0.407901 seconds (113.65 k allocations: 15.200 MiB)
ℓ = 1202
Δℓ = 4
ΔℓRg1 = -4
N = 1600
q = 1.1
kmin = 1.0e-5
kmax = 100000.00000000004
χ0 = 0.023029999999999995
RR = RR.tsv
ℓmax = ℓmax.bin
f21 = f21.bin
kmin = 1.0e-5
kmax = 100000.0
dlrec    = 4
dlrecRg1 = -4
Output size: 5741568 bytes = 0.005347251892089844 GiB
Output size: 51264 bytes = 4.774332046508789e-5 GiB
Reading 'out/F21EllCache'...   0.002050 seconds (267 allocations: 84.656 KiB)
ellmax: 1202
lmaxcache: 1202
fell[:,1,1] = Complex{Float64}[7.519068145690986e-120 - 1.8416405474382574e-135im, 7.541664537386155e-120 - 1.847175067190611e-135im]
ell 1202, elapsed: 0.00019288063049316406
ell 1201, elapsed: 0.0009069442749023438
ell 1200, elapsed: 0.0008418560028076172
ell 1199, elapsed: 0.0004661083221435547
ell 1198, elapsed: 0.0005180835723876953
ell 1002, elapsed: 0.012909889221191406
ell 1001, elapsed: 0.0006549358367919922
ell 1000, elapsed: 0.00045418739318847656
ell 999, elapsed: 0.0004711151123046875
ell 998, elapsed: 0.0004718303680419922
ell 902, elapsed: 0.0055849552154541016
ell 901, elapsed: 0.00047898292541503906
ell 900, elapsed: 0.0004968643188476562
ell 899, elapsed: 0.00044798851013183594
ell 898, elapsed: 0.0004229545593261719
ell 802, elapsed: 0.006000995635986328
ell 801, elapsed: 0.00039696693420410156
ell 800, elapsed: 0.0003788471221923828
ell 799, elapsed: 0.0003781318664550781
ell 798, elapsed: 0.0003809928894042969
ell 702, elapsed: 0.0052947998046875
ell 701, elapsed: 0.00037217140197753906
ell 700, elapsed: 0.0003669261932373047
ell 699, elapsed: 0.0003628730773925781
ell 698, elapsed: 0.0003619194030761719
ell 602, elapsed: 0.0058138370513916016
ell 601, elapsed: 0.000370025634765625
ell 600, elapsed: 0.00037288665771484375
ell 599, elapsed: 0.0003769397735595703
ell 598, elapsed: 0.0003669261932373047
ell 502, elapsed: 0.005421161651611328
ell 501, elapsed: 0.000370025634765625
ell 500, elapsed: 0.0003590583801269531
ell 499, elapsed: 0.00035691261291503906
ell 498, elapsed: 0.0003590583801269531
ell 402, elapsed: 0.005452156066894531
ell 401, elapsed: 0.00038504600524902344
ell 400, elapsed: 0.00036597251892089844
ell 399, elapsed: 0.00035500526428222656
ell 398, elapsed: 0.00036406517028808594
ell 302, elapsed: 0.0053730010986328125
ell 301, elapsed: 0.00036787986755371094
ell 300, elapsed: 0.00037217140197753906
ell 299, elapsed: 0.00037097930908203125
ell 298, elapsed: 0.0003769397735595703
ell 202, elapsed: 0.005360126495361328
ell 201, elapsed: 0.0003750324249267578
ell 200, elapsed: 0.0003781318664550781
ell 199, elapsed: 0.0003941059112548828
ell 198, elapsed: 0.0003948211669921875
ell 152, elapsed: 0.0029020309448242188
ell 151, elapsed: 0.0004050731658935547
ell 150, elapsed: 0.0004019737243652344
ell 149, elapsed: 0.00039696693420410156
ell 148, elapsed: 0.00039196014404296875
ell 127, elapsed: 0.0015418529510498047
ell 126, elapsed: 0.000408172607421875
ell 125, elapsed: 0.0004038810729980469
ell 124, elapsed: 0.00039696693420410156
ell 123, elapsed: 0.0003960132598876953
ell 114, elapsed: 0.0008778572082519531
ell 113, elapsed: 0.0003840923309326172
ell 112, elapsed: 0.0003859996795654297
ell 111, elapsed: 0.0003829002380371094
ell 110, elapsed: 0.0003769397735595703
ell 102, elapsed: 0.0008630752563476562
ell 101, elapsed: 0.0003910064697265625
ell 100, elapsed: 0.00037097930908203125
ell 99, elapsed: 0.00038313865661621094
ell 98, elapsed: 0.00036597251892089844
ell 97, elapsed: 0.0004031658172607422
ell 96, elapsed: 0.0005109310150146484
ell 95, elapsed: 0.0004138946533203125
ell 94, elapsed: 0.0004570484161376953
ell 93, elapsed: 0.000392913818359375
ell 92, elapsed: 0.00047016143798828125
ell 91, elapsed: 0.0004169940948486328
ell 90, elapsed: 0.00047898292541503906
ell 89, elapsed: 0.0004291534423828125
ell 88, elapsed: 0.00048089027404785156
ell 87, elapsed: 0.0004029273986816406
ell 86, elapsed: 0.0004558563232421875
ell 85, elapsed: 0.0003879070281982422
ell 84, elapsed: 0.0004401206970214844
ell 83, elapsed: 0.0004029273986816406
ell 82, elapsed: 0.0004780292510986328
ell 81, elapsed: 0.00043702125549316406
ell 80, elapsed: 0.0004551410675048828
ell 79, elapsed: 0.00039386749267578125
ell 78, elapsed: 0.0005228519439697266
ell 77, elapsed: 0.00041103363037109375
ell 76, elapsed: 0.0004949569702148438
ell 75, elapsed: 0.0004088878631591797
ell 74, elapsed: 0.0005099773406982422
ell 73, elapsed: 0.00041103363037109375
ell 72, elapsed: 0.0005080699920654297
ell 71, elapsed: 0.00040602684020996094
ell 70, elapsed: 0.0005619525909423828
ell 69, elapsed: 0.0004379749298095703
ell 68, elapsed: 0.0004918575286865234
ell 67, elapsed: 0.0004329681396484375
ell 66, elapsed: 0.000469207763671875
ell 65, elapsed: 0.0004401206970214844
ell 64, elapsed: 0.00046706199645996094
ell 63, elapsed: 0.0004489421844482422
ell 62, elapsed: 0.00047707557678222656
ell 61, elapsed: 0.0004379749298095703
ell 60, elapsed: 0.00047397613525390625
ell 59, elapsed: 0.0004410743713378906
ell 58, elapsed: 0.0004801750183105469
ell 57, elapsed: 0.00043892860412597656
ell 56, elapsed: 0.0004730224609375
ell 55, elapsed: 0.00045490264892578125
ell 54, elapsed: 0.00046515464782714844
ell 53, elapsed: 0.00043892860412597656
ell 52, elapsed: 0.00047397613525390625
ell 51, elapsed: 0.0004410743713378906
ell 50, elapsed: 0.0004711151123046875
ell 49, elapsed: 0.0005249977111816406
ell 48, elapsed: 0.0006320476531982422
ell 47, elapsed: 0.0007081031799316406
ell 46, elapsed: 0.0005948543548583984
ell 45, elapsed: 0.00042700767517089844
ell 44, elapsed: 0.0004589557647705078
ell 43, elapsed: 0.0004329681396484375
ell 42, elapsed: 0.0004589557647705078
ell 41, elapsed: 0.0004019737243652344
ell 40, elapsed: 0.000514984130859375
ell 39, elapsed: 0.0004119873046875
ell 38, elapsed: 0.0004940032958984375
ell 37, elapsed: 0.0004229545593261719
ell 36, elapsed: 0.000492095947265625
ell 35, elapsed: 0.00043010711669921875
ell 34, elapsed: 0.0004918575286865234
ell 33, elapsed: 0.00042819976806640625
ell 32, elapsed: 0.0004909038543701172
ell 31, elapsed: 0.0005338191986083984
ell 30, elapsed: 0.0006029605865478516
ell 29, elapsed: 0.0004029273986816406
ell 28, elapsed: 0.0005059242248535156
ell 27, elapsed: 0.00039386749267578125
ell 26, elapsed: 0.000453948974609375
ell 25, elapsed: 0.0004119873046875
ell 24, elapsed: 0.0005037784576416016
ell 23, elapsed: 0.0004360675811767578
ell 22, elapsed: 0.0005040168762207031
ell 21, elapsed: 0.00039696693420410156
ell 20, elapsed: 0.0004630088806152344
ell 19, elapsed: 0.0003979206085205078
[...]
ell 782, elapsed: 0.0017421245574951172
ell 781, elapsed: 0.000926971435546875
ell 780, elapsed: 0.0009000301361083984
ell 779, elapsed: 0.0008988380432128906
ell 778, elapsed: 0.0008969306945800781
ell 772, elapsed: 0.0019080638885498047
ell 771, elapsed: 0.0009059906005859375
ell 770, elapsed: 0.0008969306945800781
ell 769, elapsed: 0.0008931159973144531
ell 768, elapsed: 0.0009059906005859375
ell 762, elapsed: 0.0016851425170898438
ell 761, elapsed: 0.0008990764617919922
ell 760, elapsed: 0.0009131431579589844
ell 759, elapsed: 0.0008969306945800781
ell 758, elapsed: 0.0008962154388427734
ell 752, elapsed: 0.0017001628875732422
ell 751, elapsed: 0.0009140968322753906
ell 750, elapsed: 0.015241861343383789
ell 749, elapsed: 0.0008599758148193359
ell 748, elapsed: 0.0008199214935302734
ell 742, elapsed: 0.0015611648559570312
ell 741, elapsed: 0.0008449554443359375
ell 740, elapsed: 0.0008249282836914062
ell 739, elapsed: 0.0008130073547363281
ell 738, elapsed: 0.0008101463317871094
ell 732, elapsed: 0.0015561580657958984
ell 731, elapsed: 0.0008330345153808594
ell 730, elapsed: 0.0008080005645751953
ell 729, elapsed: 0.0008211135864257812
ell 728, elapsed: 0.0008330345153808594
ell 722, elapsed: 0.0015590190887451172
ell 721, elapsed: 0.0007889270782470703
ell 720, elapsed: 0.0008120536804199219
ell 719, elapsed: 0.0008451938629150391
ell 718, elapsed: 0.0008118152618408203
ell 712, elapsed: 0.0015740394592285156
ell 711, elapsed: 0.0008080005645751953
ell 710, elapsed: 0.0008339881896972656
ell 709, elapsed: 0.0008220672607421875
ell 708, elapsed: 0.0008029937744140625
ell 702, elapsed: 0.0014541149139404297
ell 701, elapsed: 0.0007519721984863281
ell 700, elapsed: 0.000782012939453125
ell 699, elapsed: 0.0007491111755371094
ell 698, elapsed: 0.0007669925689697266
ell 692, elapsed: 0.0015208721160888672
ell 691, elapsed: 0.0007700920104980469
ell 690, elapsed: 0.0007758140563964844
ell 689, elapsed: 0.0007808208465576172
ell 688, elapsed: 0.0007941722869873047
ell 682, elapsed: 0.001522064208984375
ell 681, elapsed: 0.0008060932159423828
ell 680, elapsed: 0.0007898807525634766
ell 679, elapsed: 0.0007960796356201172
ell 678, elapsed: 0.0008168220520019531
ell 672, elapsed: 0.0014629364013671875
ell 671, elapsed: 0.0007719993591308594
ell 670, elapsed: 0.0007770061492919922
ell 669, elapsed: 0.0007841587066650391
ell 668, elapsed: 0.0007619857788085938
ell 662, elapsed: 0.0015189647674560547
ell 661, elapsed: 0.0008089542388916016
ell 660, elapsed: 0.000820159912109375
ell 659, elapsed: 0.0007710456848144531
ell 658, elapsed: 0.0008001327514648438
ell 652, elapsed: 0.001516103744506836
ell 651, elapsed: 0.0008149147033691406
ell 650, elapsed: 0.00074005126953125
ell 649, elapsed: 0.0007710456848144531
ell 648, elapsed: 0.0008070468902587891
ell 642, elapsed: 0.0014808177947998047
ell 641, elapsed: 0.0007879734039306641
ell 640, elapsed: 0.0007967948913574219
ell 639, elapsed: 0.0008020401000976562
ell 638, elapsed: 0.0007998943328857422
ell 632, elapsed: 0.0017390251159667969
ell 631, elapsed: 0.0007750988006591797
ell 630, elapsed: 0.0008220672607421875
ell 629, elapsed: 0.0008151531219482422
ell 628, elapsed: 0.0007739067077636719
ell 622, elapsed: 0.001577138900756836
ell 621, elapsed: 0.000804901123046875
ell 620, elapsed: 0.0008170604705810547
ell 619, elapsed: 0.0007698535919189453
ell 618, elapsed: 0.0007779598236083984
ell 612, elapsed: 0.0015079975128173828
ell 611, elapsed: 0.0008208751678466797
ell 610, elapsed: 0.0008151531219482422
ell 609, elapsed: 0.0007851123809814453
ell 608, elapsed: 0.0008070468902587891
ell 602, elapsed: 0.0014882087707519531
ell 601, elapsed: 0.0008080005645751953
ell 600, elapsed: 0.0008130073547363281
ell 599, elapsed: 0.0008029937744140625
ell 598, elapsed: 0.000804901123046875
ell 592, elapsed: 0.0015599727630615234
ell 591, elapsed: 0.0008170604705810547
ell 590, elapsed: 0.0008180141448974609
ell 589, elapsed: 0.0008170604705810547
ell 588, elapsed: 0.000827789306640625
ell 582, elapsed: 0.0015401840209960938
ell 581, elapsed: 0.0008330345153808594
ell 580, elapsed: 0.0008180141448974609
ell 579, elapsed: 0.0008091926574707031
ell 578, elapsed: 0.0008068084716796875
ell 572, elapsed: 0.0017480850219726562
ell 571, elapsed: 0.0008339881896972656
ell 570, elapsed: 0.0008218288421630859
ell 569, elapsed: 0.0008299350738525391
ell 568, elapsed: 0.0007929801940917969
ell 562, elapsed: 0.0015621185302734375
ell 561, elapsed: 0.0008339881896972656
ell 560, elapsed: 0.0008089542388916016
ell 559, elapsed: 0.0007941722869873047
ell 558, elapsed: 0.0008771419525146484
ell 552, elapsed: 0.0018520355224609375
ell 551, elapsed: 0.0008089542388916016
ell 550, elapsed: 0.0008158683776855469
ell 549, elapsed: 0.0008389949798583984
ell 548, elapsed: 0.0007948875427246094
ell 542, elapsed: 0.0014171600341796875
ell 541, elapsed: 0.0008029937744140625
ell 540, elapsed: 0.0008139610290527344
ell 539, elapsed: 0.0007889270782470703
ell 538, elapsed: 0.000820159912109375
ell 532, elapsed: 0.0014619827270507812
ell 531, elapsed: 0.0008242130279541016
ell 530, elapsed: 0.0007491111755371094
ell 529, elapsed: 0.0008289813995361328
ell 528, elapsed: 0.0007679462432861328
ell 522, elapsed: 0.0015709400177001953
ell 521, elapsed: 0.000820159912109375
ell 520, elapsed: 0.0008149147033691406
ell 519, elapsed: 0.0008060932159423828
ell 518, elapsed: 0.0008089542388916016
ell 512, elapsed: 0.0015790462493896484
ell 511, elapsed: 0.0008261203765869141
ell 510, elapsed: 0.0008060932159423828
ell 509, elapsed: 0.0007760524749755859
ell 508, elapsed: 0.0008308887481689453
ell 502, elapsed: 0.001567840576171875
ell 501, elapsed: 0.0008192062377929688
ell 500, elapsed: 0.0008280277252197266
ell 499, elapsed: 0.0007500648498535156
ell 498, elapsed: 0.0007631778717041016
ell 492, elapsed: 0.0017650127410888672
ell 491, elapsed: 0.0008001327514648438
ell 490, elapsed: 0.0008230209350585938
ell 489, elapsed: 0.0008327960968017578
ell 488, elapsed: 0.0008230209350585938
ell 482, elapsed: 0.0015149116516113281
ell 481, elapsed: 0.0007810592651367188
ell 480, elapsed: 0.0007672309875488281
ell 479, elapsed: 0.0007340908050537109
ell 478, elapsed: 0.0007340908050537109
ell 472, elapsed: 0.0014698505401611328
ell 471, elapsed: 0.0008041858673095703
ell 470, elapsed: 0.0008060932159423828
ell 469, elapsed: 0.0007679462432861328
ell 468, elapsed: 0.0008130073547363281
ell 462, elapsed: 0.0016651153564453125
ell 461, elapsed: 0.0007569789886474609
ell 460, elapsed: 0.0008070468902587891
ell 459, elapsed: 0.0008161067962646484
ell 458, elapsed: 0.0007989406585693359
ell 452, elapsed: 0.0014798641204833984
ell 451, elapsed: 0.0007770061492919922
ell 450, elapsed: 0.0007979869842529297
ell 449, elapsed: 0.0007939338684082031
ell 448, elapsed: 0.0008068084716796875
ell 442, elapsed: 0.0017001628875732422
ell 441, elapsed: 0.0007958412170410156
ell 440, elapsed: 0.0007920265197753906
ell 439, elapsed: 0.0008018016815185547
ell 438, elapsed: 0.0007939338684082031
ell 432, elapsed: 0.0014460086822509766
ell 431, elapsed: 0.0007679462432861328
ell 430, elapsed: 0.0007867813110351562
ell 429, elapsed: 0.0007779598236083984
ell 428, elapsed: 0.0007889270782470703
ell 422, elapsed: 0.0016810894012451172
ell 421, elapsed: 0.0007581710815429688
ell 420, elapsed: 0.0008349418640136719
ell 419, elapsed: 0.0007660388946533203
ell 418, elapsed: 0.0008230209350585938
ell 412, elapsed: 0.0014698505401611328
ell 411, elapsed: 0.000804901123046875
ell 410, elapsed: 0.0007748603820800781
ell 409, elapsed: 0.0007669925689697266
ell 408, elapsed: 0.0007839202880859375
ell 402, elapsed: 0.0014560222625732422
ell 401, elapsed: 0.0007898807525634766
ell 400, elapsed: 0.0007901191711425781
ell 399, elapsed: 0.0008039474487304688
ell 398, elapsed: 0.0008039474487304688
ell 392, elapsed: 0.0015690326690673828
ell 391, elapsed: 0.0008101463317871094
ell 390, elapsed: 0.0008828639984130859
ell 389, elapsed: 0.000865936279296875
ell 388, elapsed: 0.0008268356323242188
ell 382, elapsed: 0.0015769004821777344
ell 381, elapsed: 0.0008299350738525391
ell 380, elapsed: 0.0008389949798583984
ell 379, elapsed: 0.0008099079132080078
ell 378, elapsed: 0.0007791519165039062
ell 372, elapsed: 0.0017261505126953125
ell 371, elapsed: 0.0007650852203369141
ell 370, elapsed: 0.0008051395416259766
ell 369, elapsed: 0.0007359981536865234
ell 368, elapsed: 0.0007860660552978516
ell 362, elapsed: 0.0015759468078613281
ell 361, elapsed: 0.0008080005645751953
ell 360, elapsed: 0.0008950233459472656
ell 359, elapsed: 0.0008730888366699219
ell 358, elapsed: 0.0009059906005859375
ell 352, elapsed: 0.0018148422241210938
ell 351, elapsed: 0.0008680820465087891
ell 350, elapsed: 0.0009019374847412109
ell 349, elapsed: 0.0008630752563476562
ell 348, elapsed: 0.0009131431579589844
ell 342, elapsed: 0.0016498565673828125
ell 341, elapsed: 0.0009140968322753906
ell 340, elapsed: 0.0008711814880371094
ell 339, elapsed: 0.0009019374847412109
ell 338, elapsed: 0.0008769035339355469
ell 332, elapsed: 0.001641988754272461
ell 331, elapsed: 0.0009090900421142578
ell 330, elapsed: 0.0008780956268310547
ell 329, elapsed: 0.0008821487426757812
ell 328, elapsed: 0.000885009765625
ell 322, elapsed: 0.0018720626831054688
ell 321, elapsed: 0.0013589859008789062
ell 320, elapsed: 0.0013229846954345703
ell 319, elapsed: 0.0013070106506347656
ell 318, elapsed: 0.0013098716735839844
ell 312, elapsed: 0.0023241043090820312
ell 311, elapsed: 0.0010628700256347656
ell 310, elapsed: 0.0008060932159423828
ell 309, elapsed: 0.0008490085601806641
ell 308, elapsed: 0.0008909702301025391
ell 302, elapsed: 0.0016629695892333984
ell 301, elapsed: 0.0008411407470703125
ell 300, elapsed: 0.0008001327514648438
ell 299, elapsed: 0.0007870197296142578
ell 298, elapsed: 0.0007779598236083984
ell 292, elapsed: 0.0015079975128173828
ell 291, elapsed: 0.0008180141448974609
ell 290, elapsed: 0.0008268356323242188
ell 289, elapsed: 0.0007810592651367188
ell 288, elapsed: 0.0008080005645751953
ell 282, elapsed: 0.0015900135040283203
ell 281, elapsed: 0.0009341239929199219
ell 280, elapsed: 0.0009360313415527344
ell 279, elapsed: 0.0008819103240966797
ell 278, elapsed: 0.0009281635284423828
ell 272, elapsed: 0.001667022705078125
ell 271, elapsed: 0.0012819766998291016
ell 270, elapsed: 0.001252889633178711
ell 269, elapsed: 0.001154184341430664
ell 268, elapsed: 0.0010008811950683594
ell 262, elapsed: 0.0018460750579833984
ell 261, elapsed: 0.0010230541229248047
ell 260, elapsed: 0.0010149478912353516
ell 259, elapsed: 0.0008730888366699219
ell 258, elapsed: 0.0008940696716308594
ell 252, elapsed: 0.0016789436340332031
ell 251, elapsed: 0.0008599758148193359
ell 250, elapsed: 0.0009529590606689453
ell 249, elapsed: 0.0009379386901855469
ell 248, elapsed: 0.0009410381317138672
ell 242, elapsed: 0.0017368793487548828
ell 241, elapsed: 0.0009319782257080078
ell 240, elapsed: 0.0009548664093017578
ell 239, elapsed: 0.0009419918060302734
ell 238, elapsed: 0.0009300708770751953
ell 232, elapsed: 0.0017409324645996094
ell 231, elapsed: 0.0008959770202636719
ell 230, elapsed: 0.0009071826934814453
ell 229, elapsed: 0.0008637905120849609
ell 228, elapsed: 0.0008108615875244141
ell 222, elapsed: 0.00162506103515625
ell 221, elapsed: 0.0008640289306640625
ell 220, elapsed: 0.0008192062377929688
ell 219, elapsed: 0.0009238719940185547
ell 218, elapsed: 0.0008270740509033203
ell 212, elapsed: 0.0016379356384277344
ell 211, elapsed: 0.0009329319000244141
ell 210, elapsed: 0.0008749961853027344
ell 209, elapsed: 0.0008590221405029297
ell 208, elapsed: 0.0008518695831298828
ell 202, elapsed: 0.0016241073608398438
ell 201, elapsed: 0.0008900165557861328
ell 200, elapsed: 0.001093149185180664
ell 199, elapsed: 0.0010538101196289062
ell 198, elapsed: 0.0008590221405029297
ell 192, elapsed: 0.0016090869903564453
ell 191, elapsed: 0.0009360313415527344
ell 190, elapsed: 0.0008690357208251953
ell 189, elapsed: 0.0008969306945800781
ell 188, elapsed: 0.0008800029754638672
ell 182, elapsed: 0.0016999244689941406
ell 181, elapsed: 0.0008552074432373047
ell 180, elapsed: 0.0008180141448974609
ell 179, elapsed: 0.0008189678192138672
ell 178, elapsed: 0.0008351802825927734
ell 172, elapsed: 0.0014920234680175781
ell 171, elapsed: 0.0008130073547363281
ell 170, elapsed: 0.0008561611175537109
ell 169, elapsed: 0.00086212158203125
ell 168, elapsed: 0.0008640289306640625
ell 162, elapsed: 0.0014619827270507812
ell 161, elapsed: 0.0008320808410644531
ell 160, elapsed: 0.0008590221405029297
ell 159, elapsed: 0.0008530616760253906
ell 158, elapsed: 0.0008490085601806641
ell 152, elapsed: 0.00162506103515625
ell 151, elapsed: 0.0008101463317871094
ell 150, elapsed: 0.0008130073547363281
ell 149, elapsed: 0.0007658004760742188
ell 148, elapsed: 0.0008242130279541016
ell 142, elapsed: 0.001641988754272461
ell 141, elapsed: 0.0008518695831298828
ell 140, elapsed: 0.0009009838104248047
ell 139, elapsed: 0.0009951591491699219
ell 138, elapsed: 0.0008778572082519531
ell 132, elapsed: 0.0016019344329833984
ell 131, elapsed: 0.0009191036224365234
ell 130, elapsed: 0.0009260177612304688
ell 129, elapsed: 0.0008308887481689453
ell 128, elapsed: 0.0009279251098632812
ell 122, elapsed: 0.0018908977508544922
ell 121, elapsed: 0.0008959770202636719
ell 120, elapsed: 0.0011081695556640625
ell 119, elapsed: 0.0010869503021240234
ell 118, elapsed: 0.0011010169982910156
ell 112, elapsed: 0.0019497871398925781
ell 111, elapsed: 0.001127004623413086
ell 110, elapsed: 0.0010502338409423828
ell 109, elapsed: 0.0009870529174804688
ell 108, elapsed: 0.0009851455688476562
ell 102, elapsed: 0.002084970474243164
ell 101, elapsed: 0.0040400028228759766
ell 100, elapsed: 0.0038330554962158203
ell 99, elapsed: 0.003559112548828125
ell 98, elapsed: 0.003547191619873047
ell 92, elapsed: 0.004700183868408203
ell 91, elapsed: 0.0024640560150146484
ell 90, elapsed: 0.0024518966674804688
ell 89, elapsed: 0.0024721622467041016
ell 88, elapsed: 0.0024840831756591797
ell 82, elapsed: 0.005064964294433594
ell 81, elapsed: 0.003735065460205078
ell 80, elapsed: 0.003632068634033203
ell 79, elapsed: 0.0035860538482666016
ell 78, elapsed: 0.003592967987060547
ell 72, elapsed: 0.006819009780883789
ell 71, elapsed: 0.0035109519958496094
ell 70, elapsed: 0.0034940242767333984
ell 69, elapsed: 0.0034999847412109375
ell 68, elapsed: 0.003503084182739258
ell 62, elapsed: 0.006577014923095703
ell 61, elapsed: 0.0037229061126708984
ell 60, elapsed: 0.003612995147705078
ell 59, elapsed: 0.003656148910522461
ell 58, elapsed: 0.0036258697509765625
ell 52, elapsed: 0.006330013275146484
ell 51, elapsed: 0.0039730072021484375
ell 50, elapsed: 0.003696918487548828
ell 49, elapsed: 0.0031659603118896484
ell 48, elapsed: 0.003179788589477539
ell 42, elapsed: 0.0065000057220458984
ell 41, elapsed: 0.0036919116973876953
ell 40, elapsed: 0.0033941268920898438
ell 39, elapsed: 0.0033750534057617188
ell 38, elapsed: 0.0033800601959228516
ell 32, elapsed: 0.006340980529785156
ell 31, elapsed: 0.003432035446166992
ell 30, elapsed: 0.003268003463745117
ell 29, elapsed: 0.0032541751861572266
ell 28, elapsed: 0.0036170482635498047
ell 22, elapsed: 0.005995988845825195
ell 21, elapsed: 0.003342866897583008
ell 20, elapsed: 0.0033690929412841797
ell 19, elapsed: 0.003364086151123047
ell 18, elapsed: 0.0033559799194335938
ell 12, elapsed: 0.006120920181274414
ell 11, elapsed: 0.0032019615173339844
ell 10, elapsed: 0.0032019615173339844
ell 9, elapsed: 0.0032241344451904297
ell 8, elapsed: 0.003213167190551758
  0.936539 seconds (66.75 k allocations: 12.139 MiB)
elapsed: 0.0038940906524658203
step:          0.074548 sec (0 allocations: 0 byte, 0.0% gc time)
swapping:      0.000831 sec (0 allocations: 0 byte, 0.0% gc time)
calc_Mellell!: 0.038228 sec (0 allocations: 0 byte, 0.0% gc time)
  t0 :  0.010046 sec (0 allocations: 0 byte, 0.0% gc time)
  tm2 : 0.133915 sec (0 allocations: 0 byte, 0.0% gc time)
  tm2s: 0.008745 sec (0 allocations: 0 byte, 0.0% gc time)
  tm4 : 0.17481 sec (0 allocations: 0 byte, 0.0% gc time)
  tp2 : 0.0 sec (0 allocations: 0 byte, 0.0% gc time)
  tp2s: 0.0 sec (0 allocations: 0 byte, 0.0% gc time)
  tp4 : 0.0 sec (0 allocations: 0 byte, 0.0% gc time)
calc_wtdll!:   0.615324 sec (49.2 k allocations: 11.133 MB, 0.0% gc time)
calc_wljj!:    0.03948 sec (69 allocations: 1.078 KB, 0.0% gc time)
mult_prefac!:  0.0 sec (0 allocations: 0 byte, 0.0% gc time)
convert:       0.0 sec (0 allocations: 0 byte, 0.0% gc time)
write:         0.033945 sec (0 allocations: 0 byte, 0.0% gc time)
test_rand_2f1: 0.0 sec (0 allocations: 0 byte, 0.0% gc time)
Closing outfile out/MlCache/MlCache.bin...   0.000009 seconds
xi, l=0, nu=0:   0.539236 seconds (650.41 k allocations: 31.239 MiB)
xi, l=0, nu=-2:  0.003246 seconds (423 allocations: 177.078 KiB)
Created 'out/xi.tsv'.
  q=1.1, R=0.6:	  0.841465 seconds (291.08 k allocations: 38.895 MiB, 3.22% gc time)
  q=1.1, R=0.7:	  0.873551 seconds (304.75 k allocations: 40.996 MiB, 1.50% gc time)
  q=1.1, R=0.8:	  0.943874 seconds (299.14 k allocations: 40.132 MiB, 1.10% gc time)
  q=1.1, R=0.9:	  1.091863 seconds (293.57 k allocations: 39.286 MiB, 2.39% gc time)
  q=1.1, R=0.998:	 21.212446 seconds (10.67 M allocations: 823.460 MiB, 0.26% gc time)
  q=1.1, R=1.0:	  0.004236 seconds (10.24 k allocations: 768.375 KiB)

ℓ = 1000
Δℓ = 4
ΔℓRg1 = -4
N = 4096
q = 1.1
kmin = 1.0e-5
kmax = 1000.0
χ0 = 0.001
RR = RR.tsv
ℓmax = ℓmax.bin
f21 = f21.bin
kmin = 1.0e-5
kmax = 1000.0
dlrec    = 4
dlrecRg1 = -4
Output size: 1573632 bytes = 0.0014655590057373047 GiB
Output size: 786816 bytes = 0.0007327795028686523 GiB
Reading 'out/F21EllCache'...   0.001357 seconds (268 allocations: 533.531 KiB)
ellmax: 1002
lmaxcache: 1000
fell[:,1,1] = Complex{Float64}[1.7262928128202118e-224 - 4.2281979352226944e-240im, 1.7282693092099662e-224 - 4.233038955177176e-240im]
ell 1002, elapsed: 0.00020503997802734375
ell 1001, elapsed: 0.0009598731994628906
ell 1000, elapsed: 0.0009770393371582031
ell 999, elapsed: 0.008395910263061523
ell 998, elapsed: 0.005927085876464844
ell 44, elapsed: 0.6353528499603271
ell 43, elapsed: 0.005645036697387695
ell 42, elapsed: 0.005449056625366211
ell 41, elapsed: 0.006687164306640625
ell 40, elapsed: 0.0070629119873046875
  0.687206 seconds (4.55 k allocations: 320.359 KiB)
elapsed: 0.007787942886352539
step:          0.632551 sec (0 allocations: 0 byte, 0.0% gc time)
swapping:      0.000677 sec (0 allocations: 0 byte, 0.0% gc time)
calc_Mellell!: 0.001383 sec (0 allocations: 0 byte, 0.0% gc time)
  t0 :  0.000404 sec (0 allocations: 0 byte, 0.0% gc time)
  tm2 : 0.011442 sec (0 allocations: 0 byte, 0.0% gc time)
  tm2s: 0.000299 sec (0 allocations: 0 byte, 0.0% gc time)
  tm4 : 0.030953 sec (0 allocations: 0 byte, 0.0% gc time)
  tp2 : 0.0 sec (0 allocations: 0 byte, 0.0% gc time)
  tp2s: 0.0 sec (0 allocations: 0 byte, 0.0% gc time)
  tp4 : 0.0 sec (0 allocations: 0 byte, 0.0% gc time)
calc_wtdll!:   0.043318 sec (480 allocations: 52.5 KB, 0.0% gc time)
calc_wljj!:    0.00126 sec (1 allocations: 16 byte, 0.0% gc time)
mult_prefac!:  0.0 sec (0 allocations: 0 byte, 0.0% gc time)
convert:       0.0 sec (0 allocations: 0 byte, 0.0% gc time)
write:         0.000923 sec (0 allocations: 0 byte, 0.0% gc time)
test_rand_2f1: 0.0 sec (0 allocations: 0 byte, 0.0% gc time)
Closing outfile out/MlCache/MlCache.bin...   0.000008 seconds
  2.190978 seconds (596.77 k allocations: 57.541 MiB, 1.24% gc time)
make_phi():   0.034465 seconds (228 allocations: 290.953 KiB)
  0.014833 seconds (6.25 k allocations: 620.797 KiB)
tskip:       1.0e-6 sec (0 allocations: 0 byte, 0.0% gc time)
tread:       0.000721 sec (19 allocations: 1.312 KB, 0.0% gc time)
tmultphi:    0.000377 sec (0 allocations: 0 byte, 0.0% gc time)
tbrfft:      0.012721 sec (6.239 k allocations: 619.484 KB, 0.0% gc time)
tmultprefac: 0.000976 sec (0 allocations: 0 byte, 0.0% gc time)
toutfunc:    0.000121 sec (0 allocations: 0 byte, 0.0% gc time)
Created 'out/wl42_jj00.tsv'.
Created 'out/wl42_jj02.tsv'.
    Testing TwoFAST tests passed 
