Julia Version 1.5.0-DEV.11
Commit bf3c5d81c2 (2020-01-03 14:17 UTC)
Platform Info:
  OS: Linux (x86_64-linux-gnu)
  CPU: Intel(R) Xeon(R) Silver 4114 CPU @ 2.20GHz
  WORD_SIZE: 64
  LIBM: libopenlibm
  LLVM: libLLVM-8.0.1 (ORCJIT, skylake)
Environment:
  JULIA_DEPOT_PATH = ::/usr/local/share/julia

 Resolving package versions...
 Installed URIParser ──────── v0.4.0
 Installed Reexport ───────── v0.2.0
 Installed IntelOpenMP_jll ── v2018.0.3+0
 Installed MKL_jll ────────── v2019.0.117+0
 Installed AbstractFFTs ───── v0.5.0
 Installed BinDeps ────────── v1.0.0
 Installed BinaryProvider ─── v0.5.8
 Installed FFTW_jll ───────── v3.3.9+3
 Installed SpecialFunctions ─ v0.8.0
 Installed FFTW ───────────── v1.2.0
 Installed IncGammaBeta ───── v0.1.0
 Installed Nemo ───────────── v0.15.1
 Installed AbstractAlgebra ── v0.7.1
 Installed TwoFAST ────────── v0.1.0
  Updating `~/.julia/environments/v1.5/Project.toml`
  [0dd23c3e] + TwoFAST v0.1.0
  Updating `~/.julia/environments/v1.5/Manifest.toml`
  [c3fe647b] + AbstractAlgebra v0.7.1
  [621f4979] + AbstractFFTs v0.5.0
  [9e28174c] + BinDeps v1.0.0
  [b99e7846] + BinaryProvider v0.5.8
  [7a1cc6ca] + FFTW v1.2.0
  [f5851436] + FFTW_jll v3.3.9+3
  [5087d2c0] + IncGammaBeta v0.1.0
  [1d5cc7b8] + IntelOpenMP_jll v2018.0.3+0
  [856f044c] + MKL_jll v2019.0.117+0
  [2edaba10] + Nemo v0.15.1
  [189a3867] + Reexport v0.2.0
  [276daf66] + SpecialFunctions v0.8.0
  [0dd23c3e] + TwoFAST v0.1.0
  [30578b45] + URIParser v0.4.0
  [2a0f44e3] + Base64 
  [ade2ca70] + Dates 
  [8bb1440f] + DelimitedFiles 
  [8ba89e20] + Distributed 
  [b77e0a4c] + InteractiveUtils 
  [76f85450] + LibGit2 
  [8f399da3] + Libdl 
  [37e2e46d] + LinearAlgebra 
  [56ddb016] + Logging 
  [d6f4376e] + Markdown 
  [a63ad114] + Mmap 
  [44cfe95a] + Pkg 
  [de0858da] + Printf 
  [3fa0cd96] + REPL 
  [9a3f8284] + Random 
  [ea8e919c] + SHA 
  [9e88b42a] + Serialization 
  [6462fe0b] + Sockets 
  [2f01184e] + SparseArrays 
  [8dfed614] + Test 
  [cf7118a7] + UUIDs 
  [4ec0a83e] + Unicode 
  Building Nemo ────────────→ `~/.julia/packages/Nemo/qzx0m/deps/build.log`
  Updating `/tmp/jl_Mpwtsu/Project.toml`
 [no changes]
  Updating `/tmp/jl_Mpwtsu/Manifest.toml`
 [no changes]
  Building FFTW ────────────→ `~/.julia/packages/FFTW/qqcBj/deps/build.log`
  Updating `/tmp/jl_Lvk69a/Project.toml`
 [no changes]
  Updating `/tmp/jl_Lvk69a/Manifest.toml`
 [no changes]
  Building SpecialFunctions → `~/.julia/packages/SpecialFunctions/ne2iw/deps/build.log`
  Updating `/tmp/jl_i2yJdU/Project.toml`
 [no changes]
  Updating `/tmp/jl_i2yJdU/Manifest.toml`
 [no changes]
   Testing TwoFAST
 Installed Dierckx ─ v0.4.1
  Updating `/tmp/jl_z9qNaV/Project.toml`
  [39dd38d3] + Dierckx v0.4.1
  Updating `/tmp/jl_z9qNaV/Manifest.toml`
  [39dd38d3] + Dierckx v0.4.1
  Building Dierckx → `~/.julia/packages/Dierckx/9SY4A/deps/build.log`
  Updating `/tmp/jl_xAtWrZ/Project.toml`
 [no changes]
  Updating `/tmp/jl_xAtWrZ/Manifest.toml`
 [no changes]
Running sandbox
Status `/tmp/jl_z9qNaV/Project.toml`
  [39dd38d3] Dierckx v0.4.1
  [7a1cc6ca] FFTW v1.2.0
  [5087d2c0] IncGammaBeta v0.1.0
  [2edaba10] Nemo v0.15.1
  [276daf66] SpecialFunctions v0.8.0
  [0dd23c3e] TwoFAST v0.1.0
  [8bb1440f] DelimitedFiles 
  [37e2e46d] LinearAlgebra 
  [56ddb016] Logging 
  [8dfed614] Test 

Welcome to Nemo version 0.15.1

Nemo comes with absolutely no warranty whatsoever


Welcome to Nemo version 0.15.1

Nemo comes with absolutely no warranty whatsoever

Testing ξ(r), ℓ=0, ν=-1 ... passed
Testing ξ(r), ℓ=0, ν=0 ... passed
Testing ξ(r), ℓ=0, ν=1 ... passed
Testing ξ(r), ℓ=0, ν=2 ... passed
Testing ξ(r), ℓ=0, ν=3 ... passed
Testing ξ(r), ℓ=1, ν=0 ... passed
Testing ξ(r), ℓ=1, ν=1 ... passed
Testing ξ(r), ℓ=1, ν=2 ... passed
Testing ξ(r), ℓ=1, ν=3 ... passed
Testing ξ(r), ℓ=2, ν=-1 ... passed
Testing ξ(r), ℓ=2, ν=0 ... passed
Testing ξ(r), ℓ=2, ν=1 ... passed
Testing ξ(r), ℓ=2, ν=2 ... passed
Testing ξ(r), ℓ=2, ν=3 ... passed
Testing ξ(r), ℓ=3, ν=-1 ... passed
Testing ξ(r), ℓ=3, ν=0 ... passed
Testing ξ(r), ℓ=3, ν=1 ... passed
Testing ξ(r), ℓ=3, ν=2 ... passed
Testing ξ(r), ℓ=3, ν=3 ... passed
Testing ξ(r), ℓ=4, ν=-1 ... passed
Testing ξ(r), ℓ=4, ν=0 ... passed
Testing ξ(r), ℓ=4, ν=1 ... passed
Testing ξ(r), ℓ=4, ν=2 ... passed
Testing ξ(r), ℓ=4, ν=3 ... passed
Testing ξ(r) ... passed
Testing ξ′(r) ... passed
Testing ξ″(r) ... passed
Calculating fmax: 
  dlrec    = 4
  dlrecRg1 = -4
  q=1.1, R=1.1:	  4.759956 seconds (1.20 M allocations: 67.954 MiB, 2.78% gc time)

  4.797798 seconds (1.22 M allocations: 69.064 MiB, 2.76% gc time)
ℓ = 1202
Δℓ = 4
ΔℓRg1 = -4
N = 1600
q = 1.1
kmin = 1.0e-5
kmax = 100000.00000000004
χ0 = 0.023029999999999995
RR = RR.tsv
ℓmax = ℓmax.bin
f21 = f21.bin
kmin = 1.0e-5
kmax = 100000.0
dlrec    = 4
dlrecRg1 = -4
Output size: 5741568 bytes = 0.005347251892089844 GiB
Output size: 51264 bytes = 4.774332046508789e-5 GiB
Reading 'out/F21EllCache'...   0.557001 seconds (318.67 k allocations: 16.381 MiB)
ellmax: 1202
lmaxcache: 1202
fell[:,1,1] = Complex{Float64}[3.9583795592771634e-52 - 9.695233714158177e-68im, 3.990121772925759e-52 - 9.772979714843386e-68im]
ell 1202, elapsed: 8.702278137207031e-5
ell 1201, elapsed: 2.2499759197235107
ell 1200, elapsed: 0.0005087852478027344
ell 1199, elapsed: 0.00046706199645996094
ell 1198, elapsed: 0.0004677772521972656
ell 1002, elapsed: 0.009553194046020508
ell 1001, elapsed: 0.0005011558532714844
ell 1000, elapsed: 0.0004699230194091797
ell 999, elapsed: 0.0007648468017578125
ell 998, elapsed: 0.0006110668182373047
ell 902, elapsed: 0.005232095718383789
ell 901, elapsed: 0.0006330013275146484
ell 900, elapsed: 0.0007801055908203125
ell 899, elapsed: 0.0006070137023925781
ell 898, elapsed: 0.0006248950958251953
ell 802, elapsed: 0.005326032638549805
ell 801, elapsed: 0.0006251335144042969
ell 800, elapsed: 0.0006320476531982422
ell 799, elapsed: 0.0006051063537597656
ell 798, elapsed: 0.0006339550018310547
ell 702, elapsed: 0.00521397590637207
ell 701, elapsed: 0.0006361007690429688
ell 700, elapsed: 0.0006039142608642578
ell 699, elapsed: 0.0006051063537597656
ell 698, elapsed: 0.0006258487701416016
ell 602, elapsed: 0.0053081512451171875
ell 601, elapsed: 0.0006191730499267578
ell 600, elapsed: 0.0006091594696044922
ell 599, elapsed: 0.0006029605865478516
ell 598, elapsed: 0.0006048679351806641
ell 502, elapsed: 0.005206108093261719
ell 501, elapsed: 0.0006589889526367188
ell 500, elapsed: 0.0006418228149414062
ell 499, elapsed: 0.0006320476531982422
ell 498, elapsed: 0.0006220340728759766
ell 402, elapsed: 0.005378007888793945
ell 401, elapsed: 0.0005409717559814453
ell 400, elapsed: 0.0005178451538085938
ell 399, elapsed: 0.0005240440368652344
ell 398, elapsed: 0.0005090236663818359
ell 302, elapsed: 0.005321025848388672
ell 301, elapsed: 0.0006148815155029297
ell 300, elapsed: 0.0006210803985595703
ell 299, elapsed: 0.0006000995635986328
ell 298, elapsed: 0.0005979537963867188
ell 202, elapsed: 0.005308866500854492
ell 201, elapsed: 0.0006549358367919922
ell 200, elapsed: 0.0006530284881591797
ell 199, elapsed: 0.0006341934204101562
ell 198, elapsed: 0.0006549358367919922
ell 152, elapsed: 0.0027930736541748047
ell 151, elapsed: 0.0005459785461425781
ell 150, elapsed: 0.0005278587341308594
ell 149, elapsed: 0.0005319118499755859
ell 148, elapsed: 0.0006380081176757812
ell 127, elapsed: 0.0017371177673339844
ell 126, elapsed: 0.0006468296051025391
ell 125, elapsed: 0.0006399154663085938
ell 124, elapsed: 0.0006458759307861328
ell 123, elapsed: 0.0006439685821533203
ell 114, elapsed: 0.0011479854583740234
ell 113, elapsed: 0.0006539821624755859
ell 112, elapsed: 0.0006389617919921875
ell 111, elapsed: 0.0006351470947265625
ell 110, elapsed: 0.0006740093231201172
ell 102, elapsed: 0.0011050701141357422
ell 101, elapsed: 0.0006818771362304688
ell 100, elapsed: 0.000698089599609375
ell 99, elapsed: 0.0006399154663085938
ell 98, elapsed: 0.0006399154663085938
ell 97, elapsed: 0.0007469654083251953
ell 96, elapsed: 0.0007979869842529297
ell 95, elapsed: 0.000698089599609375
ell 94, elapsed: 0.0007841587066650391
ell 93, elapsed: 0.0006761550903320312
ell 92, elapsed: 0.0007779598236083984
ell 91, elapsed: 0.0007081031799316406
ell 90, elapsed: 0.0007770061492919922
ell 89, elapsed: 0.0006880760192871094
ell 88, elapsed: 0.000782012939453125
ell 87, elapsed: 0.0007271766662597656
ell 86, elapsed: 0.0008230209350585938
ell 85, elapsed: 0.0006880760192871094
ell 84, elapsed: 0.0007340908050537109
ell 83, elapsed: 0.0005369186401367188
ell 82, elapsed: 0.0006430149078369141
ell 81, elapsed: 0.0005280971527099609
ell 80, elapsed: 0.0006120204925537109
ell 79, elapsed: 0.0005300045013427734
ell 78, elapsed: 0.0006148815155029297
ell 77, elapsed: 0.0005218982696533203
ell 76, elapsed: 0.0006399154663085938
ell 75, elapsed: 0.0005140304565429688
ell 74, elapsed: 0.0005879402160644531
ell 73, elapsed: 0.0005121231079101562
ell 72, elapsed: 0.0005931854248046875
ell 71, elapsed: 0.0005161762237548828
ell 70, elapsed: 0.0005879402160644531
ell 69, elapsed: 0.0005810260772705078
ell 68, elapsed: 0.0006060600280761719
ell 67, elapsed: 0.00048089027404785156
ell 66, elapsed: 0.0005800724029541016
ell 65, elapsed: 0.0004940032958984375
ell 64, elapsed: 0.0006260871887207031
ell 63, elapsed: 0.0005290508270263672
ell 62, elapsed: 0.0005910396575927734
ell 61, elapsed: 0.0004930496215820312
ell 60, elapsed: 0.0005800724029541016
ell 59, elapsed: 0.0004980564117431641
ell 58, elapsed: 0.0005769729614257812
ell 57, elapsed: 0.0005049705505371094
ell 56, elapsed: 0.0005741119384765625
ell 55, elapsed: 0.0005171298980712891
ell 54, elapsed: 0.0006139278411865234
ell 53, elapsed: 0.0005781650543212891
ell 52, elapsed: 0.0005950927734375
ell 51, elapsed: 0.0005099773406982422
ell 50, elapsed: 0.0005788803100585938
ell 49, elapsed: 0.0004909038543701172
ell 48, elapsed: 0.0005970001220703125
ell 47, elapsed: 0.0005030632019042969
ell 46, elapsed: 0.0005860328674316406
ell 45, elapsed: 0.0005102157592773438
ell 44, elapsed: 0.0007419586181640625
ell 43, elapsed: 0.0005660057067871094
ell 42, elapsed: 0.00057220458984375
ell 41, elapsed: 0.0004978179931640625
ell 40, elapsed: 0.0005729198455810547
ell 39, elapsed: 0.0005049705505371094
ell 38, elapsed: 0.0005881786346435547
ell 37, elapsed: 0.0005109310150146484
ell 36, elapsed: 0.0005710124969482422
ell 35, elapsed: 0.0004911422729492188
ell 34, elapsed: 0.0005900859832763672
ell 33, elapsed: 0.0005099773406982422
ell 32, elapsed: 0.0005958080291748047
ell 31, elapsed: 0.00049591064453125
ell 30, elapsed: 0.0005872249603271484
ell 29, elapsed: 0.0005128383636474609
ell 28, elapsed: 0.0006082057952880859
ell 27, elapsed: 0.0005140304565429688
ell 26, elapsed: 0.0005857944488525391
ell 25, elapsed: 0.0005040168762207031
ell 24, elapsed: 0.0006659030914306641
ell 23, elapsed: 0.0005609989166259766
ell 22, elapsed: 0.0006630420684814453
ell 21, elapsed: 0.0005707740783691406
ell 20, elapsed: 0.000598907470703125
ell 19, elapsed: 0.0005660057067871094
ell 18, elapsed: 0.0005838871002197266
ell 17, elapsed: 0.0005209445953369141
ell 16, elapsed: 0.0006048679351806641
ell 15, elapsed: 0.0005350112915039062
ell 14, elapsed: 0.0006868839263916016
ell 13, elapsed: 0.0005240440368652344
ell 12, elapsed: 0.0005898475646972656
ell 11, elapsed: 0.0005209445953369141
ell 10, elapsed: 0.0005998611450195312
ell 9, elapsed: 0.0005180835723876953
ell 8, elapsed: 0.0006129741668701172
ell 7, elapsed: 0.0005230903625488281
ell 6, elapsed: 0.0006241798400878906
ell 5, elapsed: 0.0006489753723144531
ell 4, elapsed: 0.0006110668182373047
ell 3, elapsed: 0.0005221366882324219
ell 2, elapsed: 0.0005791187286376953
ell 1, elapsed: 0.0005290508270263672
ell 0, elapsed: 0.0006000995635986328
  3.163873 seconds (1.75 M allocations: 85.481 MiB, 2.14% gc time)
elapsed: 0.000637054443359375
step:          0.823919 sec (402.565 k allocations: 20.281 MB, 5.07% gc time)
swapping:      0.000564 sec (0 allocations: 0 byte, 0.0% gc time)
calc_Mellell!: 0.582375 sec (296.4 k allocations: 14.959 MB, 4.44% gc time)
  t0 :  0.0 sec (0 allocations: 0 byte, 0.0% gc time)
  tm2 : 0.0 sec (0 allocations: 0 byte, 0.0% gc time)
  tm2s: 0.0 sec (0 allocations: 0 byte, 0.0% gc time)
  tm4 : 0.0 sec (0 allocations: 0 byte, 0.0% gc time)
  tp2 : 0.0 sec (0 allocations: 0 byte, 0.0% gc time)
  tp2s: 0.0 sec (0 allocations: 0 byte, 0.0% gc time)
  tp4 : 0.0 sec (0 allocations: 0 byte, 0.0% gc time)
calc_wtdll!:   0.967075 sec (525.859 k allocations: 26.376 MB, 0.0% gc time)
calc_wljj!:    0.003311 sec (6 allocations: 96 byte, 0.0% gc time)
mult_prefac!:  0.0 sec (0 allocations: 0 byte, 0.0% gc time)
convert:       0.0 sec (0 allocations: 0 byte, 0.0% gc time)
write:         0.00518 sec (0 allocations: 0 byte, 0.0% gc time)
test_rand_2f1: 0.0 sec (0 allocations: 0 byte, 0.0% gc time)
Closing outfile out/Ml21-cache.bin...   0.000127 seconds
  1.047145 seconds (8.66 k allocations: 420.969 KiB)
make_phi():   0.012931 seconds (8.20 k allocations: 238.016 KiB)
  0.217263 seconds (121.69 k allocations: 5.901 MiB)
tskip:       2.5e-5 sec (0 allocations: 0 byte, 0.0% gc time)
tread:       0.00211 sec (19 allocations: 2.172 KB, 0.0% gc time)
tmultphi:    0.041243 sec (26.022 k allocations: 1.338 MB, 0.0% gc time)
tbrfft:      0.004293 sec (896 allocations: 42.0 KB, 0.0% gc time)
tmultprefac: 0.003828 sec (0 allocations: 0 byte, 0.0% gc time)
toutfunc:    0.165718 sec (94.102 k allocations: 4.45 MB, 0.0% gc time)
Testing R=1.1 ... passed
Calculating fmax: 
  dlrec    = 4
  dlrecRg1 = -4
  q=1.1, R=1.0:	  0.001649 seconds (4.00 k allocations: 300.375 KiB)

  0.001800 seconds (4.04 k allocations: 334.734 KiB)
ℓ = 1202
Δℓ = 4
ΔℓRg1 = -4
N = 1600
q = 1.1
kmin = 1.0e-5
kmax = 100000.00000000004
χ0 = 0.023029999999999995
RR = RR.tsv
ℓmax = ℓmax.bin
f21 = f21.bin
kmin = 1.0e-5
kmax = 100000.0
dlrec    = 4
dlrecRg1 = -4
Output size: 61465536 bytes = 0.05724424123764038 GiB
Output size: 51264 bytes = 4.774332046508789e-5 GiB
Reading 'out/F21EllCache'...   0.001013 seconds (267 allocations: 84.656 KiB)
ellmax: 1202
lmaxcache: 1202
fell[:,1,1] = Complex{Float64}[809.6031528389767 - 1.9829558194077161e-13im, 0.0 + 0.0im]
ell 1202, elapsed: 2.3126602172851562e-5
ell 1201, elapsed: 0.017766952514648438
ell 1200, elapsed: 0.00036215782165527344
ell 1199, elapsed: 0.0009491443634033203
ell 1198, elapsed: 0.0004911422729492188
ell 1197, elapsed: 0.0005059242248535156
ell 1196, elapsed: 0.00039005279541015625
ell 1195, elapsed: 0.0005970001220703125
ell 1194, elapsed: 0.0005021095275878906
ell 1193, elapsed: 0.001177072525024414
ell 1192, elapsed: 0.0004620552062988281
ell 1191, elapsed: 0.0006489753723144531
ell 1190, elapsed: 0.0003859996795654297
ell 1189, elapsed: 0.0006489753723144531
ell 1188, elapsed: 0.0006029605865478516
ell 1187, elapsed: 0.0015149116516113281
ell 1186, elapsed: 0.00039315223693847656
ell 1185, elapsed: 0.0004601478576660156
ell 1184, elapsed: 0.0003829002380371094
ell 1183, elapsed: 0.00045299530029296875
ell 1182, elapsed: 0.00038313865661621094
ell 1181, elapsed: 0.00045800209045410156
ell 1180, elapsed: 0.00092315673828125
ell 1179, elapsed: 0.00057220458984375
ell 1178, elapsed: 0.0005180835723876953
ell 1177, elapsed: 0.0005431175231933594
ell 1176, elapsed: 0.0005300045013427734
ell 1175, elapsed: 0.0005278587341308594
ell 1174, elapsed: 0.0011649131774902344
ell 1173, elapsed: 0.00047516822814941406
ell 1172, elapsed: 0.0003838539123535156
ell 1171, elapsed: 0.0004601478576660156
ell 1170, elapsed: 0.00038504600524902344
ell 1169, elapsed: 0.00045299530029296875
ell 1168, elapsed: 0.0003829002380371094
ell 1167, elapsed: 0.0009260177612304688
ell 1166, elapsed: 0.0004150867462158203
ell 1165, elapsed: 0.00045800209045410156
ell 1164, elapsed: 0.0003819465637207031
ell 1163, elapsed: 0.00045013427734375
ell 1162, elapsed: 0.0003809928894042969
ell 1161, elapsed: 0.0004520416259765625
ell 1160, elapsed: 0.0003800392150878906
ell 1159, elapsed: 0.0009181499481201172
ell 1158, elapsed: 0.00040793418884277344
ell 1157, elapsed: 0.0004551410675048828
ell 1156, elapsed: 0.0003809928894042969
ell 1155, elapsed: 0.0004508495330810547
ell 1154, elapsed: 0.0003819465637207031
ell 1153, elapsed: 0.0004470348358154297
ell 1152, elapsed: 0.0003809928894042969
ell 1151, elapsed: 0.0011138916015625
ell 1150, elapsed: 0.0005419254302978516
ell 1149, elapsed: 0.0005550384521484375
ell 1148, elapsed: 0.0005269050598144531
ell 1147, elapsed: 0.0005581378936767578
ell 1146, elapsed: 0.0005140304565429688
ell 1145, elapsed: 0.0011310577392578125
ell 1144, elapsed: 0.00039505958557128906
ell 1143, elapsed: 0.00046706199645996094
ell 1142, elapsed: 0.0003829002380371094
ell 1141, elapsed: 0.0004520416259765625
ell 1140, elapsed: 0.0003819465637207031
ell 1139, elapsed: 0.00044989585876464844
ell 1138, elapsed: 0.0007441043853759766
ell 1137, elapsed: 0.00049591064453125
ell 1136, elapsed: 0.0003781318664550781
ell 1135, elapsed: 0.0004589557647705078
ell 1134, elapsed: 0.0003809928894042969
ell 1133, elapsed: 0.0004611015319824219
ell 1132, elapsed: 0.0003821849822998047
ell 1131, elapsed: 0.0004558563232421875
ell 1130, elapsed: 0.0007939338684082031
ell 1129, elapsed: 0.0005130767822265625
ell 1128, elapsed: 0.0003819465637207031
ell 1127, elapsed: 0.0004611015319824219
ell 1126, elapsed: 0.0003800392150878906
ell 1125, elapsed: 0.00045108795166015625
ell 1124, elapsed: 0.0003809928894042969
ell 1123, elapsed: 0.00045299530029296875
ell 1122, elapsed: 0.016071081161499023
ell 1121, elapsed: 0.0005841255187988281
ell 1120, elapsed: 0.00039196014404296875
ell 1119, elapsed: 0.0004870891571044922
ell 1118, elapsed: 0.0003910064697265625
ell 1117, elapsed: 0.0004780292510986328
ell 1116, elapsed: 0.0003879070281982422
ell 1115, elapsed: 0.0004820823669433594
ell 1114, elapsed: 0.0003859996795654297
ell 1113, elapsed: 0.00048804283142089844
ell 1112, elapsed: 0.0003838539123535156
ell 1111, elapsed: 0.0004639625549316406
ell 1110, elapsed: 0.0003840923309326172
ell 1109, elapsed: 0.0006830692291259766
ell 1108, elapsed: 0.0005280971527099609
ell 1107, elapsed: 0.00047278404235839844
ell 1106, elapsed: 0.0003859996795654297
ell 1105, elapsed: 0.0005309581756591797
ell 1104, elapsed: 0.0003848075866699219
ell 1103, elapsed: 0.0004680156707763672
ell 1102, elapsed: 0.0003829002380371094
ell 1101, elapsed: 0.00047206878662109375
ell 1100, elapsed: 0.0003800392150878906
ell 1099, elapsed: 0.00046706199645996094
ell 1098, elapsed: 0.00038313865661621094
ell 1097, elapsed: 0.0004749298095703125
ell 1096, elapsed: 0.00040411949157714844
ell 1095, elapsed: 0.0004730224609375
ell 1094, elapsed: 0.0003829002380371094
ell 1093, elapsed: 0.00045800209045410156
ell 1092, elapsed: 0.0003809928894042969
ell 1091, elapsed: 0.0004749298095703125
ell 1090, elapsed: 0.00038886070251464844
ell 1089, elapsed: 0.0004680156707763672
ell 1088, elapsed: 0.0004420280456542969
ell 1087, elapsed: 0.0004780292510986328
ell 1086, elapsed: 0.0005249977111816406
ell 1085, elapsed: 0.0005910396575927734
ell 1084, elapsed: 0.0003809928894042969
ell 1083, elapsed: 0.0004668235778808594
ell 1082, elapsed: 0.0003800392150878906
ell 1081, elapsed: 0.00047016143798828125
ell 1080, elapsed: 0.0004010200500488281
ell 1079, elapsed: 0.00047898292541503906
ell 1078, elapsed: 0.00038886070251464844
ell 1077, elapsed: 0.0004680156707763672
ell 1076, elapsed: 0.0003829002380371094
ell 1075, elapsed: 0.0004680156707763672
ell 1074, elapsed: 0.0003840923309326172
ell 1073, elapsed: 0.0004699230194091797
ell 1072, elapsed: 0.00038504600524902344
ell 1071, elapsed: 0.0004889965057373047
ell 1070, elapsed: 0.00038909912109375
ell 1069, elapsed: 0.00047898292541503906
ell 1068, elapsed: 0.0003819465637207031
ell 1067, elapsed: 0.0004749298095703125
ell 1066, elapsed: 0.0003859996795654297
ell 1065, elapsed: 0.00046896934509277344
ell 1064, elapsed: 0.000392913818359375
ell 1063, elapsed: 0.0004999637603759766
ell 1062, elapsed: 0.0004010200500488281
ell 1061, elapsed: 0.00047707557678222656
ell 1060, elapsed: 0.00040912628173828125
ell 1059, elapsed: 0.0004849433898925781
ell 1058, elapsed: 0.0003941059112548828
ell 1057, elapsed: 0.00048089027404785156
ell 1056, elapsed: 0.0005338191986083984
ell 1055, elapsed: 0.0005700588226318359
ell 1054, elapsed: 0.0003879070281982422
ell 1053, elapsed: 0.00047397613525390625
ell 1052, elapsed: 0.0003859996795654297
ell 1051, elapsed: 0.00047206878662109375
ell 1050, elapsed: 0.00038909912109375
ell 1049, elapsed: 0.0004668235778808594
ell 1048, elapsed: 0.0003898143768310547
ell 1047, elapsed: 0.0004711151123046875
ell 1046, elapsed: 0.0004069805145263672
ell 1045, elapsed: 0.0004680156707763672
ell 1044, elapsed: 0.00038886070251464844
ell 1043, elapsed: 0.0004749298095703125
ell 1042, elapsed: 0.00038909912109375
ell 1041, elapsed: 0.0004630088806152344
ell 1040, elapsed: 0.00038695335388183594
ell 1039, elapsed: 0.0004649162292480469
ell 1038, elapsed: 0.00038814544677734375
ell 1037, elapsed: 0.0004858970642089844
ell 1036, elapsed: 0.0003960132598876953
ell 1035, elapsed: 0.00047087669372558594
ell 1034, elapsed: 0.0005609989166259766
ell 1033, elapsed: 0.0006480216979980469
ell 1032, elapsed: 0.0003910064697265625
ell 1031, elapsed: 0.0004730224609375
ell 1030, elapsed: 0.0004639625549316406
ell 1029, elapsed: 0.0004820823669433594
ell 1028, elapsed: 0.00038695335388183594
ell 1027, elapsed: 0.00047397613525390625
ell 1026, elapsed: 0.0013279914855957031
ell 1025, elapsed: 0.0004718303680419922
ell 1024, elapsed: 0.00038814544677734375
ell 1023, elapsed: 0.0004971027374267578
ell 1022, elapsed: 0.0003879070281982422
ell 1021, elapsed: 0.00046896934509277344
ell 1020, elapsed: 0.0003859996795654297
ell 1019, elapsed: 0.00045990943908691406
ell 1018, elapsed: 0.00038504600524902344
ell 1017, elapsed: 0.0004620552062988281
ell 1016, elapsed: 0.0003859996795654297
ell 1015, elapsed: 0.0004620552062988281
ell 1014, elapsed: 0.0003910064697265625
ell 1013, elapsed: 0.0004830360412597656
ell 1012, elapsed: 0.00038814544677734375
ell 1011, elapsed: 0.00046515464782714844
ell 1010, elapsed: 0.00038695335388183594
ell 1009, elapsed: 0.00047397613525390625
ell 1008, elapsed: 0.00038909912109375
ell 1007, elapsed: 0.0004639625549316406
ell 1006, elapsed: 0.0004978179931640625
ell 1005, elapsed: 0.000476837158203125
ell 1004, elapsed: 0.0003819465637207031
ell 1003, elapsed: 0.0004680156707763672
ell 1002, elapsed: 0.00038695335388183594
ell 1001, elapsed: 0.0004820823669433594
ell 1000, elapsed: 0.0003838539123535156
ell 999, elapsed: 0.0004680156707763672
ell 998, elapsed: 0.0003879070281982422
ell 997, elapsed: 0.0005850791931152344
ell 996, elapsed: 0.0003960132598876953
ell 995, elapsed: 0.00047397613525390625
ell 994, elapsed: 0.00039386749267578125
ell 993, elapsed: 0.00047588348388671875
ell 992, elapsed: 0.00039005279541015625
ell 991, elapsed: 0.0004780292510986328
ell 990, elapsed: 0.00038909912109375
ell 989, elapsed: 0.0005590915679931641
ell 988, elapsed: 0.00038909912109375
ell 987, elapsed: 0.0004780292510986328
ell 986, elapsed: 0.00038695335388183594
ell 985, elapsed: 0.00047206878662109375
ell 984, elapsed: 0.00039005279541015625
ell 983, elapsed: 0.0004911422729492188
ell 982, elapsed: 0.00039196014404296875
ell 981, elapsed: 0.0005810260772705078
ell 980, elapsed: 0.0003910064697265625
ell 979, elapsed: 0.00047397613525390625
ell 978, elapsed: 0.00038313865661621094
ell 977, elapsed: 0.0004799365997314453
ell 976, elapsed: 0.0003829002380371094
ell 975, elapsed: 0.00046706199645996094
ell 974, elapsed: 0.0003838539123535156
ell 973, elapsed: 0.0004699230194091797
ell 972, elapsed: 0.0004119873046875
ell 971, elapsed: 0.0004699230194091797
ell 970, elapsed: 0.00038909912109375
ell 969, elapsed: 0.0004839897155761719
ell 968, elapsed: 0.00038695335388183594
ell 967, elapsed: 0.00046706199645996094
ell 966, elapsed: 0.00038695335388183594
ell 965, elapsed: 0.0004649162292480469
ell 964, elapsed: 0.0003981590270996094
ell 963, elapsed: 0.00048089027404785156
ell 962, elapsed: 0.00039196014404296875
ell 961, elapsed: 0.0004718303680419922
ell 960, elapsed: 0.00038695335388183594
ell 959, elapsed: 0.00047016143798828125
ell 958, elapsed: 0.0003941059112548828
ell 957, elapsed: 0.00045990943908691406
ell 956, elapsed: 0.0003809928894042969
ell 955, elapsed: 0.0004830360412597656
ell 954, elapsed: 0.0003809928894042969
ell 953, elapsed: 0.000453948974609375
ell 952, elapsed: 0.00038313865661621094
ell 951, elapsed: 0.00045609474182128906
ell 950, elapsed: 0.00038504600524902344
ell 949, elapsed: 0.0004639625549316406
ell 948, elapsed: 0.0003809928894042969
ell 947, elapsed: 0.0004630088806152344
ell 946, elapsed: 0.0004010200500488281
ell 945, elapsed: 0.0004639625549316406
ell 944, elapsed: 0.00038313865661621094
ell 943, elapsed: 0.00045800209045410156
ell 942, elapsed: 0.0003800392150878906
ell 941, elapsed: 0.00045609474182128906
ell 940, elapsed: 0.0003819465637207031
ell 939, elapsed: 0.00045490264892578125
ell 938, elapsed: 0.00037980079650878906
ell 937, elapsed: 0.0004620552062988281
ell 936, elapsed: 0.0003609657287597656
ell 935, elapsed: 0.0004298686981201172
ell 934, elapsed: 0.0003578662872314453
ell 933, elapsed: 0.0004239082336425781
ell 932, elapsed: 0.00035691261291503906
ell 931, elapsed: 0.0004229545593261719
ell 930, elapsed: 0.0003571510314941406
ell 929, elapsed: 0.0004260540008544922
ell 928, elapsed: 0.0003750324249267578
ell 927, elapsed: 0.0004329681396484375
ell 926, elapsed: 0.0003609657287597656
ell 925, elapsed: 0.0004267692565917969
ell 924, elapsed: 0.000370025634765625
ell 923, elapsed: 0.00045299530029296875
ell 922, elapsed: 0.00037789344787597656
ell 921, elapsed: 0.0004520416259765625
ell 920, elapsed: 0.0003809928894042969
ell 919, elapsed: 0.00046896934509277344
ell 918, elapsed: 0.00038909912109375
ell 917, elapsed: 0.0004649162292480469
ell 916, elapsed: 0.0003821849822998047
ell 915, elapsed: 0.000453948974609375
ell 914, elapsed: 0.0003819465637207031
ell 913, elapsed: 0.00045418739318847656
ell 912, elapsed: 0.0003771781921386719
ell 911, elapsed: 0.00045418739318847656
ell 910, elapsed: 0.00040912628173828125
ell 909, elapsed: 0.0004718303680419922
ell 908, elapsed: 0.00038504600524902344
ell 907, elapsed: 0.0004589557647705078
ell 906, elapsed: 0.0003821849822998047
ell 905, elapsed: 0.00045299530029296875
ell 904, elapsed: 0.0003800392150878906
ell 903, elapsed: 0.0004699230194091797
ell 902, elapsed: 0.00038504600524902344
ell 901, elapsed: 0.00048804283142089844
ell 900, elapsed: 0.0003910064697265625
ell 899, elapsed: 0.000469207763671875
ell 898, elapsed: 0.0003859996795654297
ell 897, elapsed: 0.0004680156707763672
ell 896, elapsed: 0.0003859996795654297
ell 895, elapsed: 0.00047087669372558594
ell 894, elapsed: 0.00038695335388183594
ell 893, elapsed: 0.0006499290466308594
ell 892, elapsed: 0.0004699230194091797
ell 891, elapsed: 0.00047588348388671875
ell 890, elapsed: 0.0003960132598876953
ell 889, elapsed: 0.0004699230194091797
ell 888, elapsed: 0.0003848075866699219
ell 887, elapsed: 0.0004611015319824219
ell 886, elapsed: 0.0003910064697265625
ell 885, elapsed: 0.0004630088806152344
ell 884, elapsed: 0.00040912628173828125
ell 883, elapsed: 0.0004620552062988281
ell 882, elapsed: 0.00038504600524902344
ell 881, elapsed: 0.0004649162292480469
ell 880, elapsed: 0.0005729198455810547
ell 879, elapsed: 0.0005419254302978516
ell 878, elapsed: 0.00038695335388183594
ell 877, elapsed: 0.0004649162292480469
ell 876, elapsed: 0.00040602684020996094
ell 875, elapsed: 0.00047779083251953125
ell 874, elapsed: 0.0003819465637207031
ell 873, elapsed: 0.0004639625549316406
ell 872, elapsed: 0.0003838539123535156
ell 871, elapsed: 0.00046896934509277344
ell 870, elapsed: 0.00039505958557128906
ell 869, elapsed: 0.0004730224609375
ell 868, elapsed: 0.0004100799560546875
ell 867, elapsed: 0.00047397613525390625
ell 866, elapsed: 0.00044608116149902344
ell 865, elapsed: 0.0005140304565429688
ell 864, elapsed: 0.0005288124084472656
ell 863, elapsed: 0.0006868839263916016
ell 862, elapsed: 0.00039005279541015625
ell 861, elapsed: 0.0004558563232421875
ell 860, elapsed: 0.0012729167938232422
ell 859, elapsed: 0.0007710456848144531
ell 858, elapsed: 0.0006999969482421875
ell 857, elapsed: 0.0007569789886474609
ell 856, elapsed: 0.0005309581756591797
ell 855, elapsed: 0.0004780292510986328
ell 854, elapsed: 0.00039696693420410156
ell 853, elapsed: 0.00047397613525390625
ell 852, elapsed: 0.00038313865661621094
ell 851, elapsed: 0.0004680156707763672
ell 850, elapsed: 0.0003859996795654297
ell 849, elapsed: 0.00047016143798828125
ell 848, elapsed: 0.00039005279541015625
ell 847, elapsed: 0.0004930496215820312
ell 846, elapsed: 0.00038814544677734375
ell 845, elapsed: 0.0004718303680419922
ell 844, elapsed: 0.00038504600524902344
ell 843, elapsed: 0.00047588348388671875
ell 842, elapsed: 0.0003871917724609375
ell 841, elapsed: 0.0004649162292480469
ell 840, elapsed: 0.0003838539123535156
ell 839, elapsed: 0.0004839897155761719
ell 838, elapsed: 0.0003879070281982422
ell 837, elapsed: 0.0004699230194091797
ell 836, elapsed: 0.0003859996795654297
ell 835, elapsed: 0.0004730224609375
ell 834, elapsed: 0.0003800392150878906
ell 833, elapsed: 0.0004630088806152344
ell 832, elapsed: 0.00038886070251464844
ell 831, elapsed: 0.00046896934509277344
ell 830, elapsed: 0.00043392181396484375
ell 829, elapsed: 0.0004799365997314453
ell 828, elapsed: 0.0003879070281982422
ell 827, elapsed: 0.0004680156707763672
ell 826, elapsed: 0.0003840923309326172
ell 825, elapsed: 0.0004680156707763672
ell 824, elapsed: 0.0003871917724609375
ell 823, elapsed: 0.0004620552062988281
ell 822, elapsed: 0.00038695335388183594
ell 821, elapsed: 0.0005311965942382812
ell 820, elapsed: 0.00039196014404296875
ell 819, elapsed: 0.00047516822814941406
ell 818, elapsed: 0.00039386749267578125
ell 817, elapsed: 0.00047206878662109375
ell 816, elapsed: 0.0003859996795654297
ell 815, elapsed: 0.0004661083221435547
ell 814, elapsed: 0.0003829002380371094
ell 813, elapsed: 0.0006039142608642578
ell 812, elapsed: 0.00038886070251464844
ell 811, elapsed: 0.0004630088806152344
ell 810, elapsed: 0.0003800392150878906
ell 809, elapsed: 0.00045609474182128906
ell 808, elapsed: 0.0003819465637207031
ell 807, elapsed: 0.0004668235778808594
ell 806, elapsed: 0.0003809928894042969
ell 805, elapsed: 0.00045990943908691406
ell 804, elapsed: 0.00039696693420410156
ell 803, elapsed: 0.00045990943908691406
ell 802, elapsed: 0.0004220008850097656
ell 801, elapsed: 0.0005099773406982422
ell 800, elapsed: 0.0005500316619873047
ell 799, elapsed: 0.0005490779876708984
ell 798, elapsed: 0.0003819465637207031
ell 797, elapsed: 0.0004718303680419922
ell 796, elapsed: 0.0004069805145263672
ell 795, elapsed: 0.0004699230194091797
ell 794, elapsed: 0.0003859996795654297
ell 793, elapsed: 0.0004699230194091797
ell 792, elapsed: 0.00038909912109375
ell 791, elapsed: 0.0004639625549316406
ell 790, elapsed: 0.00038814544677734375
ell 789, elapsed: 0.0004661083221435547
ell 788, elapsed: 0.0004000663757324219
ell 787, elapsed: 0.0004761219024658203
ell 786, elapsed: 0.0003859996795654297
ell 785, elapsed: 0.0004680156707763672
ell 784, elapsed: 0.0003838539123535156
ell 783, elapsed: 0.0004680156707763672
ell 782, elapsed: 0.0003879070281982422
ell 781, elapsed: 0.00046706199645996094
ell 780, elapsed: 0.00038504600524902344
ell 779, elapsed: 0.0004839897155761719
ell 778, elapsed: 0.0003781318664550781
ell 777, elapsed: 0.00046515464782714844
ell 776, elapsed: 0.0005359649658203125
ell 775, elapsed: 0.0005609989166259766
ell 774, elapsed: 0.00038504600524902344
ell 773, elapsed: 0.00047016143798828125
ell 772, elapsed: 0.0003819465637207031
ell 771, elapsed: 0.0004858970642089844
ell 770, elapsed: 0.0003840923309326172
ell 769, elapsed: 0.0004649162292480469
ell 768, elapsed: 0.0003840923309326172
ell 767, elapsed: 0.0004680156707763672
ell 766, elapsed: 0.0003838539123535156
ell 765, elapsed: 0.0004630088806152344
ell 764, elapsed: 0.0003790855407714844
ell 763, elapsed: 0.0004639625549316406
ell 762, elapsed: 0.0004029273986816406
ell 761, elapsed: 0.00046896934509277344
ell 760, elapsed: 0.0003840923309326172
ell 759, elapsed: 0.00045800209045410156
ell 758, elapsed: 0.00038123130798339844
ell 757, elapsed: 0.00046706199645996094
ell 756, elapsed: 0.0003819465637207031
ell 755, elapsed: 0.0004611015319824219
ell 754, elapsed: 0.0003769397735595703
ell 753, elapsed: 0.00047898292541503906
ell 752, elapsed: 0.0004608631134033203
ell 751, elapsed: 0.0006539821624755859
ell 750, elapsed: 0.0003809928894042969
ell 749, elapsed: 0.0004699230194091797
ell 748, elapsed: 0.00038504600524902344
ell 747, elapsed: 0.00046181678771972656
ell 746, elapsed: 0.00038504600524902344
ell 745, elapsed: 0.0004870891571044922
ell 744, elapsed: 0.00038695335388183594
ell 743, elapsed: 0.00046706199645996094
ell 742, elapsed: 0.00038504600524902344
ell 741, elapsed: 0.00046706199645996094
ell 740, elapsed: 0.0003819465637207031
ell 739, elapsed: 0.0004639625549316406
ell 738, elapsed: 0.0003840923309326172
ell 737, elapsed: 0.00048089027404785156
ell 736, elapsed: 0.00038695335388183594
ell 735, elapsed: 0.00046896934509277344
ell 734, elapsed: 0.00038886070251464844
ell 733, elapsed: 0.0004639625549316406
ell 732, elapsed: 0.00038313865661621094
ell 731, elapsed: 0.0004661083221435547
ell 730, elapsed: 0.0003800392150878906
ell 729, elapsed: 0.0004589557647705078
ell 728, elapsed: 0.0005638599395751953
ell 727, elapsed: 0.0006461143493652344
ell 726, elapsed: 0.00038909912109375
ell 725, elapsed: 0.00046896934509277344
ell 724, elapsed: 0.0003829002380371094
ell 723, elapsed: 0.0004642009735107422
ell 722, elapsed: 0.0003829002380371094
ell 721, elapsed: 0.00047206878662109375
ell 720, elapsed: 0.0004100799560546875
ell 719, elapsed: 0.0004620552062988281
ell 718, elapsed: 0.00038504600524902344
ell 717, elapsed: 0.00046706199645996094
ell 716, elapsed: 0.0003809928894042969
ell 715, elapsed: 0.00047016143798828125
ell 714, elapsed: 0.0003859996795654297
ell 713, elapsed: 0.00046181678771972656
ell 712, elapsed: 0.0003879070281982422
ell 711, elapsed: 0.0004839897155761719
ell 710, elapsed: 0.00038504600524902344
ell 709, elapsed: 0.00046181678771972656
ell 708, elapsed: 0.0003821849822998047
ell 707, elapsed: 0.0004677772521972656
ell 706, elapsed: 0.0003769397735595703
ell 705, elapsed: 0.00046181678771972656
ell 704, elapsed: 0.0003859996795654297
ell 703, elapsed: 0.0004649162292480469
ell 702, elapsed: 0.00039196014404296875
ell 701, elapsed: 0.00047397613525390625
ell 700, elapsed: 0.0003781318664550781
ell 699, elapsed: 0.00045299530029296875
ell 698, elapsed: 0.00045800209045410156
ell 697, elapsed: 0.0006289482116699219
ell 696, elapsed: 0.0003769397735595703
ell 695, elapsed: 0.0006480216979980469
ell 694, elapsed: 0.0004391670227050781
ell 693, elapsed: 0.0004620552062988281
ell 692, elapsed: 0.0003871917724609375
ell 691, elapsed: 0.0004799365997314453
ell 690, elapsed: 0.0003829002380371094
ell 689, elapsed: 0.0006301403045654297
ell 688, elapsed: 0.0005290508270263672
ell 687, elapsed: 0.0004990100860595703
ell 686, elapsed: 0.0005221366882324219
ell 685, elapsed: 0.0007557868957519531
ell 684, elapsed: 0.000637054443359375
ell 683, elapsed: 0.0005540847778320312
ell 682, elapsed: 0.0003838539123535156
ell 681, elapsed: 0.0004839897155761719
ell 680, elapsed: 0.00040984153747558594
ell 679, elapsed: 0.00047206878662109375
ell 678, elapsed: 0.0003840923309326172
ell 677, elapsed: 0.0004649162292480469
ell 676, elapsed: 0.00038886070251464844
ell 675, elapsed: 0.00046896934509277344
ell 674, elapsed: 0.0003859996795654297
ell 673, elapsed: 0.0004630088806152344
ell 672, elapsed: 0.0003819465637207031
ell 671, elapsed: 0.0004868507385253906
ell 670, elapsed: 0.0003840923309326172
ell 669, elapsed: 0.0004630088806152344
ell 668, elapsed: 0.0003838539123535156
ell 667, elapsed: 0.00047397613525390625
ell 666, elapsed: 0.0003879070281982422
ell 665, elapsed: 0.00046706199645996094
ell 664, elapsed: 0.00039005279541015625
ell 663, elapsed: 0.00049591064453125
ell 662, elapsed: 0.00038886070251464844
ell 661, elapsed: 0.00046896934509277344
ell 660, elapsed: 0.0003829002380371094
ell 659, elapsed: 0.0004658699035644531
ell 658, elapsed: 0.0003829002380371094
ell 657, elapsed: 0.00045800209045410156
ell 656, elapsed: 0.00038504600524902344
ell 655, elapsed: 0.0004658699035644531
ell 654, elapsed: 0.00040411949157714844
ell 653, elapsed: 0.0004620552062988281
ell 652, elapsed: 0.0003819465637207031
ell 651, elapsed: 0.00045418739318847656
ell 650, elapsed: 0.0003859996795654297
ell 649, elapsed: 0.0004608631134033203
ell 648, elapsed: 0.00037789344787597656
ell 647, elapsed: 0.00045108795166015625
ell 646, elapsed: 0.0003859996795654297
ell 645, elapsed: 0.0004818439483642578
ell 644, elapsed: 0.00038814544677734375
ell 643, elapsed: 0.0004761219024658203
ell 642, elapsed: 0.0003809928894042969
ell 641, elapsed: 0.0004649162292480469
ell 640, elapsed: 0.0003829002380371094
ell 639, elapsed: 0.0004620552062988281
ell 638, elapsed: 0.00039005279541015625
ell 637, elapsed: 0.0004830360412597656
ell 636, elapsed: 0.0003879070281982422
ell 635, elapsed: 0.0004658699035644531
ell 634, elapsed: 0.00039505958557128906
ell 633, elapsed: 0.00046706199645996094
ell 632, elapsed: 0.00038909912109375
ell 631, elapsed: 0.00047206878662109375
ell 630, elapsed: 0.00038695335388183594
ell 629, elapsed: 0.0004780292510986328
ell 628, elapsed: 0.00039887428283691406
ell 627, elapsed: 0.0006260871887207031
ell 626, elapsed: 0.0004608631134033203
ell 625, elapsed: 0.0004699230194091797
ell 624, elapsed: 0.00039005279541015625
ell 623, elapsed: 0.00046706199645996094
ell 622, elapsed: 0.0004019737243652344
ell 621, elapsed: 0.00045800209045410156
ell 620, elapsed: 0.0004100799560546875
ell 619, elapsed: 0.0004611015319824219
ell 618, elapsed: 0.00037288665771484375
ell 617, elapsed: 0.0004839897155761719
ell 616, elapsed: 0.0004401206970214844
ell 615, elapsed: 0.0006101131439208984
ell 614, elapsed: 0.0005960464477539062
ell 613, elapsed: 0.00047588348388671875
ell 612, elapsed: 0.0004019737243652344
ell 611, elapsed: 0.0004639625549316406
ell 610, elapsed: 0.0003788471221923828
ell 609, elapsed: 0.00047016143798828125
ell 608, elapsed: 0.0003819465637207031
ell 607, elapsed: 0.0004639625549316406
ell 606, elapsed: 0.0003859996795654297
ell 605, elapsed: 0.00046706199645996094
ell 604, elapsed: 0.0003821849822998047
ell 603, elapsed: 0.0004889965057373047
ell 602, elapsed: 0.0003848075866699219
ell 601, elapsed: 0.0004639625549316406
ell 600, elapsed: 0.00038504600524902344
ell 599, elapsed: 0.0004639625549316406
ell 598, elapsed: 0.0003790855407714844
ell 597, elapsed: 0.00046706199645996094
ell 596, elapsed: 0.0003829002380371094
ell 595, elapsed: 0.00047898292541503906
ell 594, elapsed: 0.00038695335388183594
ell 593, elapsed: 0.0004761219024658203
ell 592, elapsed: 0.0003859996795654297
ell 591, elapsed: 0.0004608631134033203
ell 590, elapsed: 0.00038504600524902344
ell 589, elapsed: 0.0004649162292480469
ell 588, elapsed: 0.0003840923309326172
ell 587, elapsed: 0.00046515464782714844
ell 586, elapsed: 0.0004119873046875
ell 585, elapsed: 0.0004639625549316406
ell 584, elapsed: 0.0003809928894042969
ell 583, elapsed: 0.0004649162292480469
ell 582, elapsed: 0.0003829002380371094
ell 581, elapsed: 0.0004611015319824219
ell 580, elapsed: 0.0003829002380371094
ell 579, elapsed: 0.0004601478576660156
ell 578, elapsed: 0.00038695335388183594
ell 577, elapsed: 0.0004839897155761719
ell 576, elapsed: 0.0003859996795654297
ell 575, elapsed: 0.0004649162292480469
ell 574, elapsed: 0.0003819465637207031
ell 573, elapsed: 0.0004620552062988281
ell 572, elapsed: 0.0003821849822998047
ell 571, elapsed: 0.00045800209045410156
ell 570, elapsed: 0.0003769397735595703
ell 569, elapsed: 0.0004699230194091797
ell 568, elapsed: 0.00043582916259765625
ell 567, elapsed: 0.0006699562072753906
ell 566, elapsed: 0.0004401206970214844
ell 565, elapsed: 0.0004649162292480469
ell 564, elapsed: 0.0003809928894042969
ell 563, elapsed: 0.0004668235778808594
ell 562, elapsed: 0.0003829002380371094
ell 561, elapsed: 0.0004661083221435547
ell 560, elapsed: 0.0004069805145263672
ell 559, elapsed: 0.0004918575286865234
ell 558, elapsed: 0.00039196014404296875
ell 557, elapsed: 0.0004820823669433594
ell 556, elapsed: 0.0003800392150878906
ell 555, elapsed: 0.0004661083221435547
ell 554, elapsed: 0.0003840923309326172
ell 553, elapsed: 0.0004680156707763672
ell 552, elapsed: 0.0004410743713378906
ell 551, elapsed: 0.000476837158203125
ell 550, elapsed: 0.00038886070251464844
ell 549, elapsed: 0.0004661083221435547
ell 548, elapsed: 0.0003800392150878906
ell 547, elapsed: 0.00047087669372558594
ell 546, elapsed: 0.00038504600524902344
ell 545, elapsed: 0.0004668235778808594
ell 544, elapsed: 0.0003809928894042969
ell 543, elapsed: 0.0004839897155761719
ell 542, elapsed: 0.0003859996795654297
ell 541, elapsed: 0.0004639625549316406
ell 540, elapsed: 0.00038313865661621094
ell 539, elapsed: 0.0004680156707763672
ell 538, elapsed: 0.00038504600524902344
ell 537, elapsed: 0.0004649162292480469
ell 536, elapsed: 0.00038814544677734375
ell 535, elapsed: 0.00047087669372558594
ell 534, elapsed: 0.0003859996795654297
ell 533, elapsed: 0.0004680156707763672
ell 532, elapsed: 0.00038814544677734375
ell 531, elapsed: 0.0004699230194091797
ell 530, elapsed: 0.0003788471221923828
ell 529, elapsed: 0.0004630088806152344
ell 528, elapsed: 0.0003809928894042969
ell 527, elapsed: 0.0004620552062988281
ell 526, elapsed: 0.00041294097900390625
ell 525, elapsed: 0.00046706199645996094
ell 524, elapsed: 0.0003879070281982422
ell 523, elapsed: 0.0005629062652587891
ell 522, elapsed: 0.0003819465637207031
ell 521, elapsed: 0.0005249977111816406
ell 520, elapsed: 0.0003859996795654297
ell 519, elapsed: 0.00046515464782714844
ell 518, elapsed: 0.0007979869842529297
ell 517, elapsed: 0.000492095947265625
ell 516, elapsed: 0.00038504600524902344
ell 515, elapsed: 0.00047016143798828125
ell 514, elapsed: 0.0003838539123535156
ell 513, elapsed: 0.0004730224609375
ell 512, elapsed: 0.0003819465637207031
ell 511, elapsed: 0.0004761219024658203
ell 510, elapsed: 0.0004029273986816406
ell 509, elapsed: 0.0004818439483642578
ell 508, elapsed: 0.0003859996795654297
ell 507, elapsed: 0.0004680156707763672
ell 506, elapsed: 0.0003840923309326172
ell 505, elapsed: 0.0004658699035644531
ell 504, elapsed: 0.0003809928894042969
ell 503, elapsed: 0.00046706199645996094
ell 502, elapsed: 0.00038695335388183594
ell 501, elapsed: 0.0006198883056640625
ell 500, elapsed: 0.00047087669372558594
ell 499, elapsed: 0.0004677772521972656
ell 498, elapsed: 0.0003840923309326172
ell 497, elapsed: 0.0004589557647705078
ell 496, elapsed: 0.000392913818359375
ell 495, elapsed: 0.00047206878662109375
ell 494, elapsed: 0.0003819465637207031
ell 493, elapsed: 0.00047397613525390625
ell 492, elapsed: 0.0003788471221923828
ell 491, elapsed: 0.0004620552062988281
ell 490, elapsed: 0.0004780292510986328
ell 489, elapsed: 0.0006451606750488281
ell 488, elapsed: 0.00039196014404296875
ell 487, elapsed: 0.0006749629974365234
ell 486, elapsed: 0.0005121231079101562
ell 485, elapsed: 0.00048804283142089844
ell 484, elapsed: 0.0003879070281982422
ell 483, elapsed: 0.00047016143798828125
ell 482, elapsed: 0.00038504600524902344
ell 481, elapsed: 0.0004699230194091797
ell 480, elapsed: 0.00038504600524902344
ell 479, elapsed: 0.0004680156707763672
ell 478, elapsed: 0.0003829002380371094
ell 477, elapsed: 0.0004870891571044922
ell 476, elapsed: 0.0003840923309326172
ell 475, elapsed: 0.0004680156707763672
ell 474, elapsed: 0.0003848075866699219
ell 473, elapsed: 0.0004642009735107422
ell 472, elapsed: 0.0003829002380371094
ell 471, elapsed: 0.0004649162292480469
ell 470, elapsed: 0.0003840923309326172
ell 469, elapsed: 0.0004680156707763672
ell 468, elapsed: 0.0003979206085205078
ell 467, elapsed: 0.00046706199645996094
ell 466, elapsed: 0.0003771781921386719
ell 465, elapsed: 0.0005130767822265625
ell 464, elapsed: 0.000579833984375
ell 463, elapsed: 0.0004780292510986328
ell 462, elapsed: 0.00038504600524902344
ell 461, elapsed: 0.0004630088806152344
ell 460, elapsed: 0.0004019737243652344
ell 459, elapsed: 0.0004699230194091797
ell 458, elapsed: 0.0003859996795654297
ell 457, elapsed: 0.0004699230194091797
ell 456, elapsed: 0.0003819465637207031
ell 455, elapsed: 0.0004730224609375
ell 454, elapsed: 0.0003829002380371094
ell 453, elapsed: 0.0004680156707763672
ell 452, elapsed: 0.0003809928894042969
ell 451, elapsed: 0.0004849433898925781
ell 450, elapsed: 0.00038313865661621094
ell 449, elapsed: 0.0004658699035644531
ell 448, elapsed: 0.0003879070281982422
ell 447, elapsed: 0.0004658699035644531
ell 446, elapsed: 0.00038313865661621094
ell 445, elapsed: 0.0004668235778808594
ell 444, elapsed: 0.00037789344787597656
ell 443, elapsed: 0.0004811286926269531
ell 442, elapsed: 0.0003879070281982422
ell 441, elapsed: 0.0004730224609375
ell 440, elapsed: 0.00038909912109375
ell 439, elapsed: 0.00048613548278808594
ell 438, elapsed: 0.0003960132598876953
ell 437, elapsed: 0.0004639625549316406
ell 436, elapsed: 0.0003838539123535156
ell 435, elapsed: 0.0004780292510986328
ell 434, elapsed: 0.0003991127014160156
ell 433, elapsed: 0.0004589557647705078
ell 432, elapsed: 0.0003829002380371094
ell 431, elapsed: 0.0004680156707763672
ell 430, elapsed: 0.0003809928894042969
ell 429, elapsed: 0.00046515464782714844
ell 428, elapsed: 0.00038313865661621094
ell 427, elapsed: 0.00046515464782714844
ell 426, elapsed: 0.0003838539123535156
ell 425, elapsed: 0.0004849433898925781
ell 424, elapsed: 0.0003829002380371094
ell 423, elapsed: 0.0004649162292480469
ell 422, elapsed: 0.0003800392150878906
ell 421, elapsed: 0.0004608631134033203
ell 420, elapsed: 0.0003790855407714844
ell 419, elapsed: 0.0004677772521972656
ell 418, elapsed: 0.0003829002380371094
ell 417, elapsed: 0.0004749298095703125
ell 416, elapsed: 0.0004010200500488281
ell 415, elapsed: 0.0004680156707763672
ell 414, elapsed: 0.0003840923309326172
ell 413, elapsed: 0.00046181678771972656
ell 412, elapsed: 0.0003781318664550781
ell 411, elapsed: 0.0004620552062988281
ell 410, elapsed: 0.0003819465637207031
ell 409, elapsed: 0.0004589557647705078
ell 408, elapsed: 0.0004010200500488281
ell 407, elapsed: 0.00047206878662109375
ell 406, elapsed: 0.0003809928894042969
ell 405, elapsed: 0.0004639625549316406
ell 404, elapsed: 0.0003788471221923828
ell 403, elapsed: 0.0004620552062988281
ell 402, elapsed: 0.00038504600524902344
ell 401, elapsed: 0.0004649162292480469
ell 400, elapsed: 0.0003838539123535156
ell 399, elapsed: 0.0004870891571044922
ell 398, elapsed: 0.0003800392150878906
ell 397, elapsed: 0.0004601478576660156
ell 396, elapsed: 0.0003829002380371094
ell 395, elapsed: 0.0004620552062988281
ell 394, elapsed: 0.0003859996795654297
ell 393, elapsed: 0.00046706199645996094
ell 392, elapsed: 0.0003819465637207031
ell 391, elapsed: 0.0004639625549316406
ell 390, elapsed: 0.0004019737243652344
ell 389, elapsed: 0.00046896934509277344
ell 388, elapsed: 0.00038695335388183594
ell 387, elapsed: 0.0004661083221435547
ell 386, elapsed: 0.0003829002380371094
ell 385, elapsed: 0.0004658699035644531
ell 384, elapsed: 0.0003840923309326172
ell 383, elapsed: 0.0004761219024658203
ell 382, elapsed: 0.0004379749298095703
ell 381, elapsed: 0.00047898292541503906
ell 380, elapsed: 0.0003800392150878906
ell 379, elapsed: 0.0004630088806152344
ell 378, elapsed: 0.00037789344787597656
ell 377, elapsed: 0.00045609474182128906
ell 376, elapsed: 0.00037980079650878906
ell 375, elapsed: 0.00046896934509277344
ell 374, elapsed: 0.0003800392150878906
ell 373, elapsed: 0.000492095947265625
ell 372, elapsed: 0.0003819465637207031
ell 371, elapsed: 0.00047206878662109375
ell 370, elapsed: 0.0003879070281982422
ell 369, elapsed: 0.00047206878662109375
ell 368, elapsed: 0.0003859996795654297
ell 367, elapsed: 0.0004749298095703125
ell 366, elapsed: 0.0003871917724609375
ell 365, elapsed: 0.00047206878662109375
ell 364, elapsed: 0.00040221214294433594
ell 363, elapsed: 0.00048804283142089844
ell 362, elapsed: 0.0003921985626220703
ell 361, elapsed: 0.0004878044128417969
ell 360, elapsed: 0.0004000663757324219
ell 359, elapsed: 0.0004870891571044922
ell 358, elapsed: 0.00039386749267578125
ell 357, elapsed: 0.00047206878662109375
ell 356, elapsed: 0.00040411949157714844
ell 355, elapsed: 0.0004680156707763672
ell 354, elapsed: 0.00038504600524902344
ell 353, elapsed: 0.0004699230194091797
ell 352, elapsed: 0.0003859996795654297
ell 351, elapsed: 0.00046706199645996094
ell 350, elapsed: 0.00038504600524902344
ell 349, elapsed: 0.0004699230194091797
ell 348, elapsed: 0.0003829002380371094
ell 347, elapsed: 0.0004830360412597656
ell 346, elapsed: 0.0003840923309326172
ell 345, elapsed: 0.00046706199645996094
ell 344, elapsed: 0.0003879070281982422
ell 343, elapsed: 0.0004668235778808594
ell 342, elapsed: 0.00038504600524902344
ell 341, elapsed: 0.0004661083221435547
ell 340, elapsed: 0.0003840923309326172
ell 339, elapsed: 0.0004680156707763672
ell 338, elapsed: 0.00038814544677734375
ell 337, elapsed: 0.00047588348388671875
ell 336, elapsed: 0.00038313865661621094
ell 335, elapsed: 0.0004630088806152344
ell 334, elapsed: 0.0003829002380371094
ell 333, elapsed: 0.0005841255187988281
ell 332, elapsed: 0.0004971027374267578
ell 331, elapsed: 0.00046896934509277344
ell 330, elapsed: 0.0004019737243652344
ell 329, elapsed: 0.0004680156707763672
ell 328, elapsed: 0.0003859996795654297
ell 327, elapsed: 0.00047206878662109375
ell 326, elapsed: 0.0003840923309326172
ell 325, elapsed: 0.00046896934509277344
ell 324, elapsed: 0.00038504600524902344
ell 323, elapsed: 0.0004699230194091797
ell 322, elapsed: 0.0004019737243652344
ell 321, elapsed: 0.0004799365997314453
ell 320, elapsed: 0.0003921985626220703
ell 319, elapsed: 0.00047397613525390625
ell 318, elapsed: 0.0003859996795654297
ell 317, elapsed: 0.0004761219024658203
ell 316, elapsed: 0.0003819465637207031
ell 315, elapsed: 0.0004680156707763672
ell 314, elapsed: 0.0003840923309326172
ell 313, elapsed: 0.00049591064453125
ell 312, elapsed: 0.00038504600524902344
ell 311, elapsed: 0.0004680156707763672
ell 310, elapsed: 0.00038909912109375
ell 309, elapsed: 0.00047397613525390625
ell 308, elapsed: 0.0003821849822998047
ell 307, elapsed: 0.0004711151123046875
ell 306, elapsed: 0.00038504600524902344
ell 305, elapsed: 0.0004658699035644531
ell 304, elapsed: 0.0007290840148925781
ell 303, elapsed: 0.0005059242248535156
ell 302, elapsed: 0.0003879070281982422
ell 301, elapsed: 0.0004680156707763672
ell 300, elapsed: 0.00038504600524902344
ell 299, elapsed: 0.0004677772521972656
ell 298, elapsed: 0.0003879070281982422
ell 297, elapsed: 0.0004930496215820312
ell 296, elapsed: 0.0003840923309326172
ell 295, elapsed: 0.0004749298095703125
ell 294, elapsed: 0.00038886070251464844
ell 293, elapsed: 0.00047016143798828125
ell 292, elapsed: 0.00038695335388183594
ell 291, elapsed: 0.00046706199645996094
ell 290, elapsed: 0.0003840923309326172
ell 289, elapsed: 0.00046896934509277344
ell 288, elapsed: 0.00040602684020996094
ell 287, elapsed: 0.00047516822814941406
ell 286, elapsed: 0.0003829002380371094
ell 285, elapsed: 0.0006101131439208984
ell 284, elapsed: 0.00047206878662109375
ell 283, elapsed: 0.0004658699035644531
ell 282, elapsed: 0.00038695335388183594
ell 281, elapsed: 0.00047707557678222656
ell 280, elapsed: 0.00044417381286621094
ell 279, elapsed: 0.0004668235778808594
ell 278, elapsed: 0.00038695335388183594
ell 277, elapsed: 0.0004680156707763672
ell 276, elapsed: 0.0003921985626220703
ell 275, elapsed: 0.00048804283142089844
ell 274, elapsed: 0.0003859996795654297
ell 273, elapsed: 0.00047516822814941406
ell 272, elapsed: 0.0003809928894042969
ell 271, elapsed: 0.0004889965057373047
ell 270, elapsed: 0.00038909912109375
ell 269, elapsed: 0.00046896934509277344
ell 268, elapsed: 0.0003859996795654297
ell 267, elapsed: 0.0004699230194091797
ell 266, elapsed: 0.0003848075866699219
ell 265, elapsed: 0.0004699230194091797
ell 264, elapsed: 0.0003859996795654297
ell 263, elapsed: 0.0004980564117431641
ell 262, elapsed: 0.00038909912109375
ell 261, elapsed: 0.0004730224609375
ell 260, elapsed: 0.0003879070281982422
ell 259, elapsed: 0.00047707557678222656
ell 258, elapsed: 0.00038695335388183594
ell 257, elapsed: 0.0004711151123046875
ell 256, elapsed: 0.00038504600524902344
ell 255, elapsed: 0.00047397613525390625
ell 254, elapsed: 0.0003979206085205078
ell 253, elapsed: 0.0004661083221435547
ell 252, elapsed: 0.0004968643188476562
ell 251, elapsed: 0.0006158351898193359
ell 250, elapsed: 0.0003879070281982422
ell 249, elapsed: 0.00047087669372558594
ell 248, elapsed: 0.0003879070281982422
ell 247, elapsed: 0.0004742145538330078
ell 246, elapsed: 0.0004229545593261719
ell 245, elapsed: 0.0004811286926269531
ell 244, elapsed: 0.0003879070281982422
ell 243, elapsed: 0.0004799365997314453
ell 242, elapsed: 0.00038504600524902344
ell 241, elapsed: 0.0004699230194091797
ell 240, elapsed: 0.0003910064697265625
ell 239, elapsed: 0.0004799365997314453
ell 238, elapsed: 0.00039005279541015625
ell 237, elapsed: 0.0004858970642089844
ell 236, elapsed: 0.0003910064697265625
ell 235, elapsed: 0.0006270408630371094
ell 234, elapsed: 0.00045990943908691406
ell 233, elapsed: 0.0004730224609375
ell 232, elapsed: 0.0005350112915039062
ell 231, elapsed: 0.0006411075592041016
ell 230, elapsed: 0.00047898292541503906
ell 229, elapsed: 0.00047087669372558594
ell 228, elapsed: 0.0003871917724609375
ell 227, elapsed: 0.0004680156707763672
ell 226, elapsed: 0.00038695335388183594
ell 225, elapsed: 0.00047087669372558594
ell 224, elapsed: 0.00038313865661621094
ell 223, elapsed: 0.0004630088806152344
ell 222, elapsed: 0.0003840923309326172
ell 221, elapsed: 0.0004761219024658203
ell 220, elapsed: 0.00038814544677734375
ell 219, elapsed: 0.00047588348388671875
ell 218, elapsed: 0.0003941059112548828
ell 217, elapsed: 0.0004680156707763672
ell 216, elapsed: 0.0003819465637207031
ell 215, elapsed: 0.0004642009735107422
ell 214, elapsed: 0.0003809928894042969
ell 213, elapsed: 0.000637054443359375
ell 212, elapsed: 0.000637054443359375
ell 211, elapsed: 0.00047898292541503906
ell 210, elapsed: 0.0003871917724609375
ell 209, elapsed: 0.0004749298095703125
ell 208, elapsed: 0.000392913818359375
ell 207, elapsed: 0.0004830360412597656
ell 206, elapsed: 0.0004057884216308594
ell 205, elapsed: 0.0006840229034423828
ell 204, elapsed: 0.0004851818084716797
ell 203, elapsed: 0.0004889965057373047
ell 202, elapsed: 0.0005328655242919922
ell 201, elapsed: 0.0006339550018310547
ell 200, elapsed: 0.0003821849822998047
ell 199, elapsed: 0.00047397613525390625
ell 198, elapsed: 0.0004029273986816406
ell 197, elapsed: 0.0004730224609375
ell 196, elapsed: 0.00038504600524902344
ell 195, elapsed: 0.0004849433898925781
ell 194, elapsed: 0.0003879070281982422
ell 193, elapsed: 0.00047087669372558594
ell 192, elapsed: 0.0003898143768310547
ell 191, elapsed: 0.0004718303680419922
ell 190, elapsed: 0.0003848075866699219
ell 189, elapsed: 0.0004749298095703125
ell 188, elapsed: 0.00038504600524902344
ell 187, elapsed: 0.0004639625549316406
ell 186, elapsed: 0.0003859996795654297
ell 185, elapsed: 0.0004711151123046875
ell 184, elapsed: 0.0003840923309326172
ell 183, elapsed: 0.0004661083221435547
ell 182, elapsed: 0.0003829002380371094
ell 181, elapsed: 0.0004839897155761719
ell 180, elapsed: 0.0003790855407714844
ell 179, elapsed: 0.000469207763671875
ell 178, elapsed: 0.0003829002380371094
ell 177, elapsed: 0.0004680156707763672
ell 176, elapsed: 0.0003859996795654297
ell 175, elapsed: 0.0004699230194091797
ell 174, elapsed: 0.0003790855407714844
ell 173, elapsed: 0.0004570484161376953
ell 172, elapsed: 0.0003941059112548828
ell 171, elapsed: 0.0004611015319824219
ell 170, elapsed: 0.0004210472106933594
ell 169, elapsed: 0.0006110668182373047
ell 168, elapsed: 0.00047898292541503906
ell 167, elapsed: 0.00046706199645996094
ell 166, elapsed: 0.00038504600524902344
ell 165, elapsed: 0.00046896934509277344
ell 164, elapsed: 0.0003998279571533203
ell 163, elapsed: 0.0004761219024658203
ell 162, elapsed: 0.00038313865661621094
ell 161, elapsed: 0.0004639625549316406
ell 160, elapsed: 0.0003821849822998047
ell 159, elapsed: 0.00046896934509277344
ell 158, elapsed: 0.00038504600524902344
ell 157, elapsed: 0.0004677772521972656
ell 156, elapsed: 0.0003838539123535156
ell 155, elapsed: 0.0004870891571044922
ell 154, elapsed: 0.00038504600524902344
ell 153, elapsed: 0.0004668235778808594
ell 152, elapsed: 0.00038313865661621094
ell 151, elapsed: 0.0004630088806152344
ell 150, elapsed: 0.00037789344787597656
ell 149, elapsed: 0.00046896934509277344
ell 148, elapsed: 0.0005850791931152344
ell 147, elapsed: 0.000621795654296875
ell 146, elapsed: 0.0003819465637207031
ell 145, elapsed: 0.00046706199645996094
ell 144, elapsed: 0.0003840923309326172
ell 143, elapsed: 0.0004730224609375
ell 142, elapsed: 0.0003859996795654297
ell 141, elapsed: 0.00046515464782714844
ell 140, elapsed: 0.0003848075866699219
ell 139, elapsed: 0.0004949569702148438
ell 138, elapsed: 0.00039196014404296875
ell 137, elapsed: 0.0004830360412597656
ell 136, elapsed: 0.0003879070281982422
ell 135, elapsed: 0.0004699230194091797
ell 134, elapsed: 0.0003859996795654297
ell 133, elapsed: 0.0004699230194091797
ell 132, elapsed: 0.00038313865661621094
ell 131, elapsed: 0.00047516822814941406
ell 130, elapsed: 0.0004000663757324219
ell 129, elapsed: 0.0004630088806152344
ell 128, elapsed: 0.0003838539123535156
ell 127, elapsed: 0.0004909038543701172
ell 126, elapsed: 0.0005488395690917969
ell 125, elapsed: 0.0005698204040527344
ell 124, elapsed: 0.00039005279541015625
ell 123, elapsed: 0.00047898292541503906
ell 122, elapsed: 0.0004057884216308594
ell 121, elapsed: 0.0004811286926269531
ell 120, elapsed: 0.00038886070251464844
ell 119, elapsed: 0.0004699230194091797
ell 118, elapsed: 0.00039005279541015625
ell 117, elapsed: 0.0004749298095703125
ell 116, elapsed: 0.00039005279541015625
ell 115, elapsed: 0.0004811286926269531
ell 114, elapsed: 0.00043511390686035156
ell 113, elapsed: 0.0004830360412597656
ell 112, elapsed: 0.00039386749267578125
ell 111, elapsed: 0.00047898292541503906
ell 110, elapsed: 0.00038695335388183594
ell 109, elapsed: 0.00046896934509277344
ell 108, elapsed: 0.0003859996795654297
ell 107, elapsed: 0.00047087669372558594
ell 106, elapsed: 0.0003819465637207031
ell 105, elapsed: 0.0004799365997314453
ell 104, elapsed: 0.0003838539123535156
ell 103, elapsed: 0.0006830692291259766
ell 102, elapsed: 0.0004949569702148438
ell 101, elapsed: 0.00047898292541503906
ell 100, elapsed: 0.0003859996795654297
ell 99, elapsed: 0.0004711151123046875
ell 98, elapsed: 0.0003859996795654297
ell 97, elapsed: 0.00048804283142089844
ell 96, elapsed: 0.0003859996795654297
ell 95, elapsed: 0.00047087669372558594
ell 94, elapsed: 0.0003859996795654297
ell 93, elapsed: 0.0004711151123046875
ell 92, elapsed: 0.00038695335388183594
ell 91, elapsed: 0.0004749298095703125
ell 90, elapsed: 0.0003871917724609375
ell 89, elapsed: 0.0004858970642089844
ell 88, elapsed: 0.00039315223693847656
ell 87, elapsed: 0.0004699230194091797
ell 86, elapsed: 0.00038886070251464844
ell 85, elapsed: 0.00047016143798828125
ell 84, elapsed: 0.0003859996795654297
ell 83, elapsed: 0.0004730224609375
ell 82, elapsed: 0.0003879070281982422
ell 81, elapsed: 0.0004830360412597656
ell 80, elapsed: 0.00040602684020996094
ell 79, elapsed: 0.00047898292541503906
ell 78, elapsed: 0.00039196014404296875
ell 77, elapsed: 0.00047707557678222656
ell 76, elapsed: 0.00038695335388183594
ell 75, elapsed: 0.00047588348388671875
ell 74, elapsed: 0.0003910064697265625
ell 73, elapsed: 0.00047707557678222656
ell 72, elapsed: 0.00038695335388183594
ell 71, elapsed: 0.00049591064453125
ell 70, elapsed: 0.00038886070251464844
ell 69, elapsed: 0.00047898292541503906
ell 68, elapsed: 0.0003910064697265625
ell 67, elapsed: 0.0004820823669433594
ell 66, elapsed: 0.0003879070281982422
ell 65, elapsed: 0.00047516822814941406
ell 64, elapsed: 0.00039386749267578125
ell 63, elapsed: 0.0004940032958984375
ell 62, elapsed: 0.00038886070251464844
ell 61, elapsed: 0.00047898292541503906
ell 60, elapsed: 0.0003898143768310547
ell 59, elapsed: 0.0006089210510253906
ell 58, elapsed: 0.00039196014404296875
ell 57, elapsed: 0.0005359649658203125
ell 56, elapsed: 0.0003819465637207031
ell 55, elapsed: 0.00048804283142089844
ell 54, elapsed: 0.00038814544677734375
ell 53, elapsed: 0.00047206878662109375
ell 52, elapsed: 0.0003910064697265625
ell 51, elapsed: 0.0004699230194091797
ell 50, elapsed: 0.0003979206085205078
ell 49, elapsed: 0.0004749298095703125
ell 48, elapsed: 0.0003981590270996094
ell 47, elapsed: 0.0004858970642089844
ell 46, elapsed: 0.00046896934509277344
ell 45, elapsed: 0.0005011558532714844
ell 44, elapsed: 0.00038504600524902344
ell 43, elapsed: 0.0004870891571044922
ell 42, elapsed: 0.00038695335388183594
ell 41, elapsed: 0.0004818439483642578
ell 40, elapsed: 0.00039005279541015625
ell 39, elapsed: 0.0004749298095703125
ell 38, elapsed: 0.0004029273986816406
ell 37, elapsed: 0.0004820823669433594
ell 36, elapsed: 0.0005550384521484375
ell 35, elapsed: 0.0005500316619873047
ell 34, elapsed: 0.0003910064697265625
ell 33, elapsed: 0.00047707557678222656
ell 32, elapsed: 0.00038886070251464844
ell 31, elapsed: 0.0004820823669433594
ell 30, elapsed: 0.00041484832763671875
ell 29, elapsed: 0.00048613548278808594
ell 28, elapsed: 0.00039505958557128906
ell 27, elapsed: 0.0004811286926269531
ell 26, elapsed: 0.00039315223693847656
ell 25, elapsed: 0.0005021095275878906
ell 24, elapsed: 0.0004069805145263672
ell 23, elapsed: 0.0004830360412597656
ell 22, elapsed: 0.00039005279541015625
ell 21, elapsed: 0.0004990100860595703
ell 20, elapsed: 0.0004010200500488281
ell 19, elapsed: 0.00047898292541503906
ell 18, elapsed: 0.00038504600524902344
ell 17, elapsed: 0.00047087669372558594
ell 16, elapsed: 0.0003829002380371094
ell 15, elapsed: 0.0004649162292480469
ell 14, elapsed: 0.00038313865661621094
ell 13, elapsed: 0.0005199909210205078
ell 12, elapsed: 0.00038504600524902344
ell 11, elapsed: 0.0006239414215087891
ell 10, elapsed: 0.00038504600524902344
ell 9, elapsed: 0.0004820823669433594
ell 8, elapsed: 0.0003840923309326172
ell 7, elapsed: 0.0004711151123046875
ell 6, elapsed: 0.0003910064697265625
ell 5, elapsed: 0.0005171298980712891
ell 4, elapsed: 0.000392913818359375
ell 3, elapsed: 0.0004839897155761719
ell 2, elapsed: 0.00039505958557128906
ell 1, elapsed: 0.0005040168762207031
ell 0, elapsed: 0.00039196014404296875
  0.613458 seconds (41.19 k allocations: 2.939 MiB)
elapsed: 0.0005679130554199219
step:          0.062284 sec (0 allocations: 0 byte, 0.0% gc time)
swapping:      0.00079 sec (0 allocations: 0 byte, 0.0% gc time)
calc_Mellell!: 0.0107 sec (0 allocations: 0 byte, 0.0% gc time)
  t0 :  0.002247 sec (0 allocations: 0 byte, 0.0% gc time)
  tm2 : 0.091513 sec (0 allocations: 0 byte, 0.0% gc time)
  tm2s: 0.001854 sec (0 allocations: 0 byte, 0.0% gc time)
  tm4 : 0.244645 sec (0 allocations: 0 byte, 0.0% gc time)
  tp2 : 0.0 sec (0 allocations: 0 byte, 0.0% gc time)
  tp2s: 0.0 sec (0 allocations: 0 byte, 0.0% gc time)
  tp4 : 0.0 sec (0 allocations: 0 byte, 0.0% gc time)
calc_wtdll!:   0.361333 sec (9.87 k allocations: 1.043 MB, 0.0% gc time)
calc_wljj!:    0.054744 sec (689 allocations: 10.766 KB, 0.0% gc time)
mult_prefac!:  0.0 sec (0 allocations: 0 byte, 0.0% gc time)
convert:       0.0 sec (0 allocations: 0 byte, 0.0% gc time)
write:         0.05569 sec (0 allocations: 0 byte, 0.0% gc time)
test_rand_2f1: 0.0 sec (0 allocations: 0 byte, 0.0% gc time)
Closing outfile out/Ml21-cache.bin...   0.038226 seconds
  0.000466 seconds (52 allocations: 28.297 KiB)
make_phi():   0.002886 seconds (8.20 k allocations: 238.016 KiB)
  0.191270 seconds (146.69 k allocations: 3.629 MiB)
tskip:       0.001352 sec (0 allocations: 0 byte, 0.0% gc time)
tread:       0.023195 sec (19 allocations: 10.688 KB, 0.0% gc time)
tmultphi:    0.014667 sec (0 allocations: 0 byte, 0.0% gc time)
tbrfft:      0.044786 sec (9.592 k allocations: 449.625 KB, 0.0% gc time)
tmultprefac: 0.040162 sec (0 allocations: 0 byte, 0.0% gc time)
toutfunc:    0.065315 sec (129.905 k allocations: 2.421 MB, 0.0% gc time)
Testing R=1.0 ... passed
Calculating fmax: 
  dlrec    = 4
  dlrecRg1 = -4
  q=1.1, R=0.9:	  0.480707 seconds (116.47 k allocations: 15.614 MiB)

  0.480954 seconds (116.50 k allocations: 15.647 MiB)
ℓ = 1202
Δℓ = 4
ΔℓRg1 = -4
N = 1600
q = 1.1
kmin = 1.0e-5
kmax = 100000.00000000004
χ0 = 0.023029999999999995
RR = RR.tsv
ℓmax = ℓmax.bin
f21 = f21.bin
kmin = 1.0e-5
kmax = 100000.0
dlrec    = 4
dlrecRg1 = -4
Output size: 5741568 bytes = 0.005347251892089844 GiB
Output size: 51264 bytes = 4.774332046508789e-5 GiB
Reading 'out/F21EllCache'...   0.001064 seconds (267 allocations: 84.656 KiB)
ellmax: 1202
lmaxcache: 1202
fell[:,1,1] = Complex{Float64}[1.3482014726274674e-57 - 3.302141236118086e-73im, 1.357860004724329e-57 - 3.3257978169518355e-73im]
ell 1202, elapsed: 1.9073486328125e-5
ell 1201, elapsed: 0.00042510032653808594
ell 1200, elapsed: 0.00040078163146972656
ell 1199, elapsed: 0.0007810592651367188
ell 1198, elapsed: 0.0004069805145263672
ell 1002, elapsed: 0.009831905364990234
ell 1001, elapsed: 0.00037598609924316406
ell 1000, elapsed: 0.00035190582275390625
ell 999, elapsed: 0.000347137451171875
ell 998, elapsed: 0.000576019287109375
ell 902, elapsed: 0.012626171112060547
ell 901, elapsed: 0.005330085754394531
ell 900, elapsed: 0.0005218982696533203
ell 899, elapsed: 0.0005021095275878906
ell 898, elapsed: 0.0005161762237548828
ell 802, elapsed: 0.0054209232330322266
ell 801, elapsed: 0.00036787986755371094
ell 800, elapsed: 0.00035691261291503906
ell 799, elapsed: 0.0003600120544433594
ell 798, elapsed: 0.00035691261291503906
ell 702, elapsed: 0.0052280426025390625
ell 701, elapsed: 0.00037217140197753906
ell 700, elapsed: 0.0003590583801269531
ell 699, elapsed: 0.0003578662872314453
ell 698, elapsed: 0.00035500526428222656
ell 602, elapsed: 0.006293058395385742
ell 601, elapsed: 0.0005102157592773438
ell 600, elapsed: 0.0005509853363037109
ell 599, elapsed: 0.0005509853363037109
ell 598, elapsed: 0.0005578994750976562
ell 502, elapsed: 0.00551605224609375
ell 501, elapsed: 0.0003719329833984375
ell 500, elapsed: 0.0003540515899658203
ell 499, elapsed: 0.0003521442413330078
ell 498, elapsed: 0.0003559589385986328
ell 402, elapsed: 0.0053369998931884766
ell 401, elapsed: 0.00037407875061035156
ell 400, elapsed: 0.00036215782165527344
ell 399, elapsed: 0.0003600120544433594
ell 398, elapsed: 0.00035381317138671875
ell 302, elapsed: 0.005323886871337891
ell 301, elapsed: 0.00036787986755371094
ell 300, elapsed: 0.0003490447998046875
ell 299, elapsed: 0.00034999847412109375
ell 298, elapsed: 0.0003800392150878906
ell 202, elapsed: 0.005362987518310547
ell 201, elapsed: 0.0003809928894042969
ell 200, elapsed: 0.0004038810729980469
ell 199, elapsed: 0.0004019737243652344
ell 198, elapsed: 0.0003490447998046875
ell 152, elapsed: 0.0025701522827148438
ell 151, elapsed: 0.0003771781921386719
ell 150, elapsed: 0.00035500526428222656
ell 149, elapsed: 0.00035190582275390625
ell 148, elapsed: 0.0003490447998046875
ell 127, elapsed: 0.0015249252319335938
ell 126, elapsed: 0.0003631114959716797
ell 125, elapsed: 0.00034880638122558594
ell 124, elapsed: 0.00035309791564941406
ell 123, elapsed: 0.0003540515899658203
ell 114, elapsed: 0.0008370876312255859
ell 113, elapsed: 0.0003600120544433594
ell 112, elapsed: 0.0003719329833984375
ell 111, elapsed: 0.0003600120544433594
ell 110, elapsed: 0.0003619194030761719
ell 102, elapsed: 0.0010859966278076172
ell 101, elapsed: 0.000354766845703125
ell 100, elapsed: 0.00035190582275390625
ell 99, elapsed: 0.00034809112548828125
ell 98, elapsed: 0.00034999847412109375
ell 97, elapsed: 0.0005619525909423828
ell 96, elapsed: 0.0005779266357421875
ell 95, elapsed: 0.0003981590270996094
ell 94, elapsed: 0.0004851818084716797
ell 93, elapsed: 0.0004181861877441406
ell 92, elapsed: 0.0004699230194091797
ell 91, elapsed: 0.00038313865661621094
ell 90, elapsed: 0.0004680156707763672
ell 89, elapsed: 0.0004019737243652344
ell 88, elapsed: 0.0004820823669433594
ell 87, elapsed: 0.0003898143768310547
ell 86, elapsed: 0.00046706199645996094
ell 85, elapsed: 0.00038695335388183594
ell 84, elapsed: 0.0004742145538330078
ell 83, elapsed: 0.00039196014404296875
ell 82, elapsed: 0.00047898292541503906
ell 81, elapsed: 0.0004489421844482422
ell 80, elapsed: 0.0006561279296875
ell 79, elapsed: 0.00039005279541015625
ell 78, elapsed: 0.0004899501800537109
ell 77, elapsed: 0.0003979206085205078
ell 76, elapsed: 0.00046896934509277344
ell 75, elapsed: 0.00039005279541015625
ell 74, elapsed: 0.0004730224609375
ell 73, elapsed: 0.0004038810729980469
ell 72, elapsed: 0.0004899501800537109
ell 71, elapsed: 0.00038695335388183594
ell 70, elapsed: 0.0006768703460693359
ell 69, elapsed: 0.0004570484161376953
ell 68, elapsed: 0.0004830360412597656
ell 67, elapsed: 0.0003910064697265625
ell 66, elapsed: 0.0004630088806152344
ell 65, elapsed: 0.00038695335388183594
ell 64, elapsed: 0.0004799365997314453
ell 63, elapsed: 0.0003960132598876953
ell 62, elapsed: 0.00047588348388671875
ell 61, elapsed: 0.00039505958557128906
ell 60, elapsed: 0.0004878044128417969
ell 59, elapsed: 0.0003981590270996094
ell 58, elapsed: 0.0004830360412597656
ell 57, elapsed: 0.000392913818359375
ell 56, elapsed: 0.0004911422729492188
ell 55, elapsed: 0.00039696693420410156
ell 54, elapsed: 0.0006220340728759766
ell 53, elapsed: 0.00047898292541503906
ell 52, elapsed: 0.0004780292510986328
ell 51, elapsed: 0.00039196014404296875
ell 50, elapsed: 0.0004761219024658203
ell 49, elapsed: 0.0003941059112548828
ell 48, elapsed: 0.0005810260772705078
ell 47, elapsed: 0.0003960132598876953
ell 46, elapsed: 0.00047707557678222656
ell 45, elapsed: 0.000392913818359375
ell 44, elapsed: 0.0004780292510986328
ell 43, elapsed: 0.00039315223693847656
ell 42, elapsed: 0.0004911422729492188
ell 41, elapsed: 0.0003941059112548828
ell 40, elapsed: 0.0005869865417480469
ell 39, elapsed: 0.000392913818359375
ell 38, elapsed: 0.00047898292541503906
ell 37, elapsed: 0.0003910064697265625
ell 36, elapsed: 0.0004780292510986328
ell 35, elapsed: 0.00039696693420410156
ell 34, elapsed: 0.0004928112030029297
ell 33, elapsed: 0.00039887428283691406
ell 32, elapsed: 0.0005769729614257812
ell 31, elapsed: 0.0003972053527832031
ell 30, elapsed: 0.0004811286926269531
ell 29, elapsed: 0.0003981590270996094
ell 28, elapsed: 0.0004801750183105469
ell 27, elapsed: 0.0003941059112548828
ell 26, elapsed: 0.00047397613525390625
ell 25, elapsed: 0.000392913818359375
ell 24, elapsed: 0.00047898292541503906
ell 23, elapsed: 0.0004909038543701172
ell 22, elapsed: 0.0004870891571044922
ell 21, elapsed: 0.0003979206085205078
ell 20, elapsed: 0.0004940032958984375
ell 19, elapsed: 0.0003910064697265625
ell 18, elapsed: 0.0004818439483642578
ell 17, elapsed: 0.0003981590270996094
ell 16, elapsed: 0.0004858970642089844
ell 15, elapsed: 0.0004918575286865234
ell 14, elapsed: 0.0004799365997314453
ell 13, elapsed: 0.0003972053527832031
ell 12, elapsed: 0.0004749298095703125
ell 11, elapsed: 0.00039005279541015625
ell 10, elapsed: 0.0004761219024658203
ell 9, elapsed: 0.0003840923309326172
ell 8, elapsed: 0.0004661083221435547
ell 7, elapsed: 0.0004990100860595703
ell 6, elapsed: 0.00047707557678222656
ell 5, elapsed: 0.00040411949157714844
ell 4, elapsed: 0.0004980564117431641
ell 3, elapsed: 0.00041604042053222656
ell 2, elapsed: 0.0004868507385253906
ell 1, elapsed: 0.0005159378051757812
ell 0, elapsed: 0.0006070137023925781
  0.145652 seconds (10.83 k allocations: 697.938 KiB)
elapsed: 0.0006330013275146484
step:          0.06684 sec (0 allocations: 0 byte, 0.0% gc time)
swapping:      0.000627 sec (0 allocations: 0 byte, 0.0% gc time)
calc_Mellell!: 0.001662 sec (0 allocations: 0 byte, 0.0% gc time)
  t0 :  0.000367 sec (0 allocations: 0 byte, 0.0% gc time)
  tm2 : 0.014048 sec (0 allocations: 0 byte, 0.0% gc time)
  tm2s: 0.000508 sec (0 allocations: 0 byte, 0.0% gc time)
  tm4 : 0.038038 sec (0 allocations: 0 byte, 0.0% gc time)
  tp2 : 0.0 sec (0 allocations: 0 byte, 0.0% gc time)
  tp2s: 0.0 sec (0 allocations: 0 byte, 0.0% gc time)
  tp4 : 0.0 sec (0 allocations: 0 byte, 0.0% gc time)
calc_wtdll!:   0.053922 sec (1.344 k allocations: 147.0 KB, 0.0% gc time)
calc_wljj!:    0.003883 sec (6 allocations: 96 byte, 0.0% gc time)
mult_prefac!:  0.0 sec (0 allocations: 0 byte, 0.0% gc time)
convert:       0.0 sec (0 allocations: 0 byte, 0.0% gc time)
write:         0.005503 sec (0 allocations: 0 byte, 0.0% gc time)
test_rand_2f1: 0.0 sec (0 allocations: 0 byte, 0.0% gc time)
Closing outfile out/Ml21-cache.bin...   0.003424 seconds
  0.000268 seconds (52 allocations: 28.297 KiB)
make_phi():   0.002879 seconds (8.20 k allocations: 238.016 KiB)
  0.017982 seconds (12.10 k allocations: 322.000 KiB)
tskip:       2.3e-5 sec (0 allocations: 0 byte, 0.0% gc time)
tread:       0.002361 sec (19 allocations: 2.172 KB, 0.0% gc time)
tmultphi:    0.001349 sec (0 allocations: 0 byte, 0.0% gc time)
tbrfft:      0.004349 sec (896 allocations: 42.0 KB, 0.0% gc time)
tmultprefac: 0.003726 sec (0 allocations: 0 byte, 0.0% gc time)
toutfunc:    0.006169 sec (10.528 k allocations: 206.5 KB, 0.0% gc time)
Testing R=0.9 ... passed
Calculating fmax: 
  dlrec    = 4
  dlrecRg1 = -4
  q=1.1, R=0.8:	  0.366009 seconds (113.61 k allocations: 15.166 MiB)

  0.366265 seconds (113.65 k allocations: 15.200 MiB)
ℓ = 1202
Δℓ = 4
ΔℓRg1 = -4
N = 1600
q = 1.1
kmin = 1.0e-5
kmax = 100000.00000000004
χ0 = 0.023029999999999995
RR = RR.tsv
ℓmax = ℓmax.bin
f21 = f21.bin
kmin = 1.0e-5
kmax = 100000.0
dlrec    = 4
dlrecRg1 = -4
Output size: 5741568 bytes = 0.005347251892089844 GiB
Output size: 51264 bytes = 4.774332046508789e-5 GiB
Reading 'out/F21EllCache'...   0.001064 seconds (267 allocations: 84.656 KiB)
ellmax: 1202
lmaxcache: 1202
fell[:,1,1] = Complex{Float64}[7.519068145690986e-120 - 1.8416405474382574e-135im, 7.541664537386155e-120 - 1.847175067190611e-135im]
ell 1202, elapsed: 2.002716064453125e-5
ell 1201, elapsed: 0.0005900859832763672
ell 1200, elapsed: 0.0006110668182373047
ell 1199, elapsed: 0.0007460117340087891
ell 1198, elapsed: 0.0006139278411865234
ell 1002, elapsed: 0.009684085845947266
ell 1001, elapsed: 0.0005290508270263672
ell 1000, elapsed: 0.0005891323089599609
ell 999, elapsed: 0.0005578994750976562
ell 998, elapsed: 0.0005638599395751953
ell 902, elapsed: 0.0051288604736328125
ell 901, elapsed: 0.0005238056182861328
ell 900, elapsed: 0.00055694580078125
ell 899, elapsed: 0.0005660057067871094
ell 898, elapsed: 0.000637054443359375
ell 802, elapsed: 0.0053789615631103516
ell 801, elapsed: 0.0005240440368652344
ell 800, elapsed: 0.0005829334259033203
ell 799, elapsed: 0.0005609989166259766
ell 798, elapsed: 0.0005688667297363281
ell 702, elapsed: 0.0055959224700927734
ell 701, elapsed: 0.0006060600280761719
ell 700, elapsed: 0.0007150173187255859
ell 699, elapsed: 0.00043582916259765625
ell 698, elapsed: 0.0004999637603759766
ell 602, elapsed: 0.005778074264526367
ell 601, elapsed: 0.0005319118499755859
ell 600, elapsed: 0.0005640983581542969
ell 599, elapsed: 0.0005650520324707031
ell 598, elapsed: 0.0005650520324707031
ell 502, elapsed: 0.005521059036254883
ell 501, elapsed: 0.0005860328674316406
ell 500, elapsed: 0.0005578994750976562
ell 499, elapsed: 0.0005688667297363281
ell 498, elapsed: 0.0005640983581542969
ell 402, elapsed: 0.005200862884521484
ell 401, elapsed: 0.0005078315734863281
ell 400, elapsed: 0.0005819797515869141
ell 399, elapsed: 0.0005588531494140625
ell 398, elapsed: 0.0005648136138916016
ell 302, elapsed: 0.005098819732666016
ell 301, elapsed: 0.00048089027404785156
ell 300, elapsed: 0.0005850791931152344
ell 299, elapsed: 0.0005671977996826172
ell 298, elapsed: 0.0005660057067871094
ell 202, elapsed: 0.005727052688598633
ell 201, elapsed: 0.0009019374847412109
ell 200, elapsed: 0.0007879734039306641
ell 199, elapsed: 0.0008101463317871094
ell 198, elapsed: 0.0005929470062255859
ell 152, elapsed: 0.0027399063110351562
ell 151, elapsed: 0.0004830360412597656
ell 150, elapsed: 0.0005359649658203125
ell 149, elapsed: 0.0005028247833251953
ell 148, elapsed: 0.0005450248718261719
ell 127, elapsed: 0.0018770694732666016
ell 126, elapsed: 0.0003840923309326172
ell 125, elapsed: 0.00045800209045410156
ell 124, elapsed: 0.0005528926849365234
ell 123, elapsed: 0.0005419254302978516
ell 114, elapsed: 0.0009188652038574219
ell 113, elapsed: 0.0005171298980712891
ell 112, elapsed: 0.000576019287109375
ell 111, elapsed: 0.000579833984375
ell 110, elapsed: 0.0005831718444824219
ell 102, elapsed: 0.0012400150299072266
ell 101, elapsed: 0.00048089027404785156
ell 100, elapsed: 0.0005838871002197266
ell 99, elapsed: 0.000576019287109375
ell 98, elapsed: 0.0005910396575927734
ell 97, elapsed: 0.0005428791046142578
ell 96, elapsed: 0.0006639957427978516
ell 95, elapsed: 0.0006449222564697266
ell 94, elapsed: 0.0007550716400146484
ell 93, elapsed: 0.0005309581756591797
ell 92, elapsed: 0.0006420612335205078
ell 91, elapsed: 0.0006301403045654297
ell 90, elapsed: 0.0007669925689697266
ell 89, elapsed: 0.0006139278411865234
ell 88, elapsed: 0.0007658004760742188
ell 87, elapsed: 0.0006499290466308594
ell 86, elapsed: 0.0007319450378417969
ell 85, elapsed: 0.0005140304565429688
ell 84, elapsed: 0.0006799697875976562
ell 83, elapsed: 0.0006241798400878906
ell 82, elapsed: 0.0007469654083251953
ell 81, elapsed: 0.0006260871887207031
ell 80, elapsed: 0.0007519721984863281
ell 79, elapsed: 0.0006108283996582031
ell 78, elapsed: 0.0007510185241699219
ell 77, elapsed: 0.0006120204925537109
ell 76, elapsed: 0.0007579326629638672
ell 75, elapsed: 0.0005090236663818359
ell 74, elapsed: 0.0006601810455322266
ell 73, elapsed: 0.0005979537963867188
ell 72, elapsed: 0.0007359981536865234
ell 71, elapsed: 0.0006229877471923828
ell 70, elapsed: 0.0007557868957519531
ell 69, elapsed: 0.0005438327789306641
ell 68, elapsed: 0.0006849765777587891
ell 67, elapsed: 0.0006208419799804688
ell 66, elapsed: 0.0007219314575195312
ell 65, elapsed: 0.000598907470703125
ell 64, elapsed: 0.0007419586181640625
ell 63, elapsed: 0.0004911422729492188
ell 62, elapsed: 0.0006830692291259766
ell 61, elapsed: 0.0006158351898193359
ell 60, elapsed: 0.0007441043853759766
ell 59, elapsed: 0.0005979537963867188
ell 58, elapsed: 0.0006451606750488281
ell 57, elapsed: 0.0004010200500488281
ell 56, elapsed: 0.00047087669372558594
ell 55, elapsed: 0.0005080699920654297
ell 54, elapsed: 0.0007321834564208984
ell 53, elapsed: 0.0006170272827148438
ell 52, elapsed: 0.000988006591796875
ell 51, elapsed: 0.0005741119384765625
ell 50, elapsed: 0.0007350444793701172
ell 49, elapsed: 0.0006201267242431641
ell 48, elapsed: 0.0007348060607910156
ell 47, elapsed: 0.0006210803985595703
ell 46, elapsed: 0.0011379718780517578
ell 45, elapsed: 0.000614166259765625
ell 44, elapsed: 0.0007319450378417969
ell 43, elapsed: 0.0006129741668701172
ell 42, elapsed: 0.0007309913635253906
ell 41, elapsed: 0.0005919933319091797
ell 40, elapsed: 0.0006661415100097656
ell 39, elapsed: 0.0005099773406982422
ell 38, elapsed: 0.0007419586181640625
ell 37, elapsed: 0.0006060600280761719
ell 36, elapsed: 0.0010869503021240234
ell 35, elapsed: 0.0004839897155761719
ell 34, elapsed: 0.0006680488586425781
ell 33, elapsed: 0.0005300045013427734
ell 32, elapsed: 0.0006871223449707031
ell 31, elapsed: 0.0007729530334472656
ell 30, elapsed: 0.0005731582641601562
ell 29, elapsed: 0.0003981590270996094
ell 28, elapsed: 0.0004799365997314453
ell 27, elapsed: 0.0003910064697265625
ell 26, elapsed: 0.0004839897155761719
ell 25, elapsed: 0.00039005279541015625
ell 24, elapsed: 0.0005748271942138672
ell 23, elapsed: 0.0007970333099365234
ell 22, elapsed: 0.0006780624389648438
ell 21, elapsed: 0.0005249977111816406
ell 20, elapsed: 0.0004749298095703125
[...]
ell 788, elapsed: 0.0010371208190917969
ell 782, elapsed: 0.0014541149139404297
ell 781, elapsed: 0.0007569789886474609
ell 780, elapsed: 0.0008339881896972656
ell 779, elapsed: 0.0007739067077636719
ell 778, elapsed: 0.0007729530334472656
ell 772, elapsed: 0.0015270709991455078
ell 771, elapsed: 0.0008349418640136719
ell 770, elapsed: 0.0008139610290527344
ell 769, elapsed: 0.000804901123046875
ell 768, elapsed: 0.0008039474487304688
ell 762, elapsed: 0.0015950202941894531
ell 761, elapsed: 0.0008149147033691406
ell 760, elapsed: 0.000823974609375
ell 759, elapsed: 0.0008218288421630859
ell 758, elapsed: 0.0008370876312255859
ell 752, elapsed: 0.001756906509399414
ell 751, elapsed: 0.0008220672607421875
ell 750, elapsed: 0.0010988712310791016
ell 749, elapsed: 0.0007758140563964844
ell 748, elapsed: 0.0008540153503417969
ell 742, elapsed: 0.0018191337585449219
ell 741, elapsed: 0.0008709430694580078
ell 740, elapsed: 0.0008559226989746094
ell 739, elapsed: 0.000843048095703125
ell 738, elapsed: 0.0008399486541748047
ell 732, elapsed: 0.0016219615936279297
ell 731, elapsed: 0.0008449554443359375
ell 730, elapsed: 0.0008509159088134766
ell 729, elapsed: 0.0008420944213867188
ell 728, elapsed: 0.0008678436279296875
ell 722, elapsed: 0.0016109943389892578
ell 721, elapsed: 0.0008440017700195312
ell 720, elapsed: 0.0008409023284912109
ell 719, elapsed: 0.0008549690246582031
ell 718, elapsed: 0.0008118152618408203
ell 712, elapsed: 0.001444101333618164
ell 711, elapsed: 0.0008060932159423828
ell 710, elapsed: 0.0007889270782470703
ell 709, elapsed: 0.0007658004760742188
ell 708, elapsed: 0.0007920265197753906
ell 702, elapsed: 0.0014641284942626953
ell 701, elapsed: 0.0007860660552978516
ell 700, elapsed: 0.0007929801940917969
ell 699, elapsed: 0.0008029937744140625
ell 698, elapsed: 0.0007488727569580078
ell 692, elapsed: 0.0018079280853271484
ell 691, elapsed: 0.000762939453125
ell 690, elapsed: 0.0007572174072265625
ell 689, elapsed: 0.0007607936859130859
ell 688, elapsed: 0.0008080005645751953
ell 682, elapsed: 0.001744985580444336
ell 681, elapsed: 0.0007669925689697266
ell 680, elapsed: 0.0007729530334472656
ell 679, elapsed: 0.0008158683776855469
ell 678, elapsed: 0.0007970333099365234
ell 672, elapsed: 0.0014832019805908203
ell 671, elapsed: 0.0007960796356201172
ell 670, elapsed: 0.0008361339569091797
ell 669, elapsed: 0.0007691383361816406
ell 668, elapsed: 0.0007860660552978516
ell 662, elapsed: 0.0017859935760498047
ell 661, elapsed: 0.0008339881896972656
ell 660, elapsed: 0.0007789134979248047
ell 659, elapsed: 0.0007481575012207031
ell 658, elapsed: 0.0007498264312744141
ell 652, elapsed: 0.0017430782318115234
ell 651, elapsed: 0.0007300376892089844
ell 650, elapsed: 0.0007650852203369141
ell 649, elapsed: 0.0007719993591308594
ell 648, elapsed: 0.0008258819580078125
ell 642, elapsed: 0.001795053482055664
ell 641, elapsed: 0.0007579326629638672
ell 640, elapsed: 0.0007698535919189453
ell 639, elapsed: 0.0007979869842529297
ell 638, elapsed: 0.0008251667022705078
ell 632, elapsed: 0.0014739036560058594
ell 631, elapsed: 0.0008199214935302734
ell 630, elapsed: 0.0008151531219482422
ell 629, elapsed: 0.0007970333099365234
ell 628, elapsed: 0.0008039474487304688
ell 622, elapsed: 0.001535177230834961
ell 621, elapsed: 0.0008320808410644531
ell 620, elapsed: 0.0008060932159423828
ell 619, elapsed: 0.0008089542388916016
ell 618, elapsed: 0.0007948875427246094
ell 612, elapsed: 0.0015838146209716797
ell 611, elapsed: 0.0008020401000976562
ell 610, elapsed: 0.0008108615875244141
ell 609, elapsed: 0.0010349750518798828
ell 608, elapsed: 0.0007910728454589844
ell 602, elapsed: 0.0017819404602050781
ell 601, elapsed: 0.0007288455963134766
ell 600, elapsed: 0.0008001327514648438
ell 599, elapsed: 0.0008199214935302734
ell 598, elapsed: 0.0007560253143310547
ell 592, elapsed: 0.0014929771423339844
ell 591, elapsed: 0.0007750988006591797
ell 590, elapsed: 0.0008099079132080078
ell 589, elapsed: 0.0008380413055419922
ell 588, elapsed: 0.0007851123809814453
ell 582, elapsed: 0.0016379356384277344
ell 581, elapsed: 0.0008709430694580078
ell 580, elapsed: 0.0008490085601806641
ell 579, elapsed: 0.0008459091186523438
ell 578, elapsed: 0.000843048095703125
ell 572, elapsed: 0.0016529560089111328
ell 571, elapsed: 0.0008559226989746094
ell 570, elapsed: 0.000843048095703125
ell 569, elapsed: 0.0008409023284912109
ell 568, elapsed: 0.0008759498596191406
ell 562, elapsed: 0.0016269683837890625
ell 561, elapsed: 0.0008499622344970703
ell 560, elapsed: 0.0008649826049804688
ell 559, elapsed: 0.0008568763732910156
ell 558, elapsed: 0.0007891654968261719
ell 552, elapsed: 0.0014460086822509766
ell 551, elapsed: 0.0007760524749755859
ell 550, elapsed: 0.0007569789886474609
ell 549, elapsed: 0.0007739067077636719
ell 548, elapsed: 0.0007610321044921875
ell 542, elapsed: 0.0017309188842773438
ell 541, elapsed: 0.0007290840148925781
ell 540, elapsed: 0.0007560253143310547
ell 539, elapsed: 0.0008051395416259766
ell 538, elapsed: 0.0007598400115966797
ell 532, elapsed: 0.001561880111694336
ell 531, elapsed: 0.0007898807525634766
ell 530, elapsed: 0.0007939338684082031
ell 529, elapsed: 0.0007638931274414062
ell 528, elapsed: 0.0008141994476318359
ell 522, elapsed: 0.0017359256744384766
ell 521, elapsed: 0.0007259845733642578
ell 520, elapsed: 0.0007538795471191406
ell 519, elapsed: 0.0008411407470703125
ell 518, elapsed: 0.000823974609375
ell 512, elapsed: 0.0014989376068115234
ell 511, elapsed: 0.0007619857788085938
ell 510, elapsed: 0.0007941722869873047
ell 509, elapsed: 0.0008149147033691406
ell 508, elapsed: 0.0008401870727539062
ell 502, elapsed: 0.0015130043029785156
ell 501, elapsed: 0.0007939338684082031
ell 500, elapsed: 0.0008220672607421875
ell 499, elapsed: 0.0008139610290527344
ell 498, elapsed: 0.0007619857788085938
ell 492, elapsed: 0.0014688968658447266
ell 491, elapsed: 0.0007648468017578125
ell 490, elapsed: 0.0008099079132080078
ell 489, elapsed: 0.0008268356323242188
ell 488, elapsed: 0.0008358955383300781
ell 482, elapsed: 0.0014698505401611328
ell 481, elapsed: 0.0007529258728027344
ell 480, elapsed: 0.0008029937744140625
ell 479, elapsed: 0.0007810592651367188
ell 478, elapsed: 0.0008051395416259766
ell 472, elapsed: 0.0015261173248291016
ell 471, elapsed: 0.0007739067077636719
ell 470, elapsed: 0.0008099079132080078
ell 469, elapsed: 0.0008008480072021484
ell 468, elapsed: 0.0007891654968261719
ell 462, elapsed: 0.0015270709991455078
ell 461, elapsed: 0.0008118152618408203
ell 460, elapsed: 0.0008258819580078125
ell 459, elapsed: 0.0007948875427246094
ell 458, elapsed: 0.0007839202880859375
ell 452, elapsed: 0.0016040802001953125
ell 451, elapsed: 0.0008039474487304688
ell 450, elapsed: 0.0010650157928466797
ell 449, elapsed: 0.0007870197296142578
ell 448, elapsed: 0.00080108642578125
ell 442, elapsed: 0.0015788078308105469
ell 441, elapsed: 0.0008060932159423828
ell 440, elapsed: 0.0007748603820800781
ell 439, elapsed: 0.0007688999176025391
ell 438, elapsed: 0.0007829666137695312
ell 432, elapsed: 0.0017399787902832031
ell 431, elapsed: 0.0007469654083251953
ell 430, elapsed: 0.0008168220520019531
ell 429, elapsed: 0.0007989406585693359
ell 428, elapsed: 0.0008058547973632812
ell 422, elapsed: 0.0017459392547607422
ell 421, elapsed: 0.0007619857788085938
ell 420, elapsed: 0.0007932186126708984
ell 419, elapsed: 0.0008208751678466797
ell 418, elapsed: 0.000782012939453125
ell 412, elapsed: 0.001547098159790039
ell 411, elapsed: 0.0008299350738525391
ell 410, elapsed: 0.0008459091186523438
ell 409, elapsed: 0.0008409023284912109
ell 408, elapsed: 0.0008699893951416016
ell 402, elapsed: 0.0018470287322998047
ell 401, elapsed: 0.0008461475372314453
ell 400, elapsed: 0.0008428096771240234
ell 399, elapsed: 0.0008640289306640625
ell 398, elapsed: 0.0008440017700195312
ell 392, elapsed: 0.0016088485717773438
ell 391, elapsed: 0.0008680820465087891
ell 390, elapsed: 0.0008418560028076172
ell 389, elapsed: 0.0008490085601806641
ell 388, elapsed: 0.0008499622344970703
ell 382, elapsed: 0.0016520023345947266
ell 381, elapsed: 0.0008330345153808594
ell 380, elapsed: 0.0007688999176025391
ell 379, elapsed: 0.000759124755859375
ell 378, elapsed: 0.0007541179656982422
ell 372, elapsed: 0.0017290115356445312
ell 371, elapsed: 0.000701904296875
ell 370, elapsed: 0.0007841587066650391
ell 369, elapsed: 0.0007579326629638672
ell 368, elapsed: 0.004781007766723633
ell 362, elapsed: 0.0017960071563720703
ell 361, elapsed: 0.0007419586181640625
ell 360, elapsed: 0.0007929801940917969
ell 359, elapsed: 0.0007829666137695312
ell 358, elapsed: 0.0008192062377929688
ell 352, elapsed: 0.0014891624450683594
ell 351, elapsed: 0.0008320808410644531
ell 350, elapsed: 0.0008189678192138672
ell 349, elapsed: 0.0007610321044921875
ell 348, elapsed: 0.0007529258728027344
ell 342, elapsed: 0.0017478466033935547
ell 341, elapsed: 0.0007281303405761719
ell 340, elapsed: 0.0007579326629638672
ell 339, elapsed: 0.0007619857788085938
ell 338, elapsed: 0.0008020401000976562
ell 332, elapsed: 0.0017201900482177734
ell 331, elapsed: 0.0007870197296142578
ell 330, elapsed: 0.0007641315460205078
ell 329, elapsed: 0.0007810592651367188
ell 328, elapsed: 0.0008628368377685547
ell 322, elapsed: 0.0015759468078613281
ell 321, elapsed: 0.0007569789886474609
ell 320, elapsed: 0.0007560253143310547
ell 319, elapsed: 0.0007870197296142578
ell 318, elapsed: 0.0007998943328857422
ell 312, elapsed: 0.0015020370483398438
ell 311, elapsed: 0.0007548332214355469
ell 310, elapsed: 0.0008001327514648438
ell 309, elapsed: 0.0008318424224853516
ell 308, elapsed: 0.0008249282836914062
ell 302, elapsed: 0.0014691352844238281
ell 301, elapsed: 0.0007910728454589844
ell 300, elapsed: 0.0008041858673095703
ell 299, elapsed: 0.0007750988006591797
ell 298, elapsed: 0.0008029937744140625
ell 292, elapsed: 0.0015399456024169922
ell 291, elapsed: 0.0007870197296142578
ell 290, elapsed: 0.0007851123809814453
ell 289, elapsed: 0.0007867813110351562
ell 288, elapsed: 0.00086212158203125
ell 282, elapsed: 0.0017499923706054688
ell 281, elapsed: 0.0007519721984863281
ell 280, elapsed: 0.0008249282836914062
ell 279, elapsed: 0.0008220672607421875
ell 278, elapsed: 0.0008070468902587891
ell 272, elapsed: 0.0015521049499511719
ell 271, elapsed: 0.0008251667022705078
ell 270, elapsed: 0.0008139610290527344
ell 269, elapsed: 0.0007870197296142578
ell 268, elapsed: 0.0007951259613037109
ell 262, elapsed: 0.0015501976013183594
ell 261, elapsed: 0.0008330345153808594
ell 260, elapsed: 0.0008070468902587891
ell 259, elapsed: 0.0008258819580078125
ell 258, elapsed: 0.0007958412170410156
ell 252, elapsed: 0.0016570091247558594
ell 251, elapsed: 0.0008499622344970703
ell 250, elapsed: 0.0008471012115478516
ell 249, elapsed: 0.0008409023284912109
ell 248, elapsed: 0.0008649826049804688
ell 242, elapsed: 0.0016248226165771484
ell 241, elapsed: 0.0008420944213867188
ell 240, elapsed: 0.0008428096771240234
ell 239, elapsed: 0.0008699893951416016
ell 238, elapsed: 0.0008518695831298828
ell 232, elapsed: 0.0016150474548339844
ell 231, elapsed: 0.0008668899536132812
ell 230, elapsed: 0.0008521080017089844
ell 229, elapsed: 0.0008518695831298828
ell 228, elapsed: 0.000823974609375
ell 222, elapsed: 0.0016279220581054688
ell 221, elapsed: 0.0008521080017089844
ell 220, elapsed: 0.0008800029754638672
ell 219, elapsed: 0.0008471012115478516
ell 218, elapsed: 0.0008480548858642578
ell 212, elapsed: 0.001641988754272461
ell 211, elapsed: 0.0008499622344970703
ell 210, elapsed: 0.0008509159088134766
ell 209, elapsed: 0.0008780956268310547
ell 208, elapsed: 0.0008180141448974609
ell 202, elapsed: 0.0015668869018554688
ell 201, elapsed: 0.0008261203765869141
ell 200, elapsed: 0.000843048095703125
ell 199, elapsed: 0.0008220672607421875
ell 198, elapsed: 0.000885009765625
ell 192, elapsed: 0.001653909683227539
ell 191, elapsed: 0.0008490085601806641
ell 190, elapsed: 0.0008320808410644531
ell 189, elapsed: 0.0008108615875244141
ell 188, elapsed: 0.0008189678192138672
ell 182, elapsed: 0.0015850067138671875
ell 181, elapsed: 0.0008349418640136719
ell 180, elapsed: 0.0008230209350585938
ell 179, elapsed: 0.0008351802825927734
ell 178, elapsed: 0.0008740425109863281
ell 172, elapsed: 0.0018038749694824219
ell 171, elapsed: 0.0008530616760253906
ell 170, elapsed: 0.0007920265197753906
ell 169, elapsed: 0.0008189678192138672
ell 168, elapsed: 0.0008509159088134766
ell 162, elapsed: 0.0016248226165771484
ell 161, elapsed: 0.0008609294891357422
ell 160, elapsed: 0.0008018016815185547
ell 159, elapsed: 0.0008230209350585938
ell 158, elapsed: 0.0008139610290527344
ell 152, elapsed: 0.0016028881072998047
ell 151, elapsed: 0.0008001327514648438
ell 150, elapsed: 0.0008161067962646484
ell 149, elapsed: 0.0008151531219482422
ell 148, elapsed: 0.000843048095703125
ell 142, elapsed: 0.0015990734100341797
ell 141, elapsed: 0.000843048095703125
ell 140, elapsed: 0.0008351802825927734
ell 139, elapsed: 0.0008409023284912109
ell 138, elapsed: 0.0008258819580078125
ell 132, elapsed: 0.001627206802368164
ell 131, elapsed: 0.0008480548858642578
ell 130, elapsed: 0.0008699893951416016
ell 129, elapsed: 0.0008339881896972656
ell 128, elapsed: 0.0007588863372802734
ell 122, elapsed: 0.001508951187133789
ell 121, elapsed: 0.0008189678192138672
ell 120, elapsed: 0.0008308887481689453
ell 119, elapsed: 0.0008358955383300781
ell 118, elapsed: 0.0008161067962646484
ell 112, elapsed: 0.001750946044921875
ell 111, elapsed: 0.0008111000061035156
ell 110, elapsed: 0.0008130073547363281
ell 109, elapsed: 0.000820159912109375
ell 108, elapsed: 0.0007801055908203125
ell 102, elapsed: 0.0014688968658447266
ell 101, elapsed: 0.003159046173095703
ell 100, elapsed: 0.004137992858886719
ell 99, elapsed: 0.0038421154022216797
ell 98, elapsed: 0.0034470558166503906
ell 92, elapsed: 0.006570100784301758
ell 91, elapsed: 0.003912925720214844
ell 90, elapsed: 0.004407167434692383
ell 89, elapsed: 0.004106998443603516
ell 88, elapsed: 0.004091024398803711
ell 82, elapsed: 0.0068111419677734375
ell 81, elapsed: 0.004519939422607422
ell 80, elapsed: 0.004555940628051758
ell 79, elapsed: 0.004477977752685547
ell 78, elapsed: 0.004247903823852539
ell 72, elapsed: 0.006906032562255859
ell 71, elapsed: 0.004559040069580078
ell 70, elapsed: 0.004237174987792969
ell 69, elapsed: 0.0044171810150146484
ell 68, elapsed: 0.00481104850769043
ell 62, elapsed: 0.007109165191650391
ell 61, elapsed: 0.0034799575805664062
ell 60, elapsed: 0.003979921340942383
ell 59, elapsed: 0.003423929214477539
ell 58, elapsed: 0.004168033599853516
ell 52, elapsed: 0.006512880325317383
ell 51, elapsed: 0.004028797149658203
ell 50, elapsed: 0.0037260055541992188
ell 49, elapsed: 0.003997087478637695
ell 48, elapsed: 0.004483938217163086
ell 42, elapsed: 0.006659030914306641
ell 41, elapsed: 0.00410008430480957
ell 40, elapsed: 0.004186153411865234
ell 39, elapsed: 0.0042629241943359375
ell 38, elapsed: 0.004129886627197266
ell 32, elapsed: 0.007097005844116211
ell 31, elapsed: 0.004511117935180664
ell 30, elapsed: 0.004528999328613281
ell 29, elapsed: 0.004678010940551758
ell 28, elapsed: 0.004109859466552734
ell 22, elapsed: 0.006617069244384766
ell 21, elapsed: 0.00406193733215332
ell 20, elapsed: 0.004333972930908203
ell 19, elapsed: 0.004173994064331055
ell 18, elapsed: 0.004436016082763672
ell 12, elapsed: 0.007310152053833008
ell 11, elapsed: 0.003847837448120117
ell 10, elapsed: 0.0039179325103759766
ell 9, elapsed: 0.004640102386474609
ell 8, elapsed: 0.0041429996490478516
  0.810919 seconds (66.75 k allocations: 12.139 MiB)
elapsed: 0.005084991455078125
step:          0.074225 sec (0 allocations: 0 byte, 0.0% gc time)
swapping:      0.000777 sec (0 allocations: 0 byte, 0.0% gc time)
calc_Mellell!: 0.035979 sec (0 allocations: 0 byte, 0.0% gc time)
  t0 :  0.010601 sec (0 allocations: 0 byte, 0.0% gc time)
  tm2 : 0.080511 sec (0 allocations: 0 byte, 0.0% gc time)
  tm2s: 0.008939 sec (0 allocations: 0 byte, 0.0% gc time)
  tm4 : 0.202014 sec (0 allocations: 0 byte, 0.0% gc time)
  tp2 : 0.0 sec (0 allocations: 0 byte, 0.0% gc time)
  tp2s: 0.0 sec (0 allocations: 0 byte, 0.0% gc time)
  tp4 : 0.0 sec (0 allocations: 0 byte, 0.0% gc time)
calc_wtdll!:   0.575167 sec (49.2 k allocations: 11.133 MB, 0.0% gc time)
calc_wljj!:    0.042894 sec (69 allocations: 1.078 KB, 0.0% gc time)
mult_prefac!:  0.0 sec (0 allocations: 0 byte, 0.0% gc time)
convert:       0.0 sec (0 allocations: 0 byte, 0.0% gc time)
write:         0.03844 sec (0 allocations: 0 byte, 0.0% gc time)
test_rand_2f1: 0.0 sec (0 allocations: 0 byte, 0.0% gc time)
Closing outfile out/MlCache/MlCache.bin...   0.000010 seconds
xi, l=0, nu=0:   0.569133 seconds (551.85 k allocations: 26.842 MiB, 2.47% gc time)
xi, l=0, nu=-2:  0.002669 seconds (144 allocations: 149.562 KiB)
Created 'out/xi.tsv'.
  q=1.1, R=0.6:	  0.738922 seconds (291.08 k allocations: 38.895 MiB, 1.84% gc time)
  q=1.1, R=0.7:	  0.898003 seconds (304.75 k allocations: 40.996 MiB, 5.57% gc time)
  q=1.1, R=0.8:	  0.888441 seconds (299.14 k allocations: 40.132 MiB, 1.30% gc time)
  q=1.1, R=0.9:	  0.990414 seconds (293.57 k allocations: 39.286 MiB, 1.24% gc time)
  q=1.1, R=0.998:	 22.239875 seconds (10.67 M allocations: 823.453 MiB, 0.77% gc time)
  q=1.1, R=1.0:	  0.004509 seconds (10.24 k allocations: 768.375 KiB)

ℓ = 1000
Δℓ = 4
ΔℓRg1 = -4
N = 4096
q = 1.1
kmin = 1.0e-5
kmax = 1000.0
χ0 = 0.001
RR = RR.tsv
ℓmax = ℓmax.bin
f21 = f21.bin
kmin = 1.0e-5
kmax = 1000.0
dlrec    = 4
dlrecRg1 = -4
Output size: 1573632 bytes = 0.0014655590057373047 GiB
Output size: 786816 bytes = 0.0007327795028686523 GiB
Reading 'out/F21EllCache'...   0.001553 seconds (268 allocations: 533.531 KiB)
ellmax: 1002
lmaxcache: 1000
fell[:,1,1] = Complex{Float64}[1.7262928128202118e-224 - 4.2281979352226944e-240im, 1.7282693092099662e-224 - 4.233038955177176e-240im]
ell 1002, elapsed: 2.8848648071289062e-5
ell 1001, elapsed: 0.0014328956604003906
ell 1000, elapsed: 0.0010979175567626953
ell 999, elapsed: 0.007888078689575195
ell 998, elapsed: 0.008032798767089844
ell 44, elapsed: 0.6474740505218506
ell 43, elapsed: 0.0060307979583740234
ell 42, elapsed: 0.0074100494384765625
ell 41, elapsed: 0.006928920745849609
ell 40, elapsed: 0.006630897521972656
  0.700376 seconds (4.55 k allocations: 320.359 KiB)
elapsed: 0.007070064544677734
step:          0.641191 sec (0 allocations: 0 byte, 0.0% gc time)
swapping:      0.000616 sec (0 allocations: 0 byte, 0.0% gc time)
calc_Mellell!: 0.001354 sec (0 allocations: 0 byte, 0.0% gc time)
  t0 :  0.000949 sec (0 allocations: 0 byte, 0.0% gc time)
  tm2 : 0.013966 sec (0 allocations: 0 byte, 0.0% gc time)
  tm2s: 0.000806 sec (0 allocations: 0 byte, 0.0% gc time)
  tm4 : 0.034446 sec (0 allocations: 0 byte, 0.0% gc time)
  tp2 : 0.0 sec (0 allocations: 0 byte, 0.0% gc time)
  tp2s: 0.0 sec (0 allocations: 0 byte, 0.0% gc time)
  tp4 : 0.0 sec (0 allocations: 0 byte, 0.0% gc time)
calc_wtdll!:   0.050446 sec (480 allocations: 52.5 KB, 0.0% gc time)
calc_wljj!:    0.001864 sec (1 allocations: 16 byte, 0.0% gc time)
mult_prefac!:  0.0 sec (0 allocations: 0 byte, 0.0% gc time)
convert:       0.0 sec (0 allocations: 0 byte, 0.0% gc time)
write:         0.001037 sec (0 allocations: 0 byte, 0.0% gc time)
test_rand_2f1: 0.0 sec (0 allocations: 0 byte, 0.0% gc time)
Closing outfile out/MlCache/MlCache.bin...   0.001411 seconds
  0.516634 seconds (54 allocations: 67.203 KiB)
make_phi():   0.010140 seconds (80 allocations: 276.297 KiB)
  0.004219 seconds (108 allocations: 5.812 KiB)
tskip:       3.0e-6 sec (0 allocations: 0 byte, 0.0% gc time)
tread:       0.000872 sec (19 allocations: 1.312 KB, 0.0% gc time)
tmultphi:    0.000361 sec (0 allocations: 0 byte, 0.0% gc time)
tbrfft:      0.001659 sec (96 allocations: 4.5 KB, 0.0% gc time)
tmultprefac: 0.001141 sec (0 allocations: 0 byte, 0.0% gc time)
toutfunc:    0.000285 sec (0 allocations: 0 byte, 0.0% gc time)
Created 'out/wl42_jj00.tsv'.
Created 'out/wl42_jj02.tsv'.
   Testing TwoFAST tests passed 
