Julia Version 1.5.0-DEV.4
Commit 0b034fd9fa (2020-01-03 14:13 UTC)
Platform Info:
  OS: Linux (x86_64-pc-linux-gnu)
  CPU: Intel(R) Xeon(R) Silver 4114 CPU @ 2.20GHz
  WORD_SIZE: 64
  LIBM: libopenlibm
  LLVM: libLLVM-8.0.1 (ORCJIT, skylake)
Environment:
  JULIA_DEPOT_PATH = ::/usr/local/share/julia

 Resolving package versions...
 Installed URIParser ──────── v0.4.0
 Installed Reexport ───────── v0.2.0
 Installed IncGammaBeta ───── v0.1.0
 Installed AbstractFFTs ───── v0.5.0
 Installed FFTW ───────────── v1.2.0
 Installed SpecialFunctions ─ v0.8.0
 Installed BinaryProvider ─── v0.5.8
 Installed MKL_jll ────────── v2019.0.117+0
 Installed FFTW_jll ───────── v3.3.9+3
 Installed IntelOpenMP_jll ── v2018.0.3+0
 Installed TwoFAST ────────── v0.1.0
 Installed BinDeps ────────── v1.0.0
 Installed AbstractAlgebra ── v0.7.1
 Installed Nemo ───────────── v0.15.1
  Updating `~/.julia/environments/v1.5/Project.toml`
  [0dd23c3e] + TwoFAST v0.1.0
  Updating `~/.julia/environments/v1.5/Manifest.toml`
  [c3fe647b] + AbstractAlgebra v0.7.1
  [621f4979] + AbstractFFTs v0.5.0
  [9e28174c] + BinDeps v1.0.0
  [b99e7846] + BinaryProvider v0.5.8
  [7a1cc6ca] + FFTW v1.2.0
  [f5851436] + FFTW_jll v3.3.9+3
  [5087d2c0] + IncGammaBeta v0.1.0
  [1d5cc7b8] + IntelOpenMP_jll v2018.0.3+0
  [856f044c] + MKL_jll v2019.0.117+0
  [2edaba10] + Nemo v0.15.1
  [189a3867] + Reexport v0.2.0
  [276daf66] + SpecialFunctions v0.8.0
  [0dd23c3e] + TwoFAST v0.1.0
  [30578b45] + URIParser v0.4.0
  [2a0f44e3] + Base64 
  [ade2ca70] + Dates 
  [8bb1440f] + DelimitedFiles 
  [8ba89e20] + Distributed 
  [b77e0a4c] + InteractiveUtils 
  [76f85450] + LibGit2 
  [8f399da3] + Libdl 
  [37e2e46d] + LinearAlgebra 
  [56ddb016] + Logging 
  [d6f4376e] + Markdown 
  [a63ad114] + Mmap 
  [44cfe95a] + Pkg 
  [de0858da] + Printf 
  [3fa0cd96] + REPL 
  [9a3f8284] + Random 
  [ea8e919c] + SHA 
  [9e88b42a] + Serialization 
  [6462fe0b] + Sockets 
  [2f01184e] + SparseArrays 
  [8dfed614] + Test 
  [cf7118a7] + UUIDs 
  [4ec0a83e] + Unicode 
  Building FFTW ────────────→ `~/.julia/packages/FFTW/qqcBj/deps/build.log`
  Updating `/tmp/jl_KM9pQn/Project.toml`
 [no changes]
  Updating `/tmp/jl_KM9pQn/Manifest.toml`
 [no changes]
  Building SpecialFunctions → `~/.julia/packages/SpecialFunctions/ne2iw/deps/build.log`
  Updating `/tmp/jl_JzHTiS/Project.toml`
 [no changes]
  Updating `/tmp/jl_JzHTiS/Manifest.toml`
 [no changes]
  Building Nemo ────────────→ `~/.julia/packages/Nemo/qzx0m/deps/build.log`
  Updating `/tmp/jl_ucyLEZ/Project.toml`
 [no changes]
  Updating `/tmp/jl_ucyLEZ/Manifest.toml`
 [no changes]
   Testing TwoFAST
 Installed Dierckx ─ v0.4.1
  Updating `/tmp/jl_fuuANR/Project.toml`
  [39dd38d3] + Dierckx v0.4.1
  Updating `/tmp/jl_fuuANR/Manifest.toml`
  [39dd38d3] + Dierckx v0.4.1
  Building Dierckx → `~/.julia/packages/Dierckx/9SY4A/deps/build.log`
  Updating `/tmp/jl_lEZ4JE/Project.toml`
 [no changes]
  Updating `/tmp/jl_lEZ4JE/Manifest.toml`
 [no changes]
Running sandbox
Status `/tmp/jl_fuuANR/Project.toml`
  [39dd38d3] Dierckx v0.4.1
  [7a1cc6ca] FFTW v1.2.0
  [5087d2c0] IncGammaBeta v0.1.0
  [2edaba10] Nemo v0.15.1
  [276daf66] SpecialFunctions v0.8.0
  [0dd23c3e] TwoFAST v0.1.0
  [8bb1440f] DelimitedFiles 
  [37e2e46d] LinearAlgebra 
  [56ddb016] Logging 
  [8dfed614] Test 

Welcome to Nemo version 0.15.1

Nemo comes with absolutely no warranty whatsoever


Welcome to Nemo version 0.15.1

Nemo comes with absolutely no warranty whatsoever

Testing ξ(r), ℓ=0, ν=-1 ... passed
Testing ξ(r), ℓ=0, ν=0 ... passed
Testing ξ(r), ℓ=0, ν=1 ... passed
Testing ξ(r), ℓ=0, ν=2 ... passed
Testing ξ(r), ℓ=0, ν=3 ... passed
Testing ξ(r), ℓ=1, ν=0 ... passed
Testing ξ(r), ℓ=1, ν=1 ... passed
Testing ξ(r), ℓ=1, ν=2 ... passed
Testing ξ(r), ℓ=1, ν=3 ... passed
Testing ξ(r), ℓ=2, ν=-1 ... passed
Testing ξ(r), ℓ=2, ν=0 ... passed
Testing ξ(r), ℓ=2, ν=1 ... passed
Testing ξ(r), ℓ=2, ν=2 ... passed
Testing ξ(r), ℓ=2, ν=3 ... passed
Testing ξ(r), ℓ=3, ν=-1 ... passed
Testing ξ(r), ℓ=3, ν=0 ... passed
Testing ξ(r), ℓ=3, ν=1 ... passed
Testing ξ(r), ℓ=3, ν=2 ... passed
Testing ξ(r), ℓ=3, ν=3 ... passed
Testing ξ(r), ℓ=4, ν=-1 ... passed
Testing ξ(r), ℓ=4, ν=0 ... passed
Testing ξ(r), ℓ=4, ν=1 ... passed
Testing ξ(r), ℓ=4, ν=2 ... passed
Testing ξ(r), ℓ=4, ν=3 ... passed
Testing ξ(r) ... passed
Testing ξ′(r) ... passed
Testing ξ″(r) ... passed
Calculating fmax: 
  dlrec    = 4
  dlrecRg1 = -4
  q=1.1, R=1.1:	  5.004105 seconds (1.20 M allocations: 67.954 MiB, 1.94% gc time)

  5.046895 seconds (1.22 M allocations: 69.064 MiB, 1.92% gc time)
ℓ = 1202
Δℓ = 4
ΔℓRg1 = -4
N = 1600
q = 1.1
kmin = 1.0e-5
kmax = 100000.00000000004
χ0 = 0.023029999999999995
RR = RR.tsv
ℓmax = ℓmax.bin
f21 = f21.bin
kmin = 1.0e-5
kmax = 100000.0
dlrec    = 4
dlrecRg1 = -4
Output size: 5741568 bytes = 0.005347251892089844 GiB
Output size: 51264 bytes = 4.774332046508789e-5 GiB
Reading 'out/F21EllCache'...   0.733318 seconds (318.68 k allocations: 16.802 MiB, 10.90% gc time)
ellmax: 1202
lmaxcache: 1202
fell[:,1,1] = Complex{Float64}[3.9583795592771634e-52 - 9.695233714158177e-68im, 3.990121772925759e-52 - 9.772979714843386e-68im]
ell 1202, elapsed: 0.0003669261932373047
ell 1201, elapsed: 2.5346028804779053
ell 1200, elapsed: 0.0006339550018310547
ell 1199, elapsed: 0.0006010532379150391
ell 1198, elapsed: 0.0006010532379150391
ell 1002, elapsed: 0.011440038681030273
ell 1001, elapsed: 0.0005428791046142578
ell 1000, elapsed: 0.0005350112915039062
ell 999, elapsed: 0.0006067752838134766
ell 998, elapsed: 0.0006089210510253906
ell 902, elapsed: 0.005647897720336914
ell 901, elapsed: 0.0005359649658203125
ell 900, elapsed: 0.0005359649658203125
ell 899, elapsed: 0.0005970001220703125
ell 898, elapsed: 0.0005340576171875
ell 802, elapsed: 0.005906820297241211
ell 801, elapsed: 0.0006108283996582031
ell 800, elapsed: 0.0006709098815917969
ell 799, elapsed: 0.0006129741668701172
ell 798, elapsed: 0.0006129741668701172
ell 702, elapsed: 0.006239891052246094
ell 701, elapsed: 0.0006330013275146484
ell 700, elapsed: 0.0004639625549316406
ell 699, elapsed: 0.0006091594696044922
ell 698, elapsed: 0.0006148815155029297
ell 602, elapsed: 0.006310939788818359
ell 601, elapsed: 0.0006229877471923828
ell 600, elapsed: 0.0006189346313476562
ell 599, elapsed: 0.0006158351898193359
ell 598, elapsed: 0.0006189346313476562
ell 502, elapsed: 0.006173849105834961
ell 501, elapsed: 0.0005979537963867188
ell 500, elapsed: 0.0006358623504638672
ell 499, elapsed: 0.0006158351898193359
ell 498, elapsed: 0.0006241798400878906
ell 402, elapsed: 0.006109952926635742
ell 401, elapsed: 0.0006361007690429688
ell 400, elapsed: 0.0006167888641357422
ell 399, elapsed: 0.0006220340728759766
ell 398, elapsed: 0.00061798095703125
ell 302, elapsed: 0.006161212921142578
ell 301, elapsed: 0.0006289482116699219
ell 300, elapsed: 0.0006279945373535156
ell 299, elapsed: 0.0006160736083984375
ell 298, elapsed: 0.0006041526794433594
ell 202, elapsed: 0.00612187385559082
ell 201, elapsed: 0.0005519390106201172
ell 200, elapsed: 0.0005440711975097656
ell 199, elapsed: 0.0005500316619873047
ell 198, elapsed: 0.0005428791046142578
ell 152, elapsed: 0.002989053726196289
ell 151, elapsed: 0.0005431175231933594
ell 150, elapsed: 0.0005431175231933594
ell 149, elapsed: 0.0005459785461425781
ell 148, elapsed: 0.0005528926849365234
ell 127, elapsed: 0.0017361640930175781
ell 126, elapsed: 0.0005490779876708984
ell 125, elapsed: 0.0005478858947753906
ell 124, elapsed: 0.0005469322204589844
ell 123, elapsed: 0.0005609989166259766
ell 114, elapsed: 0.000990152359008789
ell 113, elapsed: 0.0005488395690917969
ell 112, elapsed: 0.0005419254302978516
ell 111, elapsed: 0.0005400180816650391
ell 110, elapsed: 0.0005450248718261719
ell 102, elapsed: 0.0010530948638916016
ell 101, elapsed: 0.0005400180816650391
ell 100, elapsed: 0.0005471706390380859
ell 99, elapsed: 0.0005419254302978516
ell 98, elapsed: 0.0005481243133544922
ell 97, elapsed: 0.0005881786346435547
ell 96, elapsed: 0.0007078647613525391
ell 95, elapsed: 0.0005810260772705078
ell 94, elapsed: 0.0006649494171142578
ell 93, elapsed: 0.000579833984375
ell 92, elapsed: 0.0006628036499023438
ell 91, elapsed: 0.0005891323089599609
ell 90, elapsed: 0.0006890296936035156
ell 89, elapsed: 0.0006580352783203125
ell 88, elapsed: 0.0007500648498535156
ell 87, elapsed: 0.0005509853363037109
ell 86, elapsed: 0.0005838871002197266
ell 85, elapsed: 0.0004961490631103516
ell 84, elapsed: 0.0006389617919921875
ell 83, elapsed: 0.0005021095275878906
ell 82, elapsed: 0.0007219314575195312
ell 81, elapsed: 0.0006489753723144531
ell 80, elapsed: 0.0007300376892089844
ell 79, elapsed: 0.0006380081176757812
ell 78, elapsed: 0.007339000701904297
ell 77, elapsed: 0.0007219314575195312
ell 76, elapsed: 0.0008678436279296875
ell 75, elapsed: 0.0006499290466308594
ell 74, elapsed: 0.0007250308990478516
ell 73, elapsed: 0.0006339550018310547
ell 72, elapsed: 0.0007290840148925781
ell 71, elapsed: 0.0007009506225585938
ell 70, elapsed: 0.0007328987121582031
ell 69, elapsed: 0.0006339550018310547
ell 68, elapsed: 0.0007300376892089844
ell 67, elapsed: 0.0005948543548583984
ell 66, elapsed: 0.0008111000061035156
ell 65, elapsed: 0.000621795654296875
ell 64, elapsed: 0.0007338523864746094
ell 63, elapsed: 0.0006389617919921875
ell 62, elapsed: 0.00072479248046875
ell 61, elapsed: 0.0006320476531982422
ell 60, elapsed: 0.0007901191711425781
ell 59, elapsed: 0.0006389617919921875
ell 58, elapsed: 0.0008280277252197266
ell 57, elapsed: 0.0006530284881591797
ell 56, elapsed: 0.0007259845733642578
ell 55, elapsed: 0.0007109642028808594
ell 54, elapsed: 0.0007338523864746094
ell 53, elapsed: 0.0006029605865478516
ell 52, elapsed: 0.0007200241088867188
ell 51, elapsed: 0.0006430149078369141
ell 50, elapsed: 0.0007228851318359375
ell 49, elapsed: 0.0006899833679199219
ell 48, elapsed: 0.0007388591766357422
ell 47, elapsed: 0.0006392002105712891
ell 46, elapsed: 0.0007159709930419922
ell 45, elapsed: 0.0006630420684814453
ell 44, elapsed: 0.0007870197296142578
ell 43, elapsed: 0.0006449222564697266
ell 42, elapsed: 0.0006840229034423828
ell 41, elapsed: 0.0006399154663085938
ell 40, elapsed: 0.0007250308990478516
ell 39, elapsed: 0.0006349086761474609
ell 38, elapsed: 0.0008051395416259766
ell 37, elapsed: 0.0006020069122314453
ell 36, elapsed: 0.0007200241088867188
ell 35, elapsed: 0.0005979537963867188
ell 34, elapsed: 0.0006539821624755859
ell 33, elapsed: 0.0006349086761474609
ell 32, elapsed: 0.0008060932159423828
ell 31, elapsed: 0.0005829334259033203
ell 30, elapsed: 0.0006580352783203125
ell 29, elapsed: 0.0006489753723144531
ell 28, elapsed: 0.0007250308990478516
ell 27, elapsed: 0.0007050037384033203
ell 26, elapsed: 0.0007240772247314453
ell 25, elapsed: 0.0006389617919921875
ell 24, elapsed: 0.000720977783203125
ell 23, elapsed: 0.0006339550018310547
ell 22, elapsed: 0.0007150173187255859
ell 21, elapsed: 0.0007200241088867188
ell 20, elapsed: 0.0007328987121582031
ell 19, elapsed: 0.0005929470062255859
ell 18, elapsed: 0.0007050037384033203
ell 17, elapsed: 0.0006420612335205078
ell 16, elapsed: 0.0008490085601806641
ell 15, elapsed: 0.0006480216979980469
ell 14, elapsed: 0.0007281303405761719
ell 13, elapsed: 0.0006349086761474609
ell 12, elapsed: 0.0006549358367919922
ell 11, elapsed: 0.0005669593811035156
ell 10, elapsed: 0.0008420944213867188
ell 9, elapsed: 0.0006530284881591797
ell 8, elapsed: 0.0007710456848144531
ell 7, elapsed: 0.0006098747253417969
ell 6, elapsed: 0.000701904296875
ell 5, elapsed: 0.0006239414215087891
ell 4, elapsed: 0.0006668567657470703
ell 3, elapsed: 0.0005788803100585938
ell 2, elapsed: 0.0006690025329589844
ell 1, elapsed: 0.0005929470062255859
ell 0, elapsed: 0.0006649494171142578
  3.524650 seconds (1.75 M allocations: 85.477 MiB, 1.87% gc time)
elapsed: 0.0007529258728027344
step:          0.838035 sec (402.561 k allocations: 20.278 MB, 0.0% gc time)
swapping:      0.00064 sec (0 allocations: 0 byte, 0.0% gc time)
calc_Mellell!: 0.523282 sec (296.399 k allocations: 14.958 MB, 0.0% gc time)
  t0 :  0.0 sec (0 allocations: 0 byte, 0.0% gc time)
  tm2 : 0.0 sec (0 allocations: 0 byte, 0.0% gc time)
  tm2s: 0.0 sec (0 allocations: 0 byte, 0.0% gc time)
  tm4 : 0.0 sec (0 allocations: 0 byte, 0.0% gc time)
  tp2 : 0.0 sec (0 allocations: 0 byte, 0.0% gc time)
  tp2s: 0.0 sec (0 allocations: 0 byte, 0.0% gc time)
  tp4 : 0.0 sec (0 allocations: 0 byte, 0.0% gc time)
calc_wtdll!:   1.330052 sec (525.859 k allocations: 26.376 MB, 1.88% gc time)
calc_wljj!:    0.003824 sec (6 allocations: 96 byte, 0.0% gc time)
mult_prefac!:  0.0 sec (0 allocations: 0 byte, 0.0% gc time)
convert:       0.0 sec (0 allocations: 0 byte, 0.0% gc time)
write:         0.005738 sec (0 allocations: 0 byte, 0.0% gc time)
test_rand_2f1: 0.0 sec (0 allocations: 0 byte, 0.0% gc time)
Closing outfile out/Ml21-cache.bin...   0.000122 seconds
  1.102660 seconds (8.66 k allocations: 420.969 KiB)
make_phi():   0.016122 seconds (8.20 k allocations: 238.016 KiB)
  0.322587 seconds (121.69 k allocations: 5.902 MiB)
tskip:       3.2e-5 sec (0 allocations: 0 byte, 0.0% gc time)
tread:       0.003121 sec (19 allocations: 2.172 KB, 0.0% gc time)
tmultphi:    0.044954 sec (26.022 k allocations: 1.338 MB, 0.0% gc time)
tbrfft:      0.006171 sec (896 allocations: 42.0 KB, 0.0% gc time)
tmultprefac: 0.005165 sec (0 allocations: 0 byte, 0.0% gc time)
toutfunc:    0.263003 sec (94.105 k allocations: 4.451 MB, 0.0% gc time)
Testing R=1.1 ... passed
Calculating fmax: 
  dlrec    = 4
  dlrecRg1 = -4
  q=1.1, R=1.0:	  0.001700 seconds (4.00 k allocations: 300.375 KiB)

  0.002934 seconds (4.04 k allocations: 335.062 KiB)
ℓ = 1202
Δℓ = 4
ΔℓRg1 = -4
N = 1600
q = 1.1
kmin = 1.0e-5
kmax = 100000.00000000004
χ0 = 0.023029999999999995
RR = RR.tsv
ℓmax = ℓmax.bin
f21 = f21.bin
kmin = 1.0e-5
kmax = 100000.0
dlrec    = 4
dlrecRg1 = -4
Output size: 61465536 bytes = 0.05724424123764038 GiB
Output size: 51264 bytes = 4.774332046508789e-5 GiB
Reading 'out/F21EllCache'...   0.001135 seconds (267 allocations: 84.656 KiB)
ellmax: 1202
lmaxcache: 1202
fell[:,1,1] = Complex{Float64}[809.6031528389767 - 1.9829558194077161e-13im, 0.0 + 0.0im]
ell 1202, elapsed: 2.384185791015625e-5
ell 1201, elapsed: 0.015539884567260742
ell 1200, elapsed: 0.0005681514739990234
ell 1199, elapsed: 0.0005609989166259766
ell 1198, elapsed: 0.0005841255187988281
ell 1197, elapsed: 0.0006270408630371094
ell 1196, elapsed: 0.0006201267242431641
ell 1195, elapsed: 0.0007319450378417969
ell 1194, elapsed: 0.0006139278411865234
ell 1193, elapsed: 0.0007278919219970703
ell 1192, elapsed: 0.0007879734039306641
ell 1191, elapsed: 0.0007178783416748047
ell 1190, elapsed: 0.0006160736083984375
ell 1189, elapsed: 0.0007188320159912109
ell 1188, elapsed: 0.0006320476531982422
ell 1187, elapsed: 0.000743865966796875
ell 1186, elapsed: 0.0006248950958251953
ell 1185, elapsed: 0.0007340908050537109
ell 1184, elapsed: 0.0006320476531982422
ell 1183, elapsed: 0.0007228851318359375
ell 1182, elapsed: 0.0006248950958251953
ell 1181, elapsed: 0.0007500648498535156
ell 1180, elapsed: 0.0006320476531982422
ell 1179, elapsed: 0.0007238388061523438
ell 1178, elapsed: 0.00061798095703125
ell 1177, elapsed: 0.0007150173187255859
ell 1176, elapsed: 0.0008099079132080078
ell 1175, elapsed: 0.0007331371307373047
ell 1174, elapsed: 0.0006170272827148438
ell 1173, elapsed: 0.0007128715515136719
ell 1172, elapsed: 0.0006129741668701172
ell 1171, elapsed: 0.0008170604705810547
ell 1170, elapsed: 0.0006389617919921875
ell 1169, elapsed: 0.0007469654083251953
ell 1168, elapsed: 0.0006160736083984375
ell 1167, elapsed: 0.0007109642028808594
ell 1166, elapsed: 0.0006098747253417969
ell 1165, elapsed: 0.0009999275207519531
ell 1164, elapsed: 0.0006201267242431641
ell 1163, elapsed: 0.0007178783416748047
ell 1162, elapsed: 0.0006198883056640625
ell 1161, elapsed: 0.0007128715515136719
ell 1160, elapsed: 0.0008480548858642578
ell 1159, elapsed: 0.0007309913635253906
ell 1158, elapsed: 0.0006139278411865234
ell 1157, elapsed: 0.0007190704345703125
ell 1156, elapsed: 0.0006151199340820312
ell 1155, elapsed: 0.0009961128234863281
ell 1154, elapsed: 0.0006170272827148438
ell 1153, elapsed: 0.0007190704345703125
ell 1152, elapsed: 0.0006251335144042969
ell 1151, elapsed: 0.0007212162017822266
ell 1150, elapsed: 0.0008330345153808594
ell 1149, elapsed: 0.0007269382476806641
ell 1148, elapsed: 0.0006160736083984375
ell 1147, elapsed: 0.0007350444793701172
ell 1146, elapsed: 0.0006191730499267578
ell 1145, elapsed: 0.0007159709930419922
ell 1144, elapsed: 0.0006411075592041016
ell 1143, elapsed: 0.0006840229034423828
ell 1142, elapsed: 0.0006229877471923828
ell 1141, elapsed: 0.0007300376892089844
ell 1140, elapsed: 0.0006139278411865234
ell 1139, elapsed: 0.0007359981536865234
ell 1138, elapsed: 0.0006208419799804688
ell 1137, elapsed: 0.0007231235504150391
ell 1136, elapsed: 0.00061798095703125
ell 1135, elapsed: 0.0007319450378417969
ell 1134, elapsed: 0.0006158351898193359
ell 1133, elapsed: 0.0008249282836914062
ell 1132, elapsed: 0.00061798095703125
ell 1131, elapsed: 0.0007171630859375
ell 1130, elapsed: 0.0006117820739746094
ell 1129, elapsed: 0.0007379055023193359
ell 1128, elapsed: 0.000640869140625
ell 1127, elapsed: 0.0007200241088867188
ell 1126, elapsed: 0.0006160736083984375
ell 1125, elapsed: 0.0007169246673583984
ell 1124, elapsed: 0.0006129741668701172
ell 1123, elapsed: 0.0007271766662597656
ell 1122, elapsed: 0.0006380081176757812
ell 1121, elapsed: 0.0007259845733642578
ell 1120, elapsed: 0.0006089210510253906
ell 1119, elapsed: 0.0007119178771972656
ell 1118, elapsed: 0.0006220340728759766
ell 1117, elapsed: 0.002627849578857422
ell 1116, elapsed: 0.0005669593811035156
ell 1115, elapsed: 0.0007419586181640625
ell 1114, elapsed: 0.0006361007690429688
ell 1113, elapsed: 0.0007231235504150391
ell 1112, elapsed: 0.0006108283996582031
ell 1111, elapsed: 0.0007090568542480469
ell 1110, elapsed: 0.0006120204925537109
ell 1109, elapsed: 0.0007109642028808594
ell 1108, elapsed: 0.0007231235504150391
ell 1107, elapsed: 0.0007340908050537109
ell 1106, elapsed: 0.0006129741668701172
ell 1105, elapsed: 0.0007290840148925781
ell 1104, elapsed: 0.000614166259765625
ell 1103, elapsed: 0.0016050338745117188
ell 1102, elapsed: 0.0005729198455810547
ell 1101, elapsed: 0.0007231235504150391
ell 1100, elapsed: 0.0006120204925537109
ell 1099, elapsed: 0.0007171630859375
ell 1098, elapsed: 0.0007169246673583984
ell 1097, elapsed: 0.0007238388061523438
ell 1096, elapsed: 0.0006160736083984375
ell 1095, elapsed: 0.0007119178771972656
ell 1094, elapsed: 0.0006098747253417969
ell 1093, elapsed: 0.0008101463317871094
ell 1092, elapsed: 0.0006148815155029297
ell 1091, elapsed: 0.0007259845733642578
ell 1090, elapsed: 0.0006129741668701172
ell 1089, elapsed: 0.0007128715515136719
ell 1088, elapsed: 0.0006098747253417969
ell 1087, elapsed: 0.0008318424224853516
ell 1086, elapsed: 0.0006151199340820312
ell 1085, elapsed: 0.0007200241088867188
ell 1084, elapsed: 0.0006101131439208984
ell 1083, elapsed: 0.0007181167602539062
ell 1082, elapsed: 0.0007150173187255859
ell 1081, elapsed: 0.0007240772247314453
ell 1080, elapsed: 0.0006120204925537109
ell 1079, elapsed: 0.0007178783416748047
ell 1078, elapsed: 0.0006120204925537109
ell 1077, elapsed: 0.0007128715515136719
ell 1076, elapsed: 0.0007288455963134766
ell 1075, elapsed: 0.0007200241088867188
ell 1074, elapsed: 0.00061798095703125
ell 1073, elapsed: 0.0007200241088867188
ell 1072, elapsed: 0.0006110668182373047
ell 1071, elapsed: 0.0008120536804199219
ell 1070, elapsed: 0.000614166259765625
ell 1069, elapsed: 0.0007219314575195312
ell 1068, elapsed: 0.0006158351898193359
ell 1067, elapsed: 0.0007138252258300781
ell 1066, elapsed: 0.00061798095703125
ell 1065, elapsed: 0.0008249282836914062
ell 1064, elapsed: 0.0006117820739746094
ell 1063, elapsed: 0.0007169246673583984
ell 1062, elapsed: 0.0006120204925537109
ell 1061, elapsed: 0.0007169246673583984
ell 1060, elapsed: 0.0007748603820800781
ell 1059, elapsed: 0.0007297992706298828
ell 1058, elapsed: 0.0006151199340820312
ell 1057, elapsed: 0.0007090568542480469
ell 1056, elapsed: 0.0006089210510253906
ell 1055, elapsed: 0.0007090568542480469
ell 1054, elapsed: 0.0007181167602539062
ell 1053, elapsed: 0.0007250308990478516
ell 1052, elapsed: 0.0006151199340820312
ell 1051, elapsed: 0.0007109642028808594
ell 1050, elapsed: 0.0006110668182373047
ell 1049, elapsed: 0.0008211135864257812
ell 1048, elapsed: 0.0006151199340820312
ell 1047, elapsed: 0.0007090568542480469
ell 1046, elapsed: 0.0006110668182373047
ell 1045, elapsed: 0.0007121562957763672
ell 1044, elapsed: 0.0006120204925537109
ell 1043, elapsed: 0.0008380413055419922
ell 1042, elapsed: 0.0006151199340820312
ell 1041, elapsed: 0.0007169246673583984
ell 1040, elapsed: 0.0006241798400878906
ell 1039, elapsed: 0.0007240772247314453
ell 1038, elapsed: 0.0007941722869873047
ell 1037, elapsed: 0.0004968643188476562
ell 1036, elapsed: 0.0003910064697265625
ell 1035, elapsed: 0.00048804283142089844
ell 1034, elapsed: 0.0004658699035644531
ell 1033, elapsed: 0.0006699562072753906
ell 1032, elapsed: 0.0003800392150878906
ell 1031, elapsed: 0.0004680156707763672
ell 1030, elapsed: 0.00043201446533203125
ell 1029, elapsed: 0.0004909038543701172
ell 1028, elapsed: 0.0003921985626220703
ell 1027, elapsed: 0.0006010532379150391
ell 1026, elapsed: 0.0006039142608642578
ell 1025, elapsed: 0.0007350444793701172
ell 1024, elapsed: 0.0006339550018310547
ell 1023, elapsed: 0.0007219314575195312
ell 1022, elapsed: 0.0006151199340820312
ell 1021, elapsed: 0.0007228851318359375
ell 1020, elapsed: 0.0006170272827148438
ell 1019, elapsed: 0.0007219314575195312
ell 1018, elapsed: 0.0006380081176757812
ell 1017, elapsed: 0.0007150173187255859
ell 1016, elapsed: 0.0006110668182373047
ell 1015, elapsed: 0.0007100105285644531
ell 1014, elapsed: 0.0006158351898193359
ell 1013, elapsed: 0.0008220672607421875
ell 1012, elapsed: 0.0006101131439208984
ell 1011, elapsed: 0.0007140636444091797
ell 1010, elapsed: 0.0006110668182373047
ell 1009, elapsed: 0.0007140636444091797
ell 1008, elapsed: 0.0006139278411865234
ell 1007, elapsed: 0.0008299350738525391
ell 1006, elapsed: 0.0006270408630371094
ell 1005, elapsed: 0.0007219314575195312
ell 1004, elapsed: 0.0006151199340820312
ell 1003, elapsed: 0.0007231235504150391
ell 1002, elapsed: 0.0006349086761474609
ell 1001, elapsed: 0.0007269382476806641
ell 1000, elapsed: 0.0006198883056640625
ell 999, elapsed: 0.0007250308990478516
ell 998, elapsed: 0.0006201267242431641
ell 997, elapsed: 0.0007238388061523438
ell 996, elapsed: 0.0006420612335205078
ell 995, elapsed: 0.0007231235504150391
ell 994, elapsed: 0.00061798095703125
ell 993, elapsed: 0.0007250308990478516
ell 992, elapsed: 0.0006208419799804688
ell 991, elapsed: 0.0007369518280029297
ell 990, elapsed: 0.0006139278411865234
ell 989, elapsed: 0.0007240772247314453
ell 988, elapsed: 0.0006129741668701172
ell 987, elapsed: 0.0007410049438476562
ell 986, elapsed: 0.0006089210510253906
ell 985, elapsed: 0.0008211135864257812
ell 984, elapsed: 0.0006248950958251953
ell 983, elapsed: 0.0007278919219970703
ell 982, elapsed: 0.0006198883056640625
ell 981, elapsed: 0.0007150173187255859
ell 980, elapsed: 0.0006349086761474609
ell 979, elapsed: 0.0007190704345703125
ell 978, elapsed: 0.0006220340728759766
ell 977, elapsed: 0.0007231235504150391
ell 976, elapsed: 0.0006239414215087891
ell 975, elapsed: 0.0007221698760986328
ell 974, elapsed: 0.0006308555603027344
ell 973, elapsed: 0.0007162094116210938
ell 972, elapsed: 0.0006160736083984375
ell 971, elapsed: 0.0007228851318359375
ell 970, elapsed: 0.0006139278411865234
ell 969, elapsed: 0.0007190704345703125
ell 968, elapsed: 0.0006639957427978516
ell 967, elapsed: 0.0007290840148925781
ell 966, elapsed: 0.0006170272827148438
ell 965, elapsed: 0.0007159709930419922
ell 964, elapsed: 0.00061798095703125
ell 963, elapsed: 0.0007390975952148438
ell 962, elapsed: 0.0006182193756103516
ell 961, elapsed: 0.0007178783416748047
ell 960, elapsed: 0.0006158351898193359
ell 959, elapsed: 0.0007150173187255859
ell 958, elapsed: 0.0006120204925537109
ell 957, elapsed: 0.0007340908050537109
ell 956, elapsed: 0.0006120204925537109
ell 955, elapsed: 0.0007159709930419922
ell 954, elapsed: 0.0006189346313476562
ell 953, elapsed: 0.0007131099700927734
ell 952, elapsed: 0.0006270408630371094
ell 951, elapsed: 0.000720977783203125
ell 950, elapsed: 0.0006229877471923828
ell 949, elapsed: 0.0007190704345703125
ell 948, elapsed: 0.0006158351898193359
ell 947, elapsed: 0.0007219314575195312
ell 946, elapsed: 0.0006320476531982422
ell 945, elapsed: 0.000720977783203125
ell 944, elapsed: 0.0006148815155029297
ell 943, elapsed: 0.0007109642028808594
ell 942, elapsed: 0.0006139278411865234
ell 941, elapsed: 0.0007350444793701172
ell 940, elapsed: 0.0006160736083984375
ell 939, elapsed: 0.0007169246673583984
ell 938, elapsed: 0.0006129741668701172
ell 937, elapsed: 0.0007197856903076172
ell 936, elapsed: 0.0006139278411865234
ell 935, elapsed: 0.0007359981536865234
ell 934, elapsed: 0.0006120204925537109
ell 933, elapsed: 0.0007100105285644531
ell 932, elapsed: 0.0006120204925537109
ell 931, elapsed: 0.0007171630859375
ell 930, elapsed: 0.0006320476531982422
ell 929, elapsed: 0.0007531642913818359
ell 928, elapsed: 0.0006160736083984375
ell 927, elapsed: 0.0007259845733642578
ell 926, elapsed: 0.0006189346313476562
ell 925, elapsed: 0.0007181167602539062
ell 924, elapsed: 0.000637054443359375
ell 923, elapsed: 0.0007178783416748047
ell 922, elapsed: 0.0006129741668701172
ell 921, elapsed: 0.0007131099700927734
ell 920, elapsed: 0.0006201267242431641
ell 919, elapsed: 0.0007131099700927734
ell 918, elapsed: 0.0006289482116699219
ell 917, elapsed: 0.0007181167602539062
ell 916, elapsed: 0.0006189346313476562
ell 915, elapsed: 0.000720977783203125
ell 914, elapsed: 0.0006189346313476562
ell 913, elapsed: 0.0007288455963134766
ell 912, elapsed: 0.0006167888641357422
ell 911, elapsed: 0.0007190704345703125
ell 910, elapsed: 0.0006110668182373047
ell 909, elapsed: 0.0007181167602539062
ell 908, elapsed: 0.0006110668182373047
ell 907, elapsed: 0.0007338523864746094
ell 906, elapsed: 0.00061798095703125
ell 905, elapsed: 0.0007178783416748047
ell 904, elapsed: 0.0006160736083984375
ell 903, elapsed: 0.0007150173187255859
ell 902, elapsed: 0.0006167888641357422
ell 901, elapsed: 0.0007619857788085938
ell 900, elapsed: 0.0006201267242431641
ell 899, elapsed: 0.0007250308990478516
ell 898, elapsed: 0.0005700588226318359
ell 897, elapsed: 0.0005822181701660156
ell 896, elapsed: 0.0004899501800537109
ell 895, elapsed: 0.0007300376892089844
ell 894, elapsed: 0.0005040168762207031
ell 893, elapsed: 0.0004949569702148438
ell 892, elapsed: 0.00039505958557128906
ell 891, elapsed: 0.0004730224609375
ell 890, elapsed: 0.0003921985626220703
ell 889, elapsed: 0.0004730224609375
ell 888, elapsed: 0.00040912628173828125
ell 887, elapsed: 0.0004749298095703125
ell 886, elapsed: 0.00039386749267578125
ell 885, elapsed: 0.00047707557678222656
ell 884, elapsed: 0.00039386749267578125
ell 883, elapsed: 0.0004761219024658203
ell 882, elapsed: 0.0003859996795654297
ell 881, elapsed: 0.0004589557647705078
ell 880, elapsed: 0.0003838539123535156
ell 879, elapsed: 0.0004649162292480469
ell 878, elapsed: 0.00038504600524902344
ell 877, elapsed: 0.00045800209045410156
ell 876, elapsed: 0.00039005279541015625
ell 875, elapsed: 0.0004520416259765625
ell 874, elapsed: 0.00038814544677734375
ell 873, elapsed: 0.0004630088806152344
ell 872, elapsed: 0.00038886070251464844
ell 871, elapsed: 0.0004608631134033203
ell 870, elapsed: 0.0004899501800537109
ell 869, elapsed: 0.0004699230194091797
ell 868, elapsed: 0.00038695335388183594
ell 867, elapsed: 0.00045680999755859375
ell 866, elapsed: 0.00038504600524902344
ell 865, elapsed: 0.00045490264892578125
ell 864, elapsed: 0.00038695335388183594
ell 863, elapsed: 0.0004661083221435547
ell 862, elapsed: 0.0003910064697265625
ell 861, elapsed: 0.0004742145538330078
ell 860, elapsed: 0.00039005279541015625
ell 859, elapsed: 0.00045800209045410156
ell 858, elapsed: 0.00039005279541015625
ell 857, elapsed: 0.0004558563232421875
ell 856, elapsed: 0.0003809928894042969
ell 855, elapsed: 0.00045800209045410156
ell 854, elapsed: 0.0003879070281982422
ell 853, elapsed: 0.0005559921264648438
ell 852, elapsed: 0.000392913818359375
ell 851, elapsed: 0.00046896934509277344
ell 850, elapsed: 0.00038814544677734375
ell 849, elapsed: 0.0004680156707763672
ell 848, elapsed: 0.0003898143768310547
ell 847, elapsed: 0.0004639625549316406
ell 846, elapsed: 0.00039696693420410156
ell 845, elapsed: 0.0004849433898925781
ell 844, elapsed: 0.0004019737243652344
ell 843, elapsed: 0.0004699230194091797
ell 842, elapsed: 0.00038504600524902344
ell 841, elapsed: 0.0004711151123046875
ell 840, elapsed: 0.00038504600524902344
ell 839, elapsed: 0.00045990943908691406
ell 838, elapsed: 0.00038886070251464844
ell 837, elapsed: 0.0004649162292480469
ell 836, elapsed: 0.0003879070281982422
ell 835, elapsed: 0.0004668235778808594
ell 834, elapsed: 0.00038504600524902344
ell 833, elapsed: 0.0004608631134033203
ell 832, elapsed: 0.0003819465637207031
ell 831, elapsed: 0.00045800209045410156
ell 830, elapsed: 0.00038504600524902344
ell 829, elapsed: 0.00045418739318847656
ell 828, elapsed: 0.00038695335388183594
ell 827, elapsed: 0.0004680156707763672
ell 826, elapsed: 0.00038504600524902344
ell 825, elapsed: 0.00045299530029296875
ell 824, elapsed: 0.00038504600524902344
ell 823, elapsed: 0.0004630088806152344
ell 822, elapsed: 0.0003838539123535156
ell 821, elapsed: 0.0004620552062988281
ell 820, elapsed: 0.0003838539123535156
ell 819, elapsed: 0.0004611015319824219
ell 818, elapsed: 0.0004658699035644531
ell 817, elapsed: 0.000453948974609375
ell 816, elapsed: 0.0003819465637207031
ell 815, elapsed: 0.00045299530029296875
ell 814, elapsed: 0.0003848075866699219
ell 813, elapsed: 0.00045800209045410156
ell 812, elapsed: 0.0003910064697265625
ell 811, elapsed: 0.0004611015319824219
ell 810, elapsed: 0.0003859996795654297
ell 809, elapsed: 0.00055694580078125
ell 808, elapsed: 0.0003848075866699219
ell 807, elapsed: 0.00045800209045410156
ell 806, elapsed: 0.0003859996795654297
ell 805, elapsed: 0.0004570484161376953
ell 804, elapsed: 0.0003821849822998047
ell 803, elapsed: 0.00045299530029296875
ell 802, elapsed: 0.0003809928894042969
ell 801, elapsed: 0.00045800209045410156
ell 800, elapsed: 0.0007190704345703125
ell 799, elapsed: 0.00047516822814941406
ell 798, elapsed: 0.0003840923309326172
ell 797, elapsed: 0.00045490264892578125
ell 796, elapsed: 0.0003879070281982422
ell 795, elapsed: 0.0004532337188720703
ell 794, elapsed: 0.00038313865661621094
ell 793, elapsed: 0.0004558563232421875
ell 792, elapsed: 0.0005869865417480469
ell 791, elapsed: 0.0004601478576660156
ell 790, elapsed: 0.0003859996795654297
ell 789, elapsed: 0.00045108795166015625
ell 788, elapsed: 0.0003809928894042969
ell 787, elapsed: 0.0004570484161376953
ell 786, elapsed: 0.0003829002380371094
ell 785, elapsed: 0.00045180320739746094
ell 784, elapsed: 0.0004940032958984375
ell 783, elapsed: 0.0004630088806152344
ell 782, elapsed: 0.00038695335388183594
ell 781, elapsed: 0.00045800209045410156
ell 780, elapsed: 0.0003898143768310547
ell 779, elapsed: 0.0004570484161376953
ell 778, elapsed: 0.0003788471221923828
ell 777, elapsed: 0.00045299530029296875
ell 776, elapsed: 0.00038504600524902344
ell 775, elapsed: 0.0005321502685546875
ell 774, elapsed: 0.0003859996795654297
ell 773, elapsed: 0.0004591941833496094
ell 772, elapsed: 0.0003840923309326172
ell 771, elapsed: 0.00046706199645996094
ell 770, elapsed: 0.0003840923309326172
ell 769, elapsed: 0.0004489421844482422
ell 768, elapsed: 0.0003809928894042969
ell 767, elapsed: 0.0005431175231933594
ell 766, elapsed: 0.0003979206085205078
ell 765, elapsed: 0.0004711151123046875
ell 764, elapsed: 0.00038909912109375
ell 763, elapsed: 0.0004570484161376953
ell 762, elapsed: 0.00038504600524902344
ell 761, elapsed: 0.0004589557647705078
ell 760, elapsed: 0.0003879070281982422
ell 759, elapsed: 0.0004589557647705078
ell 758, elapsed: 0.00045490264892578125
ell 757, elapsed: 0.0004680156707763672
ell 756, elapsed: 0.0003910064697265625
ell 755, elapsed: 0.0004668235778808594
ell 754, elapsed: 0.00038695335388183594
ell 753, elapsed: 0.0004570484161376953
ell 752, elapsed: 0.00038313865661621094
ell 751, elapsed: 0.00045490264892578125
ell 750, elapsed: 0.0003840923309326172
ell 749, elapsed: 0.0004680156707763672
ell 748, elapsed: 0.00038695335388183594
ell 747, elapsed: 0.0004589557647705078
ell 746, elapsed: 0.0003859996795654297
ell 745, elapsed: 0.0004589557647705078
ell 744, elapsed: 0.00038886070251464844
ell 743, elapsed: 0.0004680156707763672
ell 742, elapsed: 0.0003879070281982422
ell 741, elapsed: 0.0004601478576660156
ell 740, elapsed: 0.0004000663757324219
ell 739, elapsed: 0.0004551410675048828
ell 738, elapsed: 0.0003838539123535156
ell 737, elapsed: 0.0004520416259765625
ell 736, elapsed: 0.00038313865661621094
ell 735, elapsed: 0.00045299530029296875
ell 734, elapsed: 0.00038504600524902344
ell 733, elapsed: 0.00045800209045410156
ell 732, elapsed: 0.0003848075866699219
ell 731, elapsed: 0.00046896934509277344
ell 730, elapsed: 0.0003848075866699219
ell 729, elapsed: 0.000453948974609375
ell 728, elapsed: 0.00038695335388183594
ell 727, elapsed: 0.00045299530029296875
ell 726, elapsed: 0.0003840923309326172
ell 725, elapsed: 0.00045299530029296875
ell 724, elapsed: 0.0003838539123535156
ell 723, elapsed: 0.00047707557678222656
ell 722, elapsed: 0.0003840923309326172
ell 721, elapsed: 0.0004558563232421875
ell 720, elapsed: 0.00038504600524902344
ell 719, elapsed: 0.0004489421844482422
ell 718, elapsed: 0.00038313865661621094
ell 717, elapsed: 0.0004589557647705078
ell 716, elapsed: 0.0003871917724609375
ell 715, elapsed: 0.00045490264892578125
ell 714, elapsed: 0.0004000663757324219
ell 713, elapsed: 0.00046181678771972656
ell 712, elapsed: 0.0003879070281982422
ell 711, elapsed: 0.00046515464782714844
ell 710, elapsed: 0.0003800392150878906
ell 709, elapsed: 0.0004570484161376953
ell 708, elapsed: 0.0003879070281982422
ell 707, elapsed: 0.0004639625549316406
ell 706, elapsed: 0.00038909912109375
ell 705, elapsed: 0.0004718303680419922
ell 704, elapsed: 0.0003848075866699219
ell 703, elapsed: 0.0004551410675048828
ell 702, elapsed: 0.00038695335388183594
ell 701, elapsed: 0.0004520416259765625
ell 700, elapsed: 0.0003859996795654297
ell 699, elapsed: 0.0004439353942871094
ell 698, elapsed: 0.0003800392150878906
ell 697, elapsed: 0.00045013427734375
ell 696, elapsed: 0.0003979206085205078
ell 695, elapsed: 0.00045299530029296875
ell 694, elapsed: 0.00038313865661621094
ell 693, elapsed: 0.00045299530029296875
ell 692, elapsed: 0.00038504600524902344
ell 691, elapsed: 0.00045609474182128906
ell 690, elapsed: 0.00038695335388183594
ell 689, elapsed: 0.00045108795166015625
ell 688, elapsed: 0.0003819465637207031
ell 687, elapsed: 0.00046706199645996094
ell 686, elapsed: 0.0003879070281982422
ell 685, elapsed: 0.00045490264892578125
ell 684, elapsed: 0.00039005279541015625
ell 683, elapsed: 0.00045800209045410156
ell 682, elapsed: 0.00038909912109375
ell 681, elapsed: 0.0004589557647705078
ell 680, elapsed: 0.00038313865661621094
ell 679, elapsed: 0.00045800209045410156
ell 678, elapsed: 0.00039386749267578125
ell 677, elapsed: 0.00045013427734375
ell 676, elapsed: 0.0003859996795654297
ell 675, elapsed: 0.00044989585876464844
ell 674, elapsed: 0.00038814544677734375
ell 673, elapsed: 0.0004470348358154297
ell 672, elapsed: 0.00038504600524902344
ell 671, elapsed: 0.0004520416259765625
ell 670, elapsed: 0.00037980079650878906
ell 669, elapsed: 0.00046706199645996094
ell 668, elapsed: 0.0003859996795654297
ell 667, elapsed: 0.00044989585876464844
ell 666, elapsed: 0.0003871917724609375
ell 665, elapsed: 0.00045299530029296875
ell 664, elapsed: 0.0003838539123535156
ell 663, elapsed: 0.00045609474182128906
ell 662, elapsed: 0.0003819465637207031
ell 661, elapsed: 0.000453948974609375
ell 660, elapsed: 0.0003960132598876953
ell 659, elapsed: 0.00045800209045410156
ell 658, elapsed: 0.00038313865661621094
ell 657, elapsed: 0.00044989585876464844
ell 656, elapsed: 0.0003840923309326172
ell 655, elapsed: 0.0004649162292480469
ell 654, elapsed: 0.00038313865661621094
ell 653, elapsed: 0.00045609474182128906
ell 652, elapsed: 0.0003910064697265625
ell 651, elapsed: 0.0004749298095703125
ell 650, elapsed: 0.00039196014404296875
ell 649, elapsed: 0.00045990943908691406
ell 648, elapsed: 0.00038909912109375
ell 647, elapsed: 0.000453948974609375
ell 646, elapsed: 0.0003859996795654297
ell 645, elapsed: 0.000453948974609375
ell 644, elapsed: 0.0003838539123535156
ell 643, elapsed: 0.0004680156707763672
ell 642, elapsed: 0.00039696693420410156
ell 641, elapsed: 0.0004570484161376953
ell 640, elapsed: 0.0003819465637207031
ell 639, elapsed: 0.0005550384521484375
ell 638, elapsed: 0.0005488395690917969
ell 637, elapsed: 0.0004868507385253906
ell 636, elapsed: 0.00039505958557128906
ell 635, elapsed: 0.0004820823669433594
ell 634, elapsed: 0.0004100799560546875
ell 633, elapsed: 0.0004830360412597656
ell 632, elapsed: 0.0003998279571533203
ell 631, elapsed: 0.00047898292541503906
ell 630, elapsed: 0.00039505958557128906
ell 629, elapsed: 0.00047707557678222656
ell 628, elapsed: 0.0003979206085205078
ell 627, elapsed: 0.00047087669372558594
ell 626, elapsed: 0.0003998279571533203
ell 625, elapsed: 0.00045800209045410156
ell 624, elapsed: 0.0003871917724609375
ell 623, elapsed: 0.0004620552062988281
ell 622, elapsed: 0.0003879070281982422
ell 621, elapsed: 0.0004649162292480469
ell 620, elapsed: 0.0003871917724609375
ell 619, elapsed: 0.00045990943908691406
ell 618, elapsed: 0.00038504600524902344
ell 617, elapsed: 0.0004780292510986328
ell 616, elapsed: 0.00038504600524902344
ell 615, elapsed: 0.000453948974609375
ell 614, elapsed: 0.00038504600524902344
ell 613, elapsed: 0.0004570484161376953
ell 612, elapsed: 0.00038504600524902344
ell 611, elapsed: 0.0004620552062988281
ell 610, elapsed: 0.0003821849822998047
ell 609, elapsed: 0.00045299530029296875
ell 608, elapsed: 0.0004730224609375
ell 607, elapsed: 0.0004658699035644531
ell 606, elapsed: 0.0003859996795654297
ell 605, elapsed: 0.00045299530029296875
ell 604, elapsed: 0.00038504600524902344
ell 603, elapsed: 0.0004649162292480469
ell 602, elapsed: 0.00038313865661621094
ell 601, elapsed: 0.0004620552062988281
ell 600, elapsed: 0.0003859996795654297
ell 599, elapsed: 0.0005519390106201172
ell 598, elapsed: 0.0003840923309326172
ell 597, elapsed: 0.00045990943908691406
ell 596, elapsed: 0.0003879070281982422
ell 595, elapsed: 0.0004608631134033203
ell 594, elapsed: 0.0003859996795654297
ell 593, elapsed: 0.0004558563232421875
ell 592, elapsed: 0.0003871917724609375
ell 591, elapsed: 0.0005939006805419922
ell 590, elapsed: 0.00038886070251464844
ell 589, elapsed: 0.00046181678771972656
ell 588, elapsed: 0.0003838539123535156
ell 587, elapsed: 0.0004630088806152344
ell 586, elapsed: 0.0003871917724609375
ell 585, elapsed: 0.0004639625549316406
ell 584, elapsed: 0.0003848075866699219
ell 583, elapsed: 0.0004558563232421875
ell 582, elapsed: 0.00046706199645996094
ell 581, elapsed: 0.0004680156707763672
ell 580, elapsed: 0.0003790855407714844
ell 579, elapsed: 0.00045800209045410156
ell 578, elapsed: 0.0003819465637207031
ell 577, elapsed: 0.0004601478576660156
ell 576, elapsed: 0.0003819465637207031
ell 575, elapsed: 0.0004589557647705078
ell 574, elapsed: 0.00038313865661621094
ell 573, elapsed: 0.0005538463592529297
ell 572, elapsed: 0.00038313865661621094
ell 571, elapsed: 0.000453948974609375
ell 570, elapsed: 0.0003859996795654297
ell 569, elapsed: 0.0004611015319824219
ell 568, elapsed: 0.0003829002380371094
ell 567, elapsed: 0.00047397613525390625
ell 566, elapsed: 0.0003859996795654297
ell 565, elapsed: 0.0005550384521484375
ell 564, elapsed: 0.00038504600524902344
ell 563, elapsed: 0.0004680156707763672
ell 562, elapsed: 0.0003840923309326172
ell 561, elapsed: 0.0004520416259765625
ell 560, elapsed: 0.0003829002380371094
ell 559, elapsed: 0.0004570484161376953
ell 558, elapsed: 0.00038504600524902344
ell 557, elapsed: 0.0004611015319824219
ell 556, elapsed: 0.00047206878662109375
ell 555, elapsed: 0.0004658699035644531
ell 554, elapsed: 0.0003819465637207031
ell 553, elapsed: 0.0004558563232421875
ell 552, elapsed: 0.00038886070251464844
ell 551, elapsed: 0.0004570484161376953
ell 550, elapsed: 0.0003829002380371094
ell 549, elapsed: 0.00045990943908691406
ell 548, elapsed: 0.0003859996795654297
ell 547, elapsed: 0.0005478858947753906
ell 546, elapsed: 0.00038504600524902344
ell 545, elapsed: 0.0004570484161376953
ell 544, elapsed: 0.0003840923309326172
ell 543, elapsed: 0.0004620552062988281
ell 542, elapsed: 0.0003809928894042969
ell 541, elapsed: 0.0004570484161376953
ell 540, elapsed: 0.0003829002380371094
ell 539, elapsed: 0.0005350112915039062
ell 538, elapsed: 0.0003840923309326172
ell 537, elapsed: 0.0004620552062988281
ell 536, elapsed: 0.0003809928894042969
ell 535, elapsed: 0.000453948974609375
ell 534, elapsed: 0.0003859996795654297
ell 533, elapsed: 0.0004558563232421875
ell 532, elapsed: 0.0003800392150878906
ell 531, elapsed: 0.0004570484161376953
ell 530, elapsed: 0.0004601478576660156
ell 529, elapsed: 0.00045800209045410156
ell 528, elapsed: 0.00038313865661621094
ell 527, elapsed: 0.00045800209045410156
ell 526, elapsed: 0.00038504600524902344
ell 525, elapsed: 0.0004570484161376953
ell 524, elapsed: 0.0003840923309326172
ell 523, elapsed: 0.00045609474182128906
ell 522, elapsed: 0.00038504600524902344
ell 521, elapsed: 0.0005469322204589844
ell 520, elapsed: 0.0003809928894042969
ell 519, elapsed: 0.0004520416259765625
ell 518, elapsed: 0.0003819465637207031
ell 517, elapsed: 0.0004591941833496094
ell 516, elapsed: 0.0003819465637207031
ell 515, elapsed: 0.00045800209045410156
ell 514, elapsed: 0.00038504600524902344
ell 513, elapsed: 0.00045299530029296875
ell 512, elapsed: 0.0004761219024658203
ell 511, elapsed: 0.0004649162292480469
ell 510, elapsed: 0.0003879070281982422
ell 509, elapsed: 0.0004589557647705078
ell 508, elapsed: 0.0003800392150878906
ell 507, elapsed: 0.0004520416259765625
ell 506, elapsed: 0.00038504600524902344
ell 505, elapsed: 0.0004589557647705078
ell 504, elapsed: 0.0004570484161376953
ell 503, elapsed: 0.0004661083221435547
ell 502, elapsed: 0.00038313865661621094
ell 501, elapsed: 0.0004630088806152344
ell 500, elapsed: 0.0003809928894042969
ell 499, elapsed: 0.00045609474182128906
ell 498, elapsed: 0.00038504600524902344
ell 497, elapsed: 0.00045299530029296875
ell 496, elapsed: 0.0003809928894042969
ell 495, elapsed: 0.0005381107330322266
ell 494, elapsed: 0.0003829002380371094
ell 493, elapsed: 0.0004589557647705078
ell 492, elapsed: 0.00038123130798339844
ell 491, elapsed: 0.0004630088806152344
ell 490, elapsed: 0.0003809928894042969
ell 489, elapsed: 0.00045990943908691406
ell 488, elapsed: 0.0003800392150878906
ell 487, elapsed: 0.00045609474182128906
ell 486, elapsed: 0.0004761219024658203
ell 485, elapsed: 0.00046515464782714844
ell 484, elapsed: 0.0003809928894042969
ell 483, elapsed: 0.00045609474182128906
ell 482, elapsed: 0.0003809928894042969
ell 481, elapsed: 0.00045990943908691406
ell 480, elapsed: 0.0003829002380371094
ell 479, elapsed: 0.00045299530029296875
ell 478, elapsed: 0.0003809928894042969
ell 477, elapsed: 0.0005419254302978516
ell 476, elapsed: 0.0003829002380371094
ell 475, elapsed: 0.00045299530029296875
ell 474, elapsed: 0.0003821849822998047
ell 473, elapsed: 0.00045490264892578125
ell 472, elapsed: 0.0003809928894042969
ell 471, elapsed: 0.0004611015319824219
ell 470, elapsed: 0.0003809928894042969
ell 469, elapsed: 0.0004658699035644531
ell 468, elapsed: 0.0003879070281982422
ell 467, elapsed: 0.0004639625549316406
ell 466, elapsed: 0.0003859996795654297
ell 465, elapsed: 0.0004620552062988281
ell 464, elapsed: 0.00038909912109375
ell 463, elapsed: 0.00045990943908691406
ell 462, elapsed: 0.0003879070281982422
ell 461, elapsed: 0.0004611015319824219
ell 460, elapsed: 0.00040411949157714844
ell 459, elapsed: 0.0004611015319824219
ell 458, elapsed: 0.0003859996795654297
ell 457, elapsed: 0.0004620552062988281
ell 456, elapsed: 0.00038695335388183594
ell 455, elapsed: 0.00045609474182128906
ell 454, elapsed: 0.00038814544677734375
ell 453, elapsed: 0.00045990943908691406
ell 452, elapsed: 0.0003859996795654297
ell 451, elapsed: 0.0004749298095703125
ell 450, elapsed: 0.0003921985626220703
ell 449, elapsed: 0.0004620552062988281
ell 448, elapsed: 0.0003859996795654297
ell 447, elapsed: 0.0004608631134033203
ell 446, elapsed: 0.00039005279541015625
ell 445, elapsed: 0.00046181678771972656
ell 444, elapsed: 0.00038886070251464844
ell 443, elapsed: 0.0004570484161376953
ell 442, elapsed: 0.0004019737243652344
ell 441, elapsed: 0.0004611015319824219
ell 440, elapsed: 0.0003840923309326172
ell 439, elapsed: 0.00045990943908691406
ell 438, elapsed: 0.00038695335388183594
ell 437, elapsed: 0.0004589557647705078
ell 436, elapsed: 0.0003879070281982422
ell 435, elapsed: 0.0004620552062988281
ell 434, elapsed: 0.0003840923309326172
ell 433, elapsed: 0.0004680156707763672
ell 432, elapsed: 0.0003819465637207031
ell 431, elapsed: 0.0004711151123046875
ell 430, elapsed: 0.0003859996795654297
ell 429, elapsed: 0.0004730224609375
ell 428, elapsed: 0.00039005279541015625
ell 427, elapsed: 0.0004611015319824219
ell 426, elapsed: 0.0003838539123535156
ell 425, elapsed: 0.0004620552062988281
ell 424, elapsed: 0.0003859996795654297
ell 423, elapsed: 0.00045418739318847656
ell 422, elapsed: 0.00039196014404296875
ell 421, elapsed: 0.00045990943908691406
ell 420, elapsed: 0.00038695335388183594
ell 419, elapsed: 0.00045800209045410156
ell 418, elapsed: 0.00038504600524902344
ell 417, elapsed: 0.00046706199645996094
ell 416, elapsed: 0.005486011505126953
ell 415, elapsed: 0.0005400180816650391
ell 414, elapsed: 0.00039505958557128906
ell 413, elapsed: 0.00046896934509277344
ell 412, elapsed: 0.00038886070251464844
ell 411, elapsed: 0.00046896934509277344
ell 410, elapsed: 0.0003979206085205078
ell 409, elapsed: 0.0004601478576660156
ell 408, elapsed: 0.00038886070251464844
ell 407, elapsed: 0.00045800209045410156
ell 406, elapsed: 0.0003879070281982422
ell 405, elapsed: 0.0004611015319824219
ell 404, elapsed: 0.0003898143768310547
ell 403, elapsed: 0.00045990943908691406
ell 402, elapsed: 0.0004010200500488281
ell 401, elapsed: 0.0004761219024658203
ell 400, elapsed: 0.0003910064697265625
ell 399, elapsed: 0.00046706199645996094
ell 398, elapsed: 0.00039005279541015625
ell 397, elapsed: 0.0004639625549316406
ell 396, elapsed: 0.00039005279541015625
ell 395, elapsed: 0.0004570484161376953
ell 394, elapsed: 0.0003840923309326172
ell 393, elapsed: 0.0004558563232421875
ell 392, elapsed: 0.00038909912109375
ell 391, elapsed: 0.00045800209045410156
ell 390, elapsed: 0.00038909912109375
ell 389, elapsed: 0.00045990943908691406
ell 388, elapsed: 0.0003840923309326172
ell 387, elapsed: 0.0004680156707763672
ell 386, elapsed: 0.0003838539123535156
ell 385, elapsed: 0.0004620552062988281
ell 384, elapsed: 0.0003910064697265625
ell 383, elapsed: 0.0004889965057373047
ell 382, elapsed: 0.00039005279541015625
ell 381, elapsed: 0.0004608631134033203
ell 380, elapsed: 0.0003838539123535156
ell 379, elapsed: 0.00045299530029296875
ell 378, elapsed: 0.0003871917724609375
ell 377, elapsed: 0.0004558563232421875
ell 376, elapsed: 0.0003819465637207031
ell 375, elapsed: 0.00047087669372558594
ell 374, elapsed: 0.00038814544677734375
ell 373, elapsed: 0.00045680999755859375
ell 372, elapsed: 0.00038695335388183594
ell 371, elapsed: 0.00045800209045410156
ell 370, elapsed: 0.00038504600524902344
ell 369, elapsed: 0.000453948974609375
ell 368, elapsed: 0.0003840923309326172
ell 367, elapsed: 0.00045800209045410156
ell 366, elapsed: 0.0003981590270996094
ell 365, elapsed: 0.00046181678771972656
ell 364, elapsed: 0.00038695335388183594
ell 363, elapsed: 0.00045800209045410156
ell 362, elapsed: 0.0003840923309326172
ell 361, elapsed: 0.000453948974609375
ell 360, elapsed: 0.0003840923309326172
ell 359, elapsed: 0.00045609474182128906
ell 358, elapsed: 0.0003838539123535156
ell 357, elapsed: 0.00046706199645996094
ell 356, elapsed: 0.0003840923309326172
ell 355, elapsed: 0.00045990943908691406
ell 354, elapsed: 0.00038909912109375
ell 353, elapsed: 0.00046181678771972656
ell 352, elapsed: 0.0003840923309326172
ell 351, elapsed: 0.00046896934509277344
ell 350, elapsed: 0.00038909912109375
ell 349, elapsed: 0.00045990943908691406
ell 348, elapsed: 0.0003972053527832031
ell 347, elapsed: 0.00045680999755859375
ell 346, elapsed: 0.0003879070281982422
ell 345, elapsed: 0.0004611015319824219
ell 344, elapsed: 0.00038504600524902344
ell 343, elapsed: 0.0004630088806152344
ell 342, elapsed: 0.00038814544677734375
ell 341, elapsed: 0.0004589557647705078
ell 340, elapsed: 0.00038695335388183594
ell 339, elapsed: 0.00047397613525390625
ell 338, elapsed: 0.00040221214294433594
ell 337, elapsed: 0.00045990943908691406
ell 336, elapsed: 0.0003910064697265625
ell 335, elapsed: 0.0004630088806152344
ell 334, elapsed: 0.00038909912109375
ell 333, elapsed: 0.0004639625549316406
ell 332, elapsed: 0.0003960132598876953
ell 331, elapsed: 0.0004611015319824219
ell 330, elapsed: 0.00039696693420410156
ell 329, elapsed: 0.0004668235778808594
ell 328, elapsed: 0.00038886070251464844
ell 327, elapsed: 0.00046706199645996094
ell 326, elapsed: 0.0003879070281982422
ell 325, elapsed: 0.000453948974609375
ell 324, elapsed: 0.0003879070281982422
ell 323, elapsed: 0.0004718303680419922
ell 322, elapsed: 0.0003819465637207031
ell 321, elapsed: 0.0005509853363037109
ell 320, elapsed: 0.0003838539123535156
ell 319, elapsed: 0.0004661083221435547
ell 318, elapsed: 0.00038814544677734375
ell 317, elapsed: 0.00045990943908691406
ell 316, elapsed: 0.00038695335388183594
ell 315, elapsed: 0.0004591941833496094
ell 314, elapsed: 0.00038504600524902344
ell 313, elapsed: 0.00047516822814941406
ell 312, elapsed: 0.0003840923309326172
ell 311, elapsed: 0.00046181678771972656
ell 310, elapsed: 0.0003838539123535156
ell 309, elapsed: 0.0004661083221435547
ell 308, elapsed: 0.0003829002380371094
ell 307, elapsed: 0.0004570484161376953
ell 306, elapsed: 0.00038313865661621094
ell 305, elapsed: 0.0004589557647705078
ell 304, elapsed: 0.00039696693420410156
ell 303, elapsed: 0.0004570484161376953
ell 302, elapsed: 0.0003840923309326172
ell 301, elapsed: 0.00045800209045410156
ell 300, elapsed: 0.0003819465637207031
ell 299, elapsed: 0.0004601478576660156
ell 298, elapsed: 0.00038504600524902344
ell 297, elapsed: 0.00046181678771972656
ell 296, elapsed: 0.00038504600524902344
ell 295, elapsed: 0.00047206878662109375
ell 294, elapsed: 0.0003859996795654297
ell 293, elapsed: 0.00045299530029296875
ell 292, elapsed: 0.00038695335388183594
ell 291, elapsed: 0.0004589557647705078
ell 290, elapsed: 0.0003840923309326172
ell 289, elapsed: 0.00045990943908691406
ell 288, elapsed: 0.00039196014404296875
ell 287, elapsed: 0.0004589557647705078
ell 286, elapsed: 0.00039505958557128906
ell 285, elapsed: 0.0004711151123046875
ell 284, elapsed: 0.00038695335388183594
ell 283, elapsed: 0.00045299530029296875
ell 282, elapsed: 0.0003859996795654297
ell 281, elapsed: 0.00045990943908691406
ell 280, elapsed: 0.0003840923309326172
ell 279, elapsed: 0.0004668235778808594
ell 278, elapsed: 0.0003879070281982422
ell 277, elapsed: 0.000476837158203125
ell 276, elapsed: 0.0003840923309326172
ell 275, elapsed: 0.0004611015319824219
ell 274, elapsed: 0.0003838539123535156
ell 273, elapsed: 0.00045800209045410156
ell 272, elapsed: 0.0003859996795654297
ell 271, elapsed: 0.0004658699035644531
ell 270, elapsed: 0.0003879070281982422
ell 269, elapsed: 0.00047087669372558594
ell 268, elapsed: 0.0003859996795654297
ell 267, elapsed: 0.00045609474182128906
ell 266, elapsed: 0.00038695335388183594
ell 265, elapsed: 0.0004611015319824219
ell 264, elapsed: 0.0003840923309326172
ell 263, elapsed: 0.0004668235778808594
ell 262, elapsed: 0.00038313865661621094
ell 261, elapsed: 0.00045800209045410156
ell 260, elapsed: 0.0003991127014160156
ell 259, elapsed: 0.0004639625549316406
ell 258, elapsed: 0.00038504600524902344
ell 257, elapsed: 0.00045800209045410156
ell 256, elapsed: 0.00038504600524902344
ell 255, elapsed: 0.00046896934509277344
ell 254, elapsed: 0.0003879070281982422
ell 253, elapsed: 0.00045990943908691406
ell 252, elapsed: 0.00038886070251464844
ell 251, elapsed: 0.00047397613525390625
ell 250, elapsed: 0.0003840923309326172
ell 249, elapsed: 0.00045990943908691406
ell 248, elapsed: 0.00038504600524902344
ell 247, elapsed: 0.00046515464782714844
ell 246, elapsed: 0.00038313865661621094
ell 245, elapsed: 0.0004620552062988281
ell 244, elapsed: 0.00038909912109375
ell 243, elapsed: 0.0004570484161376953
ell 242, elapsed: 0.00039696693420410156
ell 241, elapsed: 0.00045800209045410156
ell 240, elapsed: 0.0003840923309326172
ell 239, elapsed: 0.00045490264892578125
ell 238, elapsed: 0.0003910064697265625
ell 237, elapsed: 0.00045990943908691406
ell 236, elapsed: 0.0003910064697265625
ell 235, elapsed: 0.0004630088806152344
ell 234, elapsed: 0.0003879070281982422
ell 233, elapsed: 0.00047016143798828125
ell 232, elapsed: 0.0003859996795654297
ell 231, elapsed: 0.00045800209045410156
ell 230, elapsed: 0.00038504600524902344
ell 229, elapsed: 0.00045800209045410156
ell 228, elapsed: 0.0003829002380371094
ell 227, elapsed: 0.0004601478576660156
ell 226, elapsed: 0.0003941059112548828
ell 225, elapsed: 0.0007150173187255859
ell 224, elapsed: 0.0005881786346435547
ell 223, elapsed: 0.0007240772247314453
ell 222, elapsed: 0.0005841255187988281
ell 221, elapsed: 0.0008249282836914062
ell 220, elapsed: 0.0005159378051757812
ell 219, elapsed: 0.00049591064453125
ell 218, elapsed: 0.0005462169647216797
ell 217, elapsed: 0.0007200241088867188
ell 216, elapsed: 0.0004940032958984375
ell 215, elapsed: 0.0005409717559814453
ell 214, elapsed: 0.0004968643188476562
ell 213, elapsed: 0.0007410049438476562
ell 212, elapsed: 0.0006079673767089844
ell 211, elapsed: 0.0007100105285644531
ell 210, elapsed: 0.0006220340728759766
ell 209, elapsed: 0.0007488727569580078
ell 208, elapsed: 0.0005757808685302734
ell 207, elapsed: 0.0006091594696044922
ell 206, elapsed: 0.0003941059112548828
ell 205, elapsed: 0.0004699230194091797
ell 204, elapsed: 0.0005290508270263672
ell 203, elapsed: 0.0005860328674316406
ell 202, elapsed: 0.0005040168762207031
ell 201, elapsed: 0.0006310939788818359
ell 200, elapsed: 0.00038909912109375
ell 199, elapsed: 0.00047087669372558594
ell 198, elapsed: 0.00039505958557128906
ell 197, elapsed: 0.00047397613525390625
ell 196, elapsed: 0.0003790855407714844
ell 195, elapsed: 0.0005640983581542969
ell 194, elapsed: 0.0006260871887207031
ell 193, elapsed: 0.0006628036499023438
ell 192, elapsed: 0.0005981922149658203
ell 191, elapsed: 0.0005910396575927734
ell 190, elapsed: 0.0004999637603759766
ell 189, elapsed: 0.0006182193756103516
ell 188, elapsed: 0.00040411949157714844
ell 187, elapsed: 0.0004849433898925781
ell 186, elapsed: 0.0003941059112548828
ell 185, elapsed: 0.0005898475646972656
ell 184, elapsed: 0.0005869865417480469
ell 183, elapsed: 0.0006079673767089844
ell 182, elapsed: 0.0005078315734863281
ell 181, elapsed: 0.0005860328674316406
ell 180, elapsed: 0.0003948211669921875
ell 179, elapsed: 0.0005640983581542969
ell 178, elapsed: 0.0006129741668701172
ell 177, elapsed: 0.0005538463592529297
ell 176, elapsed: 0.0005209445953369141
ell 175, elapsed: 0.0005869865417480469
ell 174, elapsed: 0.00038695335388183594
ell 173, elapsed: 0.0004870891571044922
ell 172, elapsed: 0.0005631446838378906
ell 171, elapsed: 0.0005447864532470703
ell 170, elapsed: 0.00038909912109375
ell 169, elapsed: 0.0004680156707763672
ell 168, elapsed: 0.0003800392150878906
ell 167, elapsed: 0.0006690025329589844
ell 166, elapsed: 0.0006201267242431641
ell 165, elapsed: 0.0005869865417480469
ell 164, elapsed: 0.0004961490631103516
ell 163, elapsed: 0.0007390975952148438
ell 162, elapsed: 0.0005030632019042969
ell 161, elapsed: 0.00047397613525390625
ell 160, elapsed: 0.0003848075866699219
ell 159, elapsed: 0.00047397613525390625
ell 158, elapsed: 0.0003750324249267578
ell 157, elapsed: 0.0006690025329589844
ell 156, elapsed: 0.0006079673767089844
ell 155, elapsed: 0.0005559921264648438
ell 154, elapsed: 0.0004658699035644531
ell 153, elapsed: 0.0007610321044921875
ell 152, elapsed: 0.0005171298980712891
ell 151, elapsed: 0.0004360675811767578
ell 150, elapsed: 0.0004398822784423828
ell 149, elapsed: 0.0006349086761474609
ell 148, elapsed: 0.0005331039428710938
ell 147, elapsed: 0.0005660057067871094
ell 146, elapsed: 0.0003941059112548828
ell 145, elapsed: 0.0006649494171142578
ell 144, elapsed: 0.000514984130859375
ell 143, elapsed: 0.0006678104400634766
ell 142, elapsed: 0.0003800392150878906
ell 141, elapsed: 0.0005910396575927734
ell 140, elapsed: 0.0006110668182373047
ell 139, elapsed: 0.0005819797515869141
ell 138, elapsed: 0.00038695335388183594
ell 137, elapsed: 0.0004680156707763672
ell 136, elapsed: 0.0004508495330810547
ell 135, elapsed: 0.0007290840148925781
ell 134, elapsed: 0.0006051063537597656
ell 133, elapsed: 0.0005540847778320312
ell 132, elapsed: 0.0004119873046875
ell 131, elapsed: 0.0004200935363769531
ell 130, elapsed: 0.0005619525909423828
ell 129, elapsed: 0.0005440711975097656
ell 128, elapsed: 0.00038909912109375
ell 127, elapsed: 0.00047206878662109375
ell 126, elapsed: 0.0003829002380371094
ell 125, elapsed: 0.0004601478576660156
ell 124, elapsed: 0.0003879070281982422
ell 123, elapsed: 0.0006289482116699219
ell 122, elapsed: 0.0004649162292480469
ell 121, elapsed: 0.0005910396575927734
ell 120, elapsed: 0.0005350112915039062
ell 119, elapsed: 0.0004642009735107422
ell 118, elapsed: 0.00038695335388183594
ell 117, elapsed: 0.0005829334259033203
ell 116, elapsed: 0.0006310939788818359
ell 115, elapsed: 0.0007240772247314453
ell 114, elapsed: 0.00045013427734375
ell 113, elapsed: 0.00045990943908691406
ell 112, elapsed: 0.0003800392150878906
ell 111, elapsed: 0.00046706199645996094
ell 110, elapsed: 0.0003528594970703125
ell 109, elapsed: 0.0006639957427978516
ell 108, elapsed: 0.0004508495330810547
ell 107, elapsed: 0.0004470348358154297
ell 106, elapsed: 0.000392913818359375
ell 105, elapsed: 0.0004699230194091797
ell 104, elapsed: 0.00037097930908203125
ell 103, elapsed: 0.00047707557678222656
ell 102, elapsed: 0.000514984130859375
ell 101, elapsed: 0.0006129741668701172
ell 100, elapsed: 0.00039887428283691406
ell 99, elapsed: 0.0005750656127929688
ell 98, elapsed: 0.0005309581756591797
ell 97, elapsed: 0.0004680156707763672
ell 96, elapsed: 0.0003972053527832031
ell 95, elapsed: 0.00047397613525390625
ell 94, elapsed: 0.0004010200500488281
ell 93, elapsed: 0.0004968643188476562
ell 92, elapsed: 0.0003848075866699219
ell 91, elapsed: 0.00048804283142089844
ell 90, elapsed: 0.0005099773406982422
ell 89, elapsed: 0.0006268024444580078
ell 88, elapsed: 0.0003809928894042969
ell 87, elapsed: 0.0004680156707763672
ell 86, elapsed: 0.000392913818359375
ell 85, elapsed: 0.0006439685821533203
ell 84, elapsed: 0.0004680156707763672
ell 83, elapsed: 0.00045800209045410156
ell 82, elapsed: 0.00039005279541015625
ell 81, elapsed: 0.0006380081176757812
ell 80, elapsed: 0.0005941390991210938
ell 79, elapsed: 0.0006031990051269531
ell 78, elapsed: 0.0004019737243652344
ell 77, elapsed: 0.0006411075592041016
ell 76, elapsed: 0.0004780292510986328
ell 75, elapsed: 0.0004749298095703125
ell 74, elapsed: 0.0005190372467041016
ell 73, elapsed: 0.0006000995635986328
ell 72, elapsed: 0.0003921985626220703
ell 71, elapsed: 0.0006570816040039062
ell 70, elapsed: 0.0004761219024658203
ell 69, elapsed: 0.00047707557678222656
ell 68, elapsed: 0.00047898292541503906
ell 67, elapsed: 0.0006592273712158203
ell 66, elapsed: 0.0003979206085205078
ell 65, elapsed: 0.0006499290466308594
ell 64, elapsed: 0.0005500316619873047
ell 63, elapsed: 0.00047516822814941406
ell 62, elapsed: 0.0005381107330322266
ell 61, elapsed: 0.0007328987121582031
ell 60, elapsed: 0.00043201446533203125
ell 59, elapsed: 0.0006499290466308594
ell 58, elapsed: 0.0004642009735107422
ell 57, elapsed: 0.0004889965057373047
ell 56, elapsed: 0.00033020973205566406
ell 55, elapsed: 0.00055694580078125
ell 54, elapsed: 0.0005490779876708984
ell 53, elapsed: 0.0006639957427978516
ell 52, elapsed: 0.00047087669372558594
ell 51, elapsed: 0.0005879402160644531
ell 50, elapsed: 0.0005939006805419922
ell 49, elapsed: 0.0007319450378417969
ell 48, elapsed: 0.00048089027404785156
ell 47, elapsed: 0.00047588348388671875
ell 46, elapsed: 0.0005562305450439453
ell 45, elapsed: 0.0005519390106201172
ell 44, elapsed: 0.00039887428283691406
ell 43, elapsed: 0.0005800724029541016
ell 42, elapsed: 0.0005500316619873047
ell 41, elapsed: 0.0004799365997314453
ell 40, elapsed: 0.0004489421844482422
ell 39, elapsed: 0.0006699562072753906
ell 38, elapsed: 0.0005710124969482422
ell 37, elapsed: 0.0006451606750488281
ell 36, elapsed: 0.0005660057067871094
ell 35, elapsed: 0.0005638599395751953
ell 34, elapsed: 0.0003981590270996094
ell 33, elapsed: 0.0004680156707763672
ell 32, elapsed: 0.0004329681396484375
ell 31, elapsed: 0.0006711483001708984
ell 30, elapsed: 0.0005450248718261719
ell 29, elapsed: 0.000637054443359375
ell 28, elapsed: 0.00047707557678222656
ell 27, elapsed: 0.0006339550018310547
ell 26, elapsed: 0.0005578994750976562
ell 25, elapsed: 0.0005788803100585938
ell 24, elapsed: 0.0005578994750976562
ell 23, elapsed: 0.0005841255187988281
ell 22, elapsed: 0.0003960132598876953
ell 21, elapsed: 0.0005850791931152344
ell 20, elapsed: 0.000537872314453125
ell 19, elapsed: 0.00047707557678222656
ell 18, elapsed: 0.00039315223693847656
ell 17, elapsed: 0.0006039142608642578
ell 16, elapsed: 0.0006210803985595703
ell 15, elapsed: 0.00048089027404785156
ell 14, elapsed: 0.000286102294921875
ell 13, elapsed: 0.00033092498779296875
ell 12, elapsed: 0.0002841949462890625
ell 11, elapsed: 0.0003371238708496094
ell 10, elapsed: 0.0002970695495605469
ell 9, elapsed: 0.00035309791564941406
ell 8, elapsed: 0.0002841949462890625
ell 7, elapsed: 0.00034308433532714844
ell 6, elapsed: 0.0002868175506591797
ell 5, elapsed: 0.0003440380096435547
ell 4, elapsed: 0.00038504600524902344
ell 3, elapsed: 0.00035691261291503906
ell 2, elapsed: 0.0005409717559814453
ell 1, elapsed: 0.0007309913635253906
ell 0, elapsed: 0.0004649162292480469
  0.676628 seconds (41.19 k allocations: 2.939 MiB)
elapsed: 0.0010008811950683594
step:          0.077239 sec (0 allocations: 0 byte, 0.0% gc time)
swapping:      0.000818 sec (0 allocations: 0 byte, 0.0% gc time)
calc_Mellell!: 0.012322 sec (0 allocations: 0 byte, 0.0% gc time)
  t0 :  0.002367 sec (0 allocations: 0 byte, 0.0% gc time)
  tm2 : 0.107292 sec (0 allocations: 0 byte, 0.0% gc time)
  tm2s: 0.002127 sec (0 allocations: 0 byte, 0.0% gc time)
  tm4 : 0.281772 sec (0 allocations: 0 byte, 0.0% gc time)
  tp2 : 0.0 sec (0 allocations: 0 byte, 0.0% gc time)
  tp2s: 0.0 sec (0 allocations: 0 byte, 0.0% gc time)
  tp4 : 0.0 sec (0 allocations: 0 byte, 0.0% gc time)
calc_wtdll!:   0.412944 sec (9.87 k allocations: 1.043 MB, 0.0% gc time)
calc_wljj!:    0.044714 sec (689 allocations: 10.766 KB, 0.0% gc time)
mult_prefac!:  0.0 sec (0 allocations: 0 byte, 0.0% gc time)
convert:       0.0 sec (0 allocations: 0 byte, 0.0% gc time)
write:         0.057596 sec (0 allocations: 0 byte, 0.0% gc time)
test_rand_2f1: 0.0 sec (0 allocations: 0 byte, 0.0% gc time)
Closing outfile out/Ml21-cache.bin...   0.036958 seconds
  0.000654 seconds (52 allocations: 28.297 KiB)
make_phi():   0.003006 seconds (8.20 k allocations: 238.016 KiB)
  0.194363 seconds (146.69 k allocations: 3.629 MiB)
tskip:       0.001332 sec (0 allocations: 0 byte, 0.0% gc time)
tread:       0.02739 sec (19 allocations: 10.688 KB, 0.0% gc time)
tmultphi:    0.014578 sec (0 allocations: 0 byte, 0.0% gc time)
tbrfft:      0.049727 sec (9.592 k allocations: 449.625 KB, 0.0% gc time)
tmultprefac: 0.036901 sec (0 allocations: 0 byte, 0.0% gc time)
toutfunc:    0.062506 sec (129.905 k allocations: 2.421 MB, 0.0% gc time)
Testing R=1.0 ... passed
Calculating fmax: 
  dlrec    = 4
  dlrecRg1 = -4
  q=1.1, R=0.9:	  0.469184 seconds (116.47 k allocations: 15.614 MiB, 3.63% gc time)

  0.469467 seconds (116.51 k allocations: 15.648 MiB, 3.63% gc time)
ℓ = 1202
Δℓ = 4
ΔℓRg1 = -4
N = 1600
q = 1.1
kmin = 1.0e-5
kmax = 100000.00000000004
χ0 = 0.023029999999999995
RR = RR.tsv
ℓmax = ℓmax.bin
f21 = f21.bin
kmin = 1.0e-5
kmax = 100000.0
dlrec    = 4
dlrecRg1 = -4
Output size: 5741568 bytes = 0.005347251892089844 GiB
Output size: 51264 bytes = 4.774332046508789e-5 GiB
Reading 'out/F21EllCache'...   0.001458 seconds (267 allocations: 84.656 KiB)
ellmax: 1202
lmaxcache: 1202
fell[:,1,1] = Complex{Float64}[1.3482014726274674e-57 - 3.302141236118086e-73im, 1.357860004724329e-57 - 3.3257978169518355e-73im]
ell 1202, elapsed: 2.09808349609375e-5
ell 1201, elapsed: 0.0004608631134033203
ell 1200, elapsed: 0.0004220008850097656
ell 1199, elapsed: 0.00041604042053222656
ell 1198, elapsed: 0.0004138946533203125
ell 1002, elapsed: 0.010326862335205078
ell 1001, elapsed: 0.0003750324249267578
ell 1000, elapsed: 0.00035500526428222656
ell 999, elapsed: 0.0003540515899658203
ell 998, elapsed: 0.00035500526428222656
ell 902, elapsed: 0.004873991012573242
ell 901, elapsed: 0.00038814544677734375
ell 900, elapsed: 0.0003600120544433594
ell 899, elapsed: 0.0004360675811767578
ell 898, elapsed: 0.0003540515899658203
ell 802, elapsed: 0.004995107650756836
ell 801, elapsed: 0.00043702125549316406
ell 800, elapsed: 0.00055694580078125
ell 799, elapsed: 0.0004749298095703125
ell 798, elapsed: 0.0003540515899658203
ell 702, elapsed: 0.00492095947265625
ell 701, elapsed: 0.00037598609924316406
ell 700, elapsed: 0.0004429817199707031
ell 699, elapsed: 0.0005409717559814453
ell 698, elapsed: 0.0003609657287597656
ell 602, elapsed: 0.005181074142456055
ell 601, elapsed: 0.0006117820739746094
ell 600, elapsed: 0.0003571510314941406
ell 599, elapsed: 0.0003559589385986328
ell 598, elapsed: 0.0003540515899658203
ell 502, elapsed: 0.0048980712890625
ell 501, elapsed: 0.00037789344787597656
ell 500, elapsed: 0.00035691261291503906
ell 499, elapsed: 0.00035309791564941406
ell 498, elapsed: 0.0003561973571777344
ell 402, elapsed: 0.0050618648529052734
ell 401, elapsed: 0.00037598609924316406
ell 400, elapsed: 0.0003571510314941406
ell 399, elapsed: 0.00035691261291503906
ell 398, elapsed: 0.00035500526428222656
ell 302, elapsed: 0.004888057708740234
ell 301, elapsed: 0.0006182193756103516
ell 300, elapsed: 0.0004050731658935547
ell 299, elapsed: 0.0003490447998046875
ell 298, elapsed: 0.00034809112548828125
ell 202, elapsed: 0.004951953887939453
ell 201, elapsed: 0.0003688335418701172
ell 200, elapsed: 0.0003561973571777344
ell 199, elapsed: 0.0003528594970703125
ell 198, elapsed: 0.00035309791564941406
ell 152, elapsed: 0.0025980472564697266
ell 151, elapsed: 0.0003681182861328125
ell 150, elapsed: 0.0003590583801269531
ell 149, elapsed: 0.00035500526428222656
ell 148, elapsed: 0.00036907196044921875
ell 127, elapsed: 0.0014910697937011719
ell 126, elapsed: 0.0003631114959716797
ell 125, elapsed: 0.00035381317138671875
ell 124, elapsed: 0.0003540515899658203
ell 123, elapsed: 0.0003559589385986328
ell 114, elapsed: 0.0008120536804199219
ell 113, elapsed: 0.0003590583801269531
ell 112, elapsed: 0.0003540515899658203
ell 111, elapsed: 0.0003528594970703125
ell 110, elapsed: 0.0003540515899658203
ell 102, elapsed: 0.0008699893951416016
ell 101, elapsed: 0.00035691261291503906
ell 100, elapsed: 0.00035500526428222656
ell 99, elapsed: 0.00035500526428222656
ell 98, elapsed: 0.00035691261291503906
ell 97, elapsed: 0.0004761219024658203
ell 96, elapsed: 0.0004928112030029297
ell 95, elapsed: 0.0003960132598876953
ell 94, elapsed: 0.00046896934509277344
ell 93, elapsed: 0.0003960132598876953
ell 92, elapsed: 0.0004649162292480469
ell 91, elapsed: 0.0003941059112548828
ell 90, elapsed: 0.0005490779876708984
ell 89, elapsed: 0.0005841255187988281
ell 88, elapsed: 0.000453948974609375
ell 87, elapsed: 0.00036787986755371094
ell 86, elapsed: 0.0004448890686035156
ell 85, elapsed: 0.0003581047058105469
ell 84, elapsed: 0.000431060791015625
ell 83, elapsed: 0.00037097930908203125
ell 82, elapsed: 0.00044798851013183594
ell 81, elapsed: 0.0003819465637207031
ell 80, elapsed: 0.0005450248718261719
ell 79, elapsed: 0.00038504600524902344
ell 78, elapsed: 0.0004639625549316406
ell 77, elapsed: 0.0003960132598876953
ell 76, elapsed: 0.0004639625549316406
ell 75, elapsed: 0.0003941059112548828
ell 74, elapsed: 0.00046706199645996094
ell 73, elapsed: 0.00039386749267578125
ell 72, elapsed: 0.0005490779876708984
ell 71, elapsed: 0.00039505958557128906
ell 70, elapsed: 0.0004661083221435547
ell 69, elapsed: 0.00039196014404296875
ell 68, elapsed: 0.0004661083221435547
ell 67, elapsed: 0.0003840923309326172
ell 66, elapsed: 0.00047206878662109375
ell 65, elapsed: 0.00039386749267578125
ell 64, elapsed: 0.0004401206970214844
ell 63, elapsed: 0.0004570484161376953
ell 62, elapsed: 0.00044798851013183594
ell 61, elapsed: 0.00037288665771484375
ell 60, elapsed: 0.0006170272827148438
ell 59, elapsed: 0.00045990943908691406
ell 58, elapsed: 0.0004699230194091797
ell 57, elapsed: 0.0003941059112548828
ell 56, elapsed: 0.00046896934509277344
ell 55, elapsed: 0.0004611015319824219
ell 54, elapsed: 0.0004658699035644531
ell 53, elapsed: 0.0003809928894042969
ell 52, elapsed: 0.0005831718444824219
ell 51, elapsed: 0.0005030632019042969
ell 50, elapsed: 0.0004711151123046875
ell 49, elapsed: 0.00039386749267578125
ell 48, elapsed: 0.00046515464782714844
ell 47, elapsed: 0.0004749298095703125
ell 46, elapsed: 0.0006771087646484375
ell 45, elapsed: 0.0004451274871826172
ell 44, elapsed: 0.00046896934509277344
ell 43, elapsed: 0.00039386749267578125
ell 42, elapsed: 0.0004680156707763672
ell 41, elapsed: 0.0003979206085205078
ell 40, elapsed: 0.0004551410675048828
ell 39, elapsed: 0.0006580352783203125
ell 38, elapsed: 0.0007078647613525391
ell 37, elapsed: 0.0005879402160644531
ell 36, elapsed: 0.0007081031799316406
ell 35, elapsed: 0.0005230903625488281
ell 34, elapsed: 0.0004730224609375
ell 33, elapsed: 0.000492095947265625
ell 32, elapsed: 0.0004761219024658203
ell 31, elapsed: 0.00039505958557128906
ell 30, elapsed: 0.0004611015319824219
ell 29, elapsed: 0.0003960132598876953
ell 28, elapsed: 0.0004830360412597656
ell 27, elapsed: 0.0003910064697265625
ell 26, elapsed: 0.0004761219024658203
ell 25, elapsed: 0.00039505958557128906
ell 24, elapsed: 0.0005679130554199219
ell 23, elapsed: 0.0003991127014160156
ell 22, elapsed: 0.0004870891571044922
ell 21, elapsed: 0.0003981590270996094
ell 20, elapsed: 0.0004818439483642578
ell 19, elapsed: 0.00039887428283691406
ell 18, elapsed: 0.00047516822814941406
ell 17, elapsed: 0.0003981590270996094
ell 16, elapsed: 0.006505012512207031
ell 15, elapsed: 0.000492095947265625
ell 14, elapsed: 0.0005009174346923828
ell 13, elapsed: 0.0004038810729980469
ell 12, elapsed: 0.0005819797515869141
ell 11, elapsed: 0.0004038810729980469
ell 10, elapsed: 0.0004801750183105469
ell 9, elapsed: 0.0003979206085205078
ell 8, elapsed: 0.0004730224609375
ell 7, elapsed: 0.0004019737243652344
ell 6, elapsed: 0.0004680156707763672
ell 5, elapsed: 0.0004010200500488281
ell 4, elapsed: 0.0005688667297363281
ell 3, elapsed: 0.00040411949157714844
ell 2, elapsed: 0.0004830360412597656
ell 1, elapsed: 0.0004000663757324219
ell 0, elapsed: 0.0004749298095703125
  0.134282 seconds (10.83 k allocations: 697.938 KiB)
elapsed: 0.0005331039428710938
step:          0.056772 sec (0 allocations: 0 byte, 0.0% gc time)
swapping:      0.000523 sec (0 allocations: 0 byte, 0.0% gc time)
calc_Mellell!: 0.001531 sec (0 allocations: 0 byte, 0.0% gc time)
  t0 :  0.000407 sec (0 allocations: 0 byte, 0.0% gc time)
  tm2 : 0.013586 sec (0 allocations: 0 byte, 0.0% gc time)
  tm2s: 0.000343 sec (0 allocations: 0 byte, 0.0% gc time)
  tm4 : 0.041565 sec (0 allocations: 0 byte, 0.0% gc time)
  tp2 : 0.0 sec (0 allocations: 0 byte, 0.0% gc time)
  tp2s: 0.0 sec (0 allocations: 0 byte, 0.0% gc time)
  tp4 : 0.0 sec (0 allocations: 0 byte, 0.0% gc time)
calc_wtdll!:   0.056474 sec (1.344 k allocations: 147.0 KB, 0.0% gc time)
calc_wljj!:    0.00429 sec (6 allocations: 96 byte, 0.0% gc time)
mult_prefac!:  0.0 sec (0 allocations: 0 byte, 0.0% gc time)
convert:       0.0 sec (0 allocations: 0 byte, 0.0% gc time)
write:         0.005143 sec (0 allocations: 0 byte, 0.0% gc time)
test_rand_2f1: 0.0 sec (0 allocations: 0 byte, 0.0% gc time)
Closing outfile out/Ml21-cache.bin...   0.002735 seconds
  0.000922 seconds (52 allocations: 28.297 KiB)
make_phi():   0.003275 seconds (8.20 k allocations: 238.016 KiB)
  0.017590 seconds (12.10 k allocations: 322.000 KiB)
tskip:       2.2e-5 sec (0 allocations: 0 byte, 0.0% gc time)
tread:       0.00232 sec (19 allocations: 2.172 KB, 0.0% gc time)
tmultphi:    0.001463 sec (0 allocations: 0 byte, 0.0% gc time)
tbrfft:      0.004189 sec (896 allocations: 42.0 KB, 0.0% gc time)
tmultprefac: 0.003659 sec (0 allocations: 0 byte, 0.0% gc time)
toutfunc:    0.005824 sec (10.528 k allocations: 206.5 KB, 0.0% gc time)
Testing R=0.9 ... passed
Calculating fmax: 
  dlrec    = 4
  dlrecRg1 = -4
  q=1.1, R=0.8:	  0.373591 seconds (113.61 k allocations: 15.166 MiB)

  0.373840 seconds (113.65 k allocations: 15.200 MiB)
ℓ = 1202
Δℓ = 4
ΔℓRg1 = -4
N = 1600
q = 1.1
kmin = 1.0e-5
kmax = 100000.00000000004
χ0 = 0.023029999999999995
RR = RR.tsv
ℓmax = ℓmax.bin
f21 = f21.bin
kmin = 1.0e-5
kmax = 100000.0
dlrec    = 4
dlrecRg1 = -4
Output size: 5741568 bytes = 0.005347251892089844 GiB
Output size: 51264 bytes = 4.774332046508789e-5 GiB
Reading 'out/F21EllCache'...   0.001971 seconds (267 allocations: 84.656 KiB)
ellmax: 1202
lmaxcache: 1202
fell[:,1,1] = Complex{Float64}[7.519068145690986e-120 - 1.8416405474382574e-135im, 7.541664537386155e-120 - 1.847175067190611e-135im]
ell 1202, elapsed: 2.09808349609375e-5
ell 1201, elapsed: 0.0004329681396484375
ell 1200, elapsed: 0.00039505958557128906
ell 1199, elapsed: 0.0003960132598876953
ell 1198, elapsed: 0.0009129047393798828
ell 1002, elapsed: 0.010127067565917969
ell 1001, elapsed: 0.0005078315734863281
ell 1000, elapsed: 0.0004889965057373047
ell 999, elapsed: 0.0004200935363769531
ell 998, elapsed: 0.0005450248718261719
ell 902, elapsed: 0.004822969436645508
ell 901, elapsed: 0.0004620552062988281
ell 900, elapsed: 0.0005140304565429688
ell 899, elapsed: 0.0004858970642089844
ell 898, elapsed: 0.0004379749298095703
ell 802, elapsed: 0.005013942718505859
ell 801, elapsed: 0.00043892860412597656
ell 800, elapsed: 0.0004341602325439453
ell 799, elapsed: 0.0004971027374267578
ell 798, elapsed: 0.0004980564117431641
ell 702, elapsed: 0.005093097686767578
ell 701, elapsed: 0.00045490264892578125
ell 700, elapsed: 0.0004341602325439453
ell 699, elapsed: 0.0004439353942871094
ell 698, elapsed: 0.0004520416259765625
ell 602, elapsed: 0.018066883087158203
ell 601, elapsed: 0.0004620552062988281
ell 600, elapsed: 0.0005080699920654297
ell 599, elapsed: 0.00034689903259277344
ell 598, elapsed: 0.0003418922424316406
ell 502, elapsed: 0.005673885345458984
ell 501, elapsed: 0.0003790855407714844
ell 500, elapsed: 0.00035500526428222656
ell 499, elapsed: 0.00035500526428222656
ell 498, elapsed: 0.0003609657287597656
ell 402, elapsed: 0.005021095275878906
ell 401, elapsed: 0.0003669261932373047
ell 400, elapsed: 0.0003521442413330078
ell 399, elapsed: 0.000370025634765625
ell 398, elapsed: 0.0003559589385986328
ell 302, elapsed: 0.004861116409301758
ell 301, elapsed: 0.00044798851013183594
ell 300, elapsed: 0.0003638267517089844
ell 299, elapsed: 0.0003559589385986328
ell 298, elapsed: 0.00035691261291503906
ell 202, elapsed: 0.004983186721801758
ell 201, elapsed: 0.0003619194030761719
ell 200, elapsed: 0.00033783912658691406
ell 199, elapsed: 0.0003368854522705078
ell 198, elapsed: 0.0003421306610107422
ell 152, elapsed: 0.002421855926513672
ell 151, elapsed: 0.0003731250762939453
ell 150, elapsed: 0.00041604042053222656
ell 149, elapsed: 0.0005519390106201172
ell 148, elapsed: 0.0005500316619873047
ell 127, elapsed: 0.0017731189727783203
ell 126, elapsed: 0.0005910396575927734
ell 125, elapsed: 0.0005559921264648438
ell 124, elapsed: 0.0005631446838378906
ell 123, elapsed: 0.0005609989166259766
ell 114, elapsed: 0.0012249946594238281
ell 113, elapsed: 0.0004851818084716797
ell 112, elapsed: 0.0006802082061767578
ell 111, elapsed: 0.00047206878662109375
ell 110, elapsed: 0.0003490447998046875
ell 102, elapsed: 0.0008590221405029297
ell 101, elapsed: 0.0004260540008544922
ell 100, elapsed: 0.0005629062652587891
ell 99, elapsed: 0.0005779266357421875
ell 98, elapsed: 0.00035691261291503906
ell 97, elapsed: 0.0003859996795654297
ell 96, elapsed: 0.0004830360412597656
ell 95, elapsed: 0.0005309581756591797
ell 94, elapsed: 0.0006389617919921875
ell 93, elapsed: 0.0005040168762207031
ell 92, elapsed: 0.0008330345153808594
ell 91, elapsed: 0.000576019287109375
ell 90, elapsed: 0.0006191730499267578
ell 89, elapsed: 0.0003859996795654297
ell 88, elapsed: 0.00046896934509277344
ell 87, elapsed: 0.00039696693420410156
ell 86, elapsed: 0.00047087669372558594
ell 85, elapsed: 0.000392913818359375
ell 84, elapsed: 0.0005650520324707031
ell 83, elapsed: 0.00040793418884277344
ell 82, elapsed: 0.0004780292510986328
ell 81, elapsed: 0.0004100799560546875
ell 80, elapsed: 0.0004699230194091797
ell 79, elapsed: 0.00038909912109375
ell 78, elapsed: 0.00046896934509277344
ell 77, elapsed: 0.0003838539123535156
ell 76, elapsed: 0.0004749298095703125
ell 75, elapsed: 0.0003819465637207031
ell 74, elapsed: 0.0004639625549316406
ell 73, elapsed: 0.00038695335388183594
ell 72, elapsed: 0.00045800209045410156
ell 71, elapsed: 0.00037980079650878906
ell 70, elapsed: 0.0004601478576660156
ell 69, elapsed: 0.0003859996795654297
ell 68, elapsed: 0.0004718303680419922
ell 67, elapsed: 0.0004248619079589844
ell 66, elapsed: 0.0004801750183105469
ell 65, elapsed: 0.0003879070281982422
ell 64, elapsed: 0.00045990943908691406
ell 63, elapsed: 0.00038695335388183594
ell 62, elapsed: 0.0004642009735107422
ell 61, elapsed: 0.0003840923309326172
ell 60, elapsed: 0.00047397613525390625
ell 59, elapsed: 0.00038504600524902344
ell 58, elapsed: 0.0006480216979980469
ell 57, elapsed: 0.00043892860412597656
ell 56, elapsed: 0.0004620552062988281
ell 55, elapsed: 0.00038814544677734375
ell 54, elapsed: 0.0004591941833496094
ell 53, elapsed: 0.0003859996795654297
ell 52, elapsed: 0.00045609474182128906
ell 51, elapsed: 0.0003871917724609375
ell 50, elapsed: 0.0007340908050537109
ell 49, elapsed: 0.0004220008850097656
ell 48, elapsed: 0.00047707557678222656
ell 47, elapsed: 0.00038504600524902344
ell 46, elapsed: 0.00046181678771972656
ell 45, elapsed: 0.00038504600524902344
ell 44, elapsed: 0.0004570484161376953
ell 43, elapsed: 0.0003840923309326172
ell 42, elapsed: 0.0005500316619873047
ell 41, elapsed: 0.0003948211669921875
ell 40, elapsed: 0.00047087669372558594
ell 39, elapsed: 0.0003898143768310547
ell 38, elapsed: 0.0004630088806152344
ell 37, elapsed: 0.0003829002380371094
ell 36, elapsed: 0.0004608631134033203
ell 35, elapsed: 0.00038504600524902344
ell 34, elapsed: 0.0005478858947753906
ell 33, elapsed: 0.00039196014404296875
ell 32, elapsed: 0.0004699230194091797
ell 31, elapsed: 0.0003871917724609375
ell 30, elapsed: 0.0004649162292480469
ell 29, elapsed: 0.0003910064697265625
ell 28, elapsed: 0.0004601478576660156
ell 27, elapsed: 0.0003859996795654297
ell 26, elapsed: 0.0004630088806152344
ell 25, elapsed: 0.0004639625549316406
ell 24, elapsed: 0.0004799365997314453
ell 23, elapsed: 0.00039196014404296875
ell 22, elapsed: 0.0004630088806152344
ell 21, elapsed: 0.00038695335388183594
ell 20, elapsed: 0.0004589557647705078
[...]
ell 782, elapsed: 0.0015041828155517578
ell 781, elapsed: 0.0007650852203369141
ell 780, elapsed: 0.0007319450378417969
ell 779, elapsed: 0.0007169246673583984
ell 778, elapsed: 0.0007319450378417969
ell 772, elapsed: 0.0014140605926513672
ell 771, elapsed: 0.0007259845733642578
ell 770, elapsed: 0.0007710456848144531
ell 769, elapsed: 0.0007488727569580078
ell 768, elapsed: 0.0007519721984863281
ell 762, elapsed: 0.0014491081237792969
ell 761, elapsed: 0.0008320808410644531
ell 760, elapsed: 0.0008320808410644531
ell 759, elapsed: 0.0008540153503417969
ell 758, elapsed: 0.0008301734924316406
ell 752, elapsed: 0.0016450881958007812
ell 751, elapsed: 0.0008320808410644531
ell 750, elapsed: 0.0008831024169921875
ell 749, elapsed: 0.0008220672607421875
ell 748, elapsed: 0.0007429122924804688
ell 742, elapsed: 0.0014150142669677734
ell 741, elapsed: 0.0007739067077636719
ell 740, elapsed: 0.0007200241088867188
ell 739, elapsed: 0.0007479190826416016
ell 738, elapsed: 0.0007290840148925781
ell 732, elapsed: 0.0016629695892333984
ell 731, elapsed: 0.0008270740509033203
ell 730, elapsed: 0.0008370876312255859
ell 729, elapsed: 0.0008420944213867188
ell 728, elapsed: 0.0008561611175537109
ell 722, elapsed: 0.0016329288482666016
ell 721, elapsed: 0.0008389949798583984
ell 720, elapsed: 0.0008549690246582031
ell 719, elapsed: 0.000865936279296875
ell 718, elapsed: 0.0008389949798583984
ell 712, elapsed: 0.001661062240600586
ell 711, elapsed: 0.0007619857788085938
ell 710, elapsed: 0.0007491111755371094
ell 709, elapsed: 0.0007739067077636719
ell 708, elapsed: 0.0007791519165039062
ell 702, elapsed: 0.0013990402221679688
ell 701, elapsed: 0.0007510185241699219
ell 700, elapsed: 0.0007448196411132812
ell 699, elapsed: 0.0007398128509521484
ell 698, elapsed: 0.0007410049438476562
ell 692, elapsed: 0.001508951187133789
ell 691, elapsed: 0.0007450580596923828
ell 690, elapsed: 0.0007410049438476562
ell 689, elapsed: 0.0007290840148925781
ell 688, elapsed: 0.0008020401000976562
ell 682, elapsed: 0.0016589164733886719
ell 681, elapsed: 0.0008339881896972656
ell 680, elapsed: 0.0008339881896972656
ell 679, elapsed: 0.0008311271667480469
ell 678, elapsed: 0.0008611679077148438
ell 672, elapsed: 0.0016651153564453125
ell 671, elapsed: 0.0008208751678466797
ell 670, elapsed: 0.0007541179656982422
ell 669, elapsed: 0.0007979869842529297
ell 668, elapsed: 0.0007770061492919922
ell 662, elapsed: 0.0014340877532958984
ell 661, elapsed: 0.0007510185241699219
ell 660, elapsed: 0.0008268356323242188
ell 659, elapsed: 0.0008389949798583984
ell 658, elapsed: 0.0008490085601806641
ell 652, elapsed: 0.001519918441772461
ell 651, elapsed: 0.0008718967437744141
ell 650, elapsed: 0.0008220672607421875
ell 649, elapsed: 0.00080108642578125
ell 648, elapsed: 0.0008540153503417969
ell 642, elapsed: 0.0017218589782714844
ell 641, elapsed: 0.0008111000061035156
ell 640, elapsed: 0.0007779598236083984
ell 639, elapsed: 0.0008440017700195312
ell 638, elapsed: 0.0008640289306640625
ell 632, elapsed: 0.0017130374908447266
ell 631, elapsed: 0.0007870197296142578
ell 630, elapsed: 0.0008180141448974609
ell 629, elapsed: 0.0008020401000976562
ell 628, elapsed: 0.0008230209350585938
ell 622, elapsed: 0.0018200874328613281
ell 621, elapsed: 0.0007839202880859375
ell 620, elapsed: 0.0008330345153808594
ell 619, elapsed: 0.0008280277252197266
ell 618, elapsed: 0.0008230209350585938
ell 612, elapsed: 0.0017428398132324219
ell 611, elapsed: 0.0007748603820800781
ell 610, elapsed: 0.0008089542388916016
ell 609, elapsed: 0.0008189678192138672
ell 608, elapsed: 0.0008349418640136719
ell 602, elapsed: 0.0015649795532226562
ell 601, elapsed: 0.0008449554443359375
ell 600, elapsed: 0.0008189678192138672
ell 599, elapsed: 0.0008440017700195312
ell 598, elapsed: 0.0008490085601806641
ell 592, elapsed: 0.0018610954284667969
ell 591, elapsed: 0.0008120536804199219
ell 590, elapsed: 0.0008351802825927734
ell 589, elapsed: 0.0008361339569091797
ell 588, elapsed: 0.0008449554443359375
ell 582, elapsed: 0.0018820762634277344
ell 581, elapsed: 0.0008120536804199219
ell 580, elapsed: 0.0007779598236083984
ell 579, elapsed: 0.0007891654968261719
ell 578, elapsed: 0.0008130073547363281
ell 572, elapsed: 0.001878976821899414
ell 571, elapsed: 0.0008409023284912109
ell 570, elapsed: 0.0008091926574707031
ell 569, elapsed: 0.0009179115295410156
ell 568, elapsed: 0.0008001327514648438
ell 562, elapsed: 0.0017659664154052734
ell 561, elapsed: 0.0008640289306640625
ell 560, elapsed: 0.0009291172027587891
ell 559, elapsed: 0.0008158683776855469
ell 558, elapsed: 0.0008320808410644531
ell 552, elapsed: 0.0018520355224609375
ell 551, elapsed: 0.00080108642578125
ell 550, elapsed: 0.0008461475372314453
ell 549, elapsed: 0.0008299350738525391
ell 548, elapsed: 0.0008628368377685547
ell 542, elapsed: 0.0018229484558105469
ell 541, elapsed: 0.0007789134979248047
ell 540, elapsed: 0.0008349418640136719
ell 539, elapsed: 0.0009260177612304688
ell 538, elapsed: 0.0009260177612304688
ell 532, elapsed: 0.0018339157104492188
ell 531, elapsed: 0.0008218288421630859
ell 530, elapsed: 0.0008480548858642578
ell 529, elapsed: 0.0008420944213867188
ell 528, elapsed: 0.0008420944213867188
ell 522, elapsed: 0.0018329620361328125
ell 521, elapsed: 0.0010061264038085938
ell 520, elapsed: 0.0009992122650146484
ell 519, elapsed: 0.0010139942169189453
ell 518, elapsed: 0.0010020732879638672
ell 512, elapsed: 0.0019478797912597656
ell 511, elapsed: 0.0011029243469238281
ell 510, elapsed: 0.0010061264038085938
ell 509, elapsed: 0.0010120868682861328
ell 508, elapsed: 0.0010039806365966797
ell 502, elapsed: 0.0020020008087158203
ell 501, elapsed: 0.0010190010070800781
ell 500, elapsed: 0.0010101795196533203
ell 499, elapsed: 0.0010190010070800781
ell 498, elapsed: 0.0010030269622802734
ell 492, elapsed: 0.0019230842590332031
ell 491, elapsed: 0.0010159015655517578
ell 490, elapsed: 0.0010039806365966797
ell 489, elapsed: 0.0010008811950683594
ell 488, elapsed: 0.0010018348693847656
ell 482, elapsed: 0.0019161701202392578
ell 481, elapsed: 0.001007080078125
ell 480, elapsed: 0.0010139942169189453
ell 479, elapsed: 0.0010080337524414062
ell 478, elapsed: 0.0010020732879638672
ell 472, elapsed: 0.0018508434295654297
ell 471, elapsed: 0.001004934310913086
ell 470, elapsed: 0.0010099411010742188
ell 469, elapsed: 0.0010120868682861328
ell 468, elapsed: 0.0010199546813964844
ell 462, elapsed: 0.0019371509552001953
ell 461, elapsed: 0.0010080337524414062
ell 460, elapsed: 0.0010180473327636719
ell 459, elapsed: 0.0010120868682861328
ell 458, elapsed: 0.0009989738464355469
ell 452, elapsed: 0.001943826675415039
ell 451, elapsed: 0.0010251998901367188
ell 450, elapsed: 0.0009930133819580078
ell 449, elapsed: 0.000993967056274414
ell 448, elapsed: 0.0011131763458251953
ell 442, elapsed: 0.0019328594207763672
ell 441, elapsed: 0.0009958744049072266
ell 440, elapsed: 0.0011060237884521484
ell 439, elapsed: 0.0010089874267578125
ell 438, elapsed: 0.0009951591491699219
ell 432, elapsed: 0.0020170211791992188
ell 431, elapsed: 0.0009992122650146484
ell 430, elapsed: 0.0009958744049072266
ell 429, elapsed: 0.0010988712310791016
ell 428, elapsed: 0.0009918212890625
ell 422, elapsed: 0.0019249916076660156
ell 421, elapsed: 0.0011091232299804688
ell 420, elapsed: 0.0010030269622802734
ell 419, elapsed: 0.0009870529174804688
ell 418, elapsed: 0.0009889602661132812
ell 412, elapsed: 0.0019919872283935547
ell 411, elapsed: 0.001001119613647461
ell 410, elapsed: 0.000990152359008789
ell 409, elapsed: 0.0011031627655029297
ell 408, elapsed: 0.0011148452758789062
ell 402, elapsed: 0.0021331310272216797
ell 401, elapsed: 0.0010008811950683594
ell 400, elapsed: 0.0009930133819580078
ell 399, elapsed: 0.0010030269622802734
ell 398, elapsed: 0.0011019706726074219
ell 392, elapsed: 0.0019330978393554688
ell 391, elapsed: 0.0009951591491699219
ell 390, elapsed: 0.0011060237884521484
ell 389, elapsed: 0.0010020732879638672
ell 388, elapsed: 0.000988006591796875
ell 382, elapsed: 0.0022192001342773438
ell 381, elapsed: 0.0010559558868408203
ell 380, elapsed: 0.0010559558868408203
ell 379, elapsed: 0.0010869503021240234
ell 378, elapsed: 0.0010559558868408203
ell 372, elapsed: 0.001990795135498047
ell 371, elapsed: 0.0010030269622802734
ell 370, elapsed: 0.0009949207305908203
ell 369, elapsed: 0.0009911060333251953
ell 368, elapsed: 0.0011301040649414062
ell 362, elapsed: 0.0019078254699707031
ell 361, elapsed: 0.0009989738464355469
ell 360, elapsed: 0.0011000633239746094
ell 359, elapsed: 0.0010080337524414062
ell 358, elapsed: 0.000988006591796875
ell 352, elapsed: 0.0020051002502441406
ell 351, elapsed: 0.0010058879852294922
ell 350, elapsed: 0.0009942054748535156
ell 349, elapsed: 0.0009989738464355469
ell 348, elapsed: 0.001127004623413086
ell 342, elapsed: 0.0019049644470214844
ell 341, elapsed: 0.0009999275207519531
ell 340, elapsed: 0.0011680126190185547
ell 339, elapsed: 0.0010371208190917969
ell 338, elapsed: 0.0009958744049072266
ell 332, elapsed: 0.0020859241485595703
ell 331, elapsed: 0.0010089874267578125
ell 330, elapsed: 0.0010001659393310547
ell 329, elapsed: 0.0010080337524414062
ell 328, elapsed: 0.0009980201721191406
ell 322, elapsed: 0.0019309520721435547
ell 321, elapsed: 0.0010159015655517578
ell 320, elapsed: 0.0009970664978027344
ell 319, elapsed: 0.0009927749633789062
ell 318, elapsed: 0.0009980201721191406
ell 312, elapsed: 0.0019218921661376953
ell 311, elapsed: 0.0009989738464355469
ell 310, elapsed: 0.0009968280792236328
ell 309, elapsed: 0.0010058879852294922
ell 308, elapsed: 0.0009989738464355469
ell 302, elapsed: 0.001895904541015625
ell 301, elapsed: 0.0010619163513183594
ell 300, elapsed: 0.0009980201721191406
ell 299, elapsed: 0.0009930133819580078
ell 298, elapsed: 0.0010030269622802734
ell 292, elapsed: 0.0019218921661376953
ell 291, elapsed: 0.0010018348693847656
ell 290, elapsed: 0.0009970664978027344
ell 289, elapsed: 0.0009970664978027344
ell 288, elapsed: 0.0009920597076416016
ell 282, elapsed: 0.0018939971923828125
ell 281, elapsed: 0.001001119613647461
ell 280, elapsed: 0.0010020732879638672
ell 279, elapsed: 0.0009970664978027344
ell 278, elapsed: 0.0011761188507080078
ell 272, elapsed: 0.0019919872283935547
ell 271, elapsed: 0.0010030269622802734
ell 270, elapsed: 0.0010099411010742188
ell 269, elapsed: 0.0009908676147460938
ell 268, elapsed: 0.0009958744049072266
ell 262, elapsed: 0.0021080970764160156
ell 261, elapsed: 0.0010738372802734375
ell 260, elapsed: 0.0010750293731689453
ell 259, elapsed: 0.0010881423950195312
ell 258, elapsed: 0.001071929931640625
ell 252, elapsed: 0.0019800662994384766
ell 251, elapsed: 0.0010259151458740234
ell 250, elapsed: 0.0010149478912353516
ell 249, elapsed: 0.0009961128234863281
ell 248, elapsed: 0.0010101795196533203
ell 242, elapsed: 0.0019059181213378906
ell 241, elapsed: 0.0010218620300292969
ell 240, elapsed: 0.0010190010070800781
ell 239, elapsed: 0.001004934310913086
ell 238, elapsed: 0.0010020732879638672
ell 232, elapsed: 0.0019130706787109375
ell 231, elapsed: 0.001010894775390625
ell 230, elapsed: 0.0010039806365966797
ell 229, elapsed: 0.0009889602661132812
ell 228, elapsed: 0.001009225845336914
ell 222, elapsed: 0.0019030570983886719
ell 221, elapsed: 0.0009961128234863281
ell 220, elapsed: 0.0011000633239746094
ell 219, elapsed: 0.0011019706726074219
ell 218, elapsed: 0.000985860824584961
ell 212, elapsed: 0.0019199848175048828
ell 211, elapsed: 0.0009970664978027344
ell 210, elapsed: 0.0009951591491699219
ell 209, elapsed: 0.0009949207305908203
ell 208, elapsed: 0.0010039806365966797
ell 202, elapsed: 0.0018801689147949219
ell 201, elapsed: 0.001004934310913086
ell 200, elapsed: 0.0010690689086914062
ell 199, elapsed: 0.0009899139404296875
ell 198, elapsed: 0.0009870529174804688
ell 192, elapsed: 0.00197601318359375
ell 191, elapsed: 0.0009980201721191406
ell 190, elapsed: 0.001001119613647461
ell 189, elapsed: 0.0010228157043457031
ell 188, elapsed: 0.0009949207305908203
ell 182, elapsed: 0.0018999576568603516
ell 181, elapsed: 0.0010929107666015625
ell 180, elapsed: 0.0009930133819580078
ell 179, elapsed: 0.0009911060333251953
ell 178, elapsed: 0.0009920597076416016
ell 172, elapsed: 0.0020160675048828125
ell 171, elapsed: 0.0010900497436523438
ell 170, elapsed: 0.0011360645294189453
ell 169, elapsed: 0.0010228157043457031
ell 168, elapsed: 0.0009958744049072266
ell 162, elapsed: 0.0018868446350097656
ell 161, elapsed: 0.0010249614715576172
ell 160, elapsed: 0.0009961128234863281
ell 159, elapsed: 0.000993967056274414
ell 158, elapsed: 0.0010180473327636719
ell 152, elapsed: 0.0021820068359375
ell 151, elapsed: 0.000993967056274414
ell 150, elapsed: 0.0010330677032470703
ell 149, elapsed: 0.0010180473327636719
ell 148, elapsed: 0.0010120868682861328
ell 142, elapsed: 0.0019259452819824219
ell 141, elapsed: 0.0010099411010742188
ell 140, elapsed: 0.0009999275207519531
ell 139, elapsed: 0.0009870529174804688
ell 138, elapsed: 0.0010151863098144531
ell 132, elapsed: 0.0019049644470214844
ell 131, elapsed: 0.001013040542602539
ell 130, elapsed: 0.0010190010070800781
ell 129, elapsed: 0.0009992122650146484
ell 128, elapsed: 0.0010018348693847656
ell 122, elapsed: 0.0019311904907226562
ell 121, elapsed: 0.0010068416595458984
ell 120, elapsed: 0.0009920597076416016
ell 119, elapsed: 0.0009889602661132812
ell 118, elapsed: 0.0010149478912353516
ell 112, elapsed: 0.0018939971923828125
ell 111, elapsed: 0.0009989738464355469
ell 110, elapsed: 0.0007901191711425781
ell 109, elapsed: 0.0006229877471923828
ell 108, elapsed: 0.0006260871887207031
ell 102, elapsed: 0.0011241436004638672
ell 101, elapsed: 0.003167867660522461
ell 100, elapsed: 0.0036749839782714844
ell 99, elapsed: 0.003863096237182617
ell 98, elapsed: 0.0038509368896484375
ell 92, elapsed: 0.0072460174560546875
ell 91, elapsed: 0.0038590431213378906
ell 90, elapsed: 0.0038352012634277344
ell 89, elapsed: 0.0038340091705322266
ell 88, elapsed: 0.003857135772705078
ell 82, elapsed: 0.007230043411254883
ell 81, elapsed: 0.003879070281982422
ell 80, elapsed: 0.0038499832153320312
ell 79, elapsed: 0.004126071929931641
ell 78, elapsed: 0.004332065582275391
ell 72, elapsed: 0.006811857223510742
ell 71, elapsed: 0.003126859664916992
ell 70, elapsed: 0.0031528472900390625
ell 69, elapsed: 0.003153085708618164
ell 68, elapsed: 0.003139019012451172
ell 62, elapsed: 0.005883932113647461
ell 61, elapsed: 0.0037050247192382812
ell 60, elapsed: 0.0031900405883789062
ell 59, elapsed: 0.0034341812133789062
ell 58, elapsed: 0.003665924072265625
ell 52, elapsed: 0.005922794342041016
ell 51, elapsed: 0.0037391185760498047
ell 50, elapsed: 0.004266023635864258
ell 49, elapsed: 0.004340171813964844
ell 48, elapsed: 0.0046160221099853516
ell 42, elapsed: 0.007103919982910156
ell 41, elapsed: 0.004302024841308594
ell 40, elapsed: 0.004637002944946289
ell 39, elapsed: 0.003854990005493164
ell 38, elapsed: 0.004142045974731445
ell 32, elapsed: 0.0065610408782958984
ell 31, elapsed: 0.004359006881713867
ell 30, elapsed: 0.004231929779052734
ell 29, elapsed: 0.0036611557006835938
ell 28, elapsed: 0.004319190979003906
ell 22, elapsed: 0.0071718692779541016
ell 21, elapsed: 0.004464149475097656
ell 20, elapsed: 0.004553079605102539
ell 19, elapsed: 0.003693103790283203
ell 18, elapsed: 0.003895998001098633
ell 12, elapsed: 0.0063359737396240234
ell 11, elapsed: 0.003981113433837891
ell 10, elapsed: 0.003801107406616211
ell 9, elapsed: 0.0035130977630615234
ell 8, elapsed: 0.00401616096496582
  0.880421 seconds (66.75 k allocations: 12.139 MiB, 2.39% gc time)
elapsed: 0.004830121994018555
step:          0.083876 sec (0 allocations: 0 byte, 0.0% gc time)
swapping:      0.000788 sec (0 allocations: 0 byte, 0.0% gc time)
calc_Mellell!: 0.044003 sec (0 allocations: 0 byte, 0.0% gc time)
  t0 :  0.010828 sec (0 allocations: 0 byte, 0.0% gc time)
  tm2 : 0.084128 sec (0 allocations: 0 byte, 0.0% gc time)
  tm2s: 0.009669 sec (0 allocations: 0 byte, 0.0% gc time)
  tm4 : 0.202876 sec (0 allocations: 0 byte, 0.0% gc time)
  tp2 : 0.0 sec (0 allocations: 0 byte, 0.0% gc time)
  tp2s: 0.0 sec (0 allocations: 0 byte, 0.0% gc time)
  tp4 : 0.0 sec (0 allocations: 0 byte, 0.0% gc time)
calc_wtdll!:   0.616485 sec (49.2 k allocations: 11.133 MB, 3.41% gc time)
calc_wljj!:    0.047079 sec (69 allocations: 1.078 KB, 0.0% gc time)
mult_prefac!:  0.0 sec (0 allocations: 0 byte, 0.0% gc time)
convert:       0.0 sec (0 allocations: 0 byte, 0.0% gc time)
write:         0.040425 sec (0 allocations: 0 byte, 0.0% gc time)
test_rand_2f1: 0.0 sec (0 allocations: 0 byte, 0.0% gc time)
Closing outfile out/MlCache/MlCache.bin...   0.000016 seconds
xi, l=0, nu=0:   0.464640 seconds (551.85 k allocations: 26.842 MiB, 6.70% gc time)
xi, l=0, nu=-2:  0.002607 seconds (144 allocations: 149.562 KiB)
Created 'out/xi.tsv'.
  q=1.1, R=0.6:	  0.920725 seconds (291.08 k allocations: 38.895 MiB, 2.52% gc time)
  q=1.1, R=0.7:	  0.864797 seconds (304.75 k allocations: 40.996 MiB, 1.87% gc time)
  q=1.1, R=0.8:	  1.143765 seconds (299.14 k allocations: 40.132 MiB)
  q=1.1, R=0.9:	  1.176225 seconds (293.57 k allocations: 39.286 MiB, 1.39% gc time)
  q=1.1, R=0.998:	 23.382296 seconds (10.67 M allocations: 823.453 MiB, 0.41% gc time)
  q=1.1, R=1.0:	  0.004802 seconds (10.24 k allocations: 768.375 KiB)

ℓ = 1000
Δℓ = 4
ΔℓRg1 = -4
N = 4096
q = 1.1
kmin = 1.0e-5
kmax = 1000.0
χ0 = 0.001
RR = RR.tsv
ℓmax = ℓmax.bin
f21 = f21.bin
kmin = 1.0e-5
kmax = 1000.0
dlrec    = 4
dlrecRg1 = -4
Output size: 1573632 bytes = 0.0014655590057373047 GiB
Output size: 786816 bytes = 0.0007327795028686523 GiB
Reading 'out/F21EllCache'...   0.001729 seconds (268 allocations: 533.531 KiB)
ellmax: 1002
lmaxcache: 1000
fell[:,1,1] = Complex{Float64}[1.7262928128202118e-224 - 4.2281979352226944e-240im, 1.7282693092099662e-224 - 4.233038955177176e-240im]
ell 1002, elapsed: 2.9802322387695312e-5
ell 1001, elapsed: 0.000759124755859375
ell 1000, elapsed: 0.026654958724975586
ell 999, elapsed: 0.012233972549438477
ell 998, elapsed: 0.006742954254150391
ell 44, elapsed: 0.7156150341033936
ell 43, elapsed: 0.007447004318237305
ell 42, elapsed: 0.006493091583251953
ell 41, elapsed: 0.0060198307037353516
ell 40, elapsed: 0.0053288936614990234
  0.796071 seconds (4.55 k allocations: 320.031 KiB)
elapsed: 0.008434057235717773
step:          0.709573 sec (0 allocations: 0 byte, 0.0% gc time)
swapping:      0.000675 sec (0 allocations: 0 byte, 0.0% gc time)
calc_Mellell!: 0.001169 sec (0 allocations: 0 byte, 0.0% gc time)
  t0 :  0.000472 sec (0 allocations: 0 byte, 0.0% gc time)
  tm2 : 0.012264 sec (0 allocations: 0 byte, 0.0% gc time)
  tm2s: 0.000309 sec (0 allocations: 0 byte, 0.0% gc time)
  tm4 : 0.064761 sec (0 allocations: 0 byte, 0.0% gc time)
  tp2 : 0.0 sec (0 allocations: 0 byte, 0.0% gc time)
  tp2s: 0.0 sec (0 allocations: 0 byte, 0.0% gc time)
  tp4 : 0.0 sec (0 allocations: 0 byte, 0.0% gc time)
calc_wtdll!:   0.078081 sec (480 allocations: 52.5 KB, 0.0% gc time)
calc_wljj!:    0.001435 sec (1 allocations: 16 byte, 0.0% gc time)
mult_prefac!:  0.0 sec (0 allocations: 0 byte, 0.0% gc time)
convert:       0.0 sec (0 allocations: 0 byte, 0.0% gc time)
write:         0.001013 sec (0 allocations: 0 byte, 0.0% gc time)
test_rand_2f1: 0.0 sec (0 allocations: 0 byte, 0.0% gc time)
Closing outfile out/MlCache/MlCache.bin...   0.000983 seconds
  0.518754 seconds (54 allocations: 67.203 KiB)
make_phi():   0.013149 seconds (80 allocations: 276.297 KiB)
  0.003338 seconds (108 allocations: 5.812 KiB)
tskip:       1.0e-6 sec (0 allocations: 0 byte, 0.0% gc time)
tread:       0.000665 sec (19 allocations: 1.312 KB, 0.0% gc time)
tmultphi:    0.000674 sec (0 allocations: 0 byte, 0.0% gc time)
tbrfft:      0.001081 sec (96 allocations: 4.5 KB, 0.0% gc time)
tmultprefac: 0.000923 sec (0 allocations: 0 byte, 0.0% gc time)
toutfunc:    0.000106 sec (0 allocations: 0 byte, 0.0% gc time)
Created 'out/wl42_jj00.tsv'.
Created 'out/wl42_jj02.tsv'.
   Testing TwoFAST tests passed 
