Julia Version 1.6.0-DEV.1169
Commit 3559b720d1 (2020-10-09 10:19 UTC)
Platform Info:
  OS: Linux (x86_64-linux-gnu)
  CPU: AMD EPYC 7502 32-Core Processor
  WORD_SIZE: 64
  LIBM: libopenlibm
  LLVM: libLLVM-10.0.1 (ORCJIT, znver2)
Environment:
  JULIA_DEPOT_PATH = ::/usr/local/share/julia
  JULIA_NUM_THREADS = 2

  Resolving package versions...
  Installed Readables ──────────────────── v0.3.3
  Installed MKL_jll ────────────────────── v2020.2.254+0
  Installed OpenSpecFun_jll ────────────── v0.5.3+3
  Installed Reexport ───────────────────── v0.2.0
  Installed GenericSVD ─────────────────── v0.3.0
  Installed AbstractFFTs ───────────────── v0.5.0
  Installed BinaryProvider ─────────────── v0.5.10
  Installed IntelOpenMP_jll ────────────── v2018.0.3+0
  Installed GenericSchur ───────────────── v0.4.0
  Installed CompilerSupportLibraries_jll ─ v0.3.3+0
  Installed FFTW_jll ───────────────────── v3.3.9+5
  Installed FFTW ───────────────────────── v1.2.4
  Installed SpecialFunctions ───────────── v0.10.3
  Installed TwoFAST ────────────────────── v0.1.3
  Installed ArbNumerics ────────────────── v1.2.1
Updating `~/.julia/environments/v1.6/Project.toml`
  [0dd23c3e] + TwoFAST v0.1.3
Updating `~/.julia/environments/v1.6/Manifest.toml`
  [621f4979] + AbstractFFTs v0.5.0
  [7e558dbc] + ArbNumerics v1.2.1
  [b99e7846] + BinaryProvider v0.5.10
  [e66e0078] + CompilerSupportLibraries_jll v0.3.3+0
  [7a1cc6ca] + FFTW v1.2.4
  [f5851436] + FFTW_jll v3.3.9+5
  [01680d73] + GenericSVD v0.3.0
  [c145ed77] + GenericSchur v0.4.0
  [1d5cc7b8] + IntelOpenMP_jll v2018.0.3+0
  [856f044c] + MKL_jll v2020.2.254+0
  [efe28fd5] + OpenSpecFun_jll v0.5.3+3
  [0d4725de] + Readables v0.3.3
  [189a3867] + Reexport v0.2.0
  [276daf66] + SpecialFunctions v0.10.3
  [0dd23c3e] + TwoFAST v0.1.3
  [56f22d72] + Artifacts
  [2a0f44e3] + Base64
  [ade2ca70] + Dates
  [8bb1440f] + DelimitedFiles
  [b77e0a4c] + InteractiveUtils
  [76f85450] + LibGit2
  [8f399da3] + Libdl
  [37e2e46d] + LinearAlgebra
  [56ddb016] + Logging
  [d6f4376e] + Markdown
  [a63ad114] + Mmap
  [44cfe95a] + Pkg
  [de0858da] + Printf
  [3fa0cd96] + REPL
  [9a3f8284] + Random
  [ea8e919c] + SHA
  [9e88b42a] + Serialization
  [6462fe0b] + Sockets
  [fa267f1f] + TOML
  [8dfed614] + Test
  [cf7118a7] + UUIDs
  [4ec0a83e] + Unicode
   Building ArbNumerics → `~/.julia/scratchspaces/44cfe95a-1eb2-52ea-b672-e2afdf69b78f/329a81d67c64e3a51c176a243b6424fbe39213d0/build.log`
   Building FFTW ───────→ `~/.julia/scratchspaces/44cfe95a-1eb2-52ea-b672-e2afdf69b78f/8b7c16b56936047ca41bf25effa137ae0b381ae8/build.log`
    Testing TwoFAST
Status `/tmp/jl_eYGLh0/Project.toml`
  [7e558dbc] ArbNumerics v1.2.1
  [39dd38d3] Dierckx v0.5.0
  [7a1cc6ca] FFTW v1.2.4
  [276daf66] SpecialFunctions v0.10.3
  [0dd23c3e] TwoFAST v0.1.3
  [8bb1440f] DelimitedFiles
  [37e2e46d] LinearAlgebra
  [56ddb016] Logging
  [8dfed614] Test
Status `/tmp/jl_eYGLh0/Manifest.toml`
  [621f4979] AbstractFFTs v0.5.0
  [7e558dbc] ArbNumerics v1.2.1
  [b99e7846] BinaryProvider v0.5.10
  [e66e0078] CompilerSupportLibraries_jll v0.3.3+0
  [39dd38d3] Dierckx v0.5.0
  [cd4c43a9] Dierckx_jll v0.0.1+0
  [7a1cc6ca] FFTW v1.2.4
  [f5851436] FFTW_jll v3.3.9+5
  [01680d73] GenericSVD v0.3.0
  [c145ed77] GenericSchur v0.4.0
  [1d5cc7b8] IntelOpenMP_jll v2018.0.3+0
  [856f044c] MKL_jll v2020.2.254+0
  [efe28fd5] OpenSpecFun_jll v0.5.3+3
  [0d4725de] Readables v0.3.3
  [189a3867] Reexport v0.2.0
  [276daf66] SpecialFunctions v0.10.3
  [0dd23c3e] TwoFAST v0.1.3
  [56f22d72] Artifacts
  [2a0f44e3] Base64
  [ade2ca70] Dates
  [8bb1440f] DelimitedFiles
  [b77e0a4c] InteractiveUtils
  [76f85450] LibGit2
  [8f399da3] Libdl
  [37e2e46d] LinearAlgebra
  [56ddb016] Logging
  [d6f4376e] Markdown
  [a63ad114] Mmap
  [44cfe95a] Pkg
  [de0858da] Printf
  [3fa0cd96] REPL
  [9a3f8284] Random
  [ea8e919c] SHA
  [9e88b42a] Serialization
  [6462fe0b] Sockets
  [fa267f1f] TOML
  [8dfed614] Test
  [cf7118a7] UUIDs
  [4ec0a83e] Unicode
    Testing Running tests...
WARNING: could not import Printf.ini_hex into ArbNumerics
WARNING: could not import Printf.ini_HEX into ArbNumerics
t = 0.0 sec (0 allocations: 0 byte, 0.0% gc time)
typeof(t) = NamedTuple{(:value, :time, :bytes, :gctime, :gcstats), Tuple{DataType, Float64, Int64, Float64, Base.GC_Diff}}
TwoFAST.PerformanceStats.TimedType = Union{NamedTuple{(:value, :time, :bytes, :gctime, :gcstats), Tuple{T, Float64, Int64, Float64, Base.GC_Diff}}, Tuple{Any, Float64, Int64, Float64, Base.GC_Diff}} where T
t = 0.0 sec (0 allocations: 0 byte, 0.0% gc time)
t: 0.0 sec (0 allocations: 0 byte, 0.0% gc time)
Testing ξ(r), ℓ=0, ν=-1 ... passed
Testing ξ(r), ℓ=0, ν=0 ... passed
Testing ξ(r), ℓ=0, ν=1 ... passed
Testing ξ(r), ℓ=0, ν=2 ... passed
Testing ξ(r), ℓ=0, ν=3 ... passed
Testing ξ(r), ℓ=1, ν=0 ... passed
Testing ξ(r), ℓ=1, ν=1 ... passed
Testing ξ(r), ℓ=1, ν=2 ... passed
Testing ξ(r), ℓ=1, ν=3 ... passed
Testing ξ(r), ℓ=2, ν=-1 ... passed
Testing ξ(r), ℓ=2, ν=0 ... passed
Testing ξ(r), ℓ=2, ν=1 ... passed
Testing ξ(r), ℓ=2, ν=2 ... passed
Testing ξ(r), ℓ=2, ν=3 ... passed
Testing ξ(r), ℓ=3, ν=-1 ... passed
Testing ξ(r), ℓ=3, ν=0 ... passed
Testing ξ(r), ℓ=3, ν=1 ... passed
Testing ξ(r), ℓ=3, ν=2 ... passed
Testing ξ(r), ℓ=3, ν=3 ... passed
Testing ξ(r), ℓ=4, ν=-1 ... passed
Testing ξ(r), ℓ=4, ν=0 ... passed
Testing ξ(r), ℓ=4, ν=1 ... passed
Testing ξ(r), ℓ=4, ν=2 ... passed
Testing ξ(r), ℓ=4, ν=3 ... passed
Testing ξ(r) ... passed
Testing ξ′(r) ... passed
Testing ξ″(r) ... passed
Calculating fmax: 
  dlrec    = 4
  dlrecRg1 = -4
  q=1.1, R=1.1:	  3.496609 seconds (843.48 k allocations: 53.929 MiB, 1.55% gc time, 90.44% compilation time)

  3.496941 seconds (843.54 k allocations: 53.964 MiB, 1.55% gc time, 90.43% compilation time)
ℓ = 1202
Δℓ = 4
ΔℓRg1 = -4
N = 1600
q = 1.1
kmin = 1.0e-5
kmax = 100000.00000000004
χ0 = 0.023029999999999995
RR = RR.tsv
ℓmax = ℓmax.bin
f21 = f21.bin
kmin = 1.0e-5
kmax = 100000.0
dlrec    = 4
dlrecRg1 = -4
Output size: 5741568 bytes = 0.005347251892089844 GiB
Output size: 51264 bytes = 4.774332046508789e-5 GiB
Reading 'out/F21EllCache'...   0.628112 seconds (426.51 k allocations: 24.994 MiB, 4.40% gc time, 99.52% compilation time)
ellmax: 1202
lmaxcache: 1202
fell[:,1,1] = ComplexF64[3.9583795592771634e-52 - 9.695233714158177e-68im, 3.990121772925759e-52 - 9.772979714843386e-68im]
ell 1202, elapsed: 3.600120544433594e-5
ell 1201, elapsed: 1.1253089904785156
ell 1200, elapsed: 0.0004150867462158203
ell 1199, elapsed: 0.00037789344787597656
ell 1198, elapsed: 0.0003800392150878906
ell 1002, elapsed: 0.008189201354980469
ell 1001, elapsed: 0.00038886070251464844
ell 1000, elapsed: 0.00037789344787597656
ell 999, elapsed: 0.0003781318664550781
ell 998, elapsed: 0.0004050731658935547
ell 902, elapsed: 0.004248142242431641
ell 901, elapsed: 0.0003921985626220703
ell 900, elapsed: 0.0003800392150878906
ell 899, elapsed: 0.00037789344787597656
ell 898, elapsed: 0.00038504600524902344
ell 802, elapsed: 0.004236936569213867
ell 801, elapsed: 0.00041103363037109375
ell 800, elapsed: 0.0004050731658935547
ell 799, elapsed: 0.00041985511779785156
ell 798, elapsed: 0.0004119873046875
ell 702, elapsed: 0.004166841506958008
ell 701, elapsed: 0.0004050731658935547
ell 700, elapsed: 0.0004138946533203125
ell 699, elapsed: 0.00039887428283691406
ell 698, elapsed: 0.0004200935363769531
ell 602, elapsed: 0.004198789596557617
ell 601, elapsed: 0.0004820823669433594
ell 600, elapsed: 0.00043010711669921875
ell 599, elapsed: 0.0004100799560546875
ell 598, elapsed: 0.0004391670227050781
ell 502, elapsed: 0.004364013671875
ell 501, elapsed: 0.0004360675811767578
ell 500, elapsed: 0.0004181861877441406
ell 499, elapsed: 0.0004951953887939453
ell 498, elapsed: 0.0004229545593261719
ell 402, elapsed: 0.004414081573486328
ell 401, elapsed: 0.00042700767517089844
ell 400, elapsed: 0.00042510032653808594
ell 399, elapsed: 0.0004189014434814453
ell 398, elapsed: 0.00042510032653808594
ell 302, elapsed: 0.004292011260986328
ell 301, elapsed: 0.00044608116149902344
ell 300, elapsed: 0.00041294097900390625
ell 299, elapsed: 0.0004260540008544922
ell 298, elapsed: 0.0004220008850097656
ell 202, elapsed: 0.0043277740478515625
ell 201, elapsed: 0.00043511390686035156
ell 200, elapsed: 0.0004429817199707031
ell 199, elapsed: 0.0004088878631591797
ell 198, elapsed: 0.00043487548828125
ell 152, elapsed: 0.0023560523986816406
ell 151, elapsed: 0.0004210472106933594
ell 150, elapsed: 0.00041413307189941406
ell 149, elapsed: 0.00042891502380371094
ell 148, elapsed: 0.0004417896270751953
ell 127, elapsed: 0.0013179779052734375
ell 126, elapsed: 0.0004649162292480469
ell 125, elapsed: 0.0004360675811767578
ell 124, elapsed: 0.0004329681396484375
ell 123, elapsed: 0.00042510032653808594
ell 114, elapsed: 0.0008008480072021484
ell 113, elapsed: 0.00047087669372558594
ell 112, elapsed: 0.0004410743713378906
ell 111, elapsed: 0.0004169940948486328
ell 110, elapsed: 0.00042819976806640625
ell 102, elapsed: 0.0007600784301757812
ell 101, elapsed: 0.00042700767517089844
ell 100, elapsed: 0.0003800392150878906
ell 99, elapsed: 0.0003800392150878906
ell 98, elapsed: 0.0003991127014160156
ell 97, elapsed: 0.00043511390686035156
ell 96, elapsed: 0.00042700767517089844
ell 95, elapsed: 0.000431060791015625
ell 94, elapsed: 0.000431060791015625
ell 93, elapsed: 0.00042510032653808594
ell 92, elapsed: 0.000431060791015625
ell 91, elapsed: 0.0004210472106933594
ell 90, elapsed: 0.00042319297790527344
ell 89, elapsed: 0.0004589557647705078
ell 88, elapsed: 0.0004210472106933594
ell 87, elapsed: 0.00041794776916503906
ell 86, elapsed: 0.0004210472106933594
ell 85, elapsed: 0.0004220008850097656
ell 84, elapsed: 0.0004169940948486328
ell 83, elapsed: 0.00041794776916503906
ell 82, elapsed: 0.0004279613494873047
ell 81, elapsed: 0.00041604042053222656
ell 80, elapsed: 0.0004429817199707031
ell 79, elapsed: 0.0004169940948486328
ell 78, elapsed: 0.0004189014434814453
ell 77, elapsed: 0.000415802001953125
ell 76, elapsed: 0.00040984153747558594
ell 75, elapsed: 0.0004220008850097656
ell 74, elapsed: 0.0004172325134277344
ell 73, elapsed: 0.00041103363037109375
ell 72, elapsed: 0.0004169940948486328
ell 71, elapsed: 0.00043487548828125
ell 70, elapsed: 0.00041794776916503906
ell 69, elapsed: 0.00040984153747558594
ell 68, elapsed: 0.000415802001953125
ell 67, elapsed: 0.00041604042053222656
ell 66, elapsed: 0.0004150867462158203
ell 65, elapsed: 0.0004119873046875
ell 64, elapsed: 0.0004138946533203125
ell 63, elapsed: 0.0004100799560546875
ell 62, elapsed: 0.00044989585876464844
ell 61, elapsed: 0.00041222572326660156
ell 60, elapsed: 0.0004200935363769531
ell 59, elapsed: 0.0004119873046875
ell 58, elapsed: 0.00041794776916503906
ell 57, elapsed: 0.0004241466522216797
ell 56, elapsed: 0.00042891502380371094
ell 55, elapsed: 0.0004258155822753906
ell 54, elapsed: 0.0004239082336425781
ell 53, elapsed: 0.0005049705505371094
ell 52, elapsed: 0.00043082237243652344
ell 51, elapsed: 0.0004210472106933594
ell 50, elapsed: 0.0004279613494873047
ell 49, elapsed: 0.0004258155822753906
ell 48, elapsed: 0.0004119873046875
ell 47, elapsed: 0.00039887428283691406
ell 46, elapsed: 0.00039386749267578125
ell 45, elapsed: 0.0004010200500488281
ell 44, elapsed: 0.00038695335388183594
ell 43, elapsed: 0.00046515464782714844
ell 42, elapsed: 0.00041604042053222656
ell 41, elapsed: 0.0004119873046875
ell 40, elapsed: 0.0004200935363769531
ell 39, elapsed: 0.0004191398620605469
ell 38, elapsed: 0.00042319297790527344
ell 37, elapsed: 0.00041604042053222656
ell 36, elapsed: 0.00041604042053222656
ell 35, elapsed: 0.0004239082336425781
ell 34, elapsed: 0.00045680999755859375
ell 33, elapsed: 0.0004279613494873047
ell 32, elapsed: 0.00041985511779785156
ell 31, elapsed: 0.0004169940948486328
ell 30, elapsed: 0.0004229545593261719
ell 29, elapsed: 0.0004279613494873047
ell 28, elapsed: 0.00043201446533203125
ell 27, elapsed: 0.00042510032653808594
ell 26, elapsed: 0.00041413307189941406
ell 25, elapsed: 0.0004711151123046875
ell 24, elapsed: 0.0004220008850097656
ell 23, elapsed: 0.00042700767517089844
ell 22, elapsed: 0.0004239082336425781
ell 21, elapsed: 0.0004229545593261719
ell 20, elapsed: 0.000431060791015625
ell 19, elapsed: 0.0004220008850097656
ell 18, elapsed: 0.0004298686981201172
ell 17, elapsed: 0.0004210472106933594
ell 16, elapsed: 0.0004401206970214844
ell 15, elapsed: 0.0004291534423828125
ell 14, elapsed: 0.00042891502380371094
ell 13, elapsed: 0.0004329681396484375
ell 12, elapsed: 0.00042700767517089844
ell 11, elapsed: 0.0004189014434814453
ell 10, elapsed: 0.0004317760467529297
ell 9, elapsed: 0.0004241466522216797
ell 8, elapsed: 0.00047206878662109375
ell 7, elapsed: 0.000431060791015625
ell 6, elapsed: 0.0004241466522216797
ell 5, elapsed: 0.0004298686981201172
ell 4, elapsed: 0.0004220008850097656
ell 3, elapsed: 0.00043511390686035156
ell 2, elapsed: 0.0004191398620605469
ell 1, elapsed: 0.00041604042053222656
ell 0, elapsed: 0.0004200935363769531
  1.595507 seconds (1.38 M allocations: 74.560 MiB, 2.90% gc time, 92.23% compilation time)
elapsed: 0.0005071163177490234
step:          0.357271 sec (311.151 k allocations: 16.98 MB, 7.32% gc time)
swapping:      0.000339 sec (0 allocations: 0 byte, 0.0% gc time)
calc_Mellell!: 0.133388 sec (135.746 k allocations: 7.434 MB, 0.0% gc time)
  t0 :  0.0 sec (0 allocations: 0 byte, 0.0% gc time)
  tm2 : 0.0 sec (0 allocations: 0 byte, 0.0% gc time)
  tm2s: 0.0 sec (0 allocations: 0 byte, 0.0% gc time)
  tm4 : 0.0 sec (0 allocations: 0 byte, 0.0% gc time)
  tp2 : 0.0 sec (0 allocations: 0 byte, 0.0% gc time)
  tp2s: 0.0 sec (0 allocations: 0 byte, 0.0% gc time)
  tp4 : 0.0 sec (0 allocations: 0 byte, 0.0% gc time)
calc_wtdll!:   0.734839 sec (509.622 k allocations: 28.197 MB, 0.0% gc time)
calc_wljj!:    0.002173 sec (6 allocations: 96 byte, 0.0% gc time)
mult_prefac!:  0.0 sec (0 allocations: 0 byte, 0.0% gc time)
convert:       0.0 sec (0 allocations: 0 byte, 0.0% gc time)
write:         0.003076 sec (0 allocations: 0 byte, 0.0% gc time)
test_rand_2f1: 0.0 sec (0 allocations: 0 byte, 0.0% gc time)
Closing outfile out/Ml21-cache.bin...   0.000011 seconds
  1.019998 seconds (246.16 k allocations: 14.203 MiB, 38.81% compilation time)
make_phi():   0.009356 seconds (8.18 k allocations: 237.844 KiB)
  0.236597 seconds (87.57 k allocations: 4.749 MiB, 94.63% compilation time)
tskip:       1.7e-5 sec (0 allocations: 0 byte, 0.0% gc time)
tread:       0.002034 sec (17 allocations: 2.125 KB, 0.0% gc time)
tmultphi:    0.042711 sec (21.425 k allocations: 1.287 MB, 0.0% gc time)
tbrfft:      0.003041 sec (0 allocations: 0 byte, 0.0% gc time)
tmultprefac: 0.00145 sec (0 allocations: 0 byte, 0.0% gc time)
toutfunc:    0.151046 sec (64.483 k allocations: 3.33 MB, 0.0% gc time)
Testing R=1.1 ... passed
Calculating fmax: 
  dlrec    = 4
  dlrecRg1 = -4
  q=1.1, R=1.0:	  0.001223 seconds (3.20 k allocations: 275.344 KiB)

  0.001311 seconds (3.25 k allocations: 310.250 KiB)
ℓ = 1202
Δℓ = 4
ΔℓRg1 = -4
N = 1600
q = 1.1
kmin = 1.0e-5
kmax = 100000.00000000004
χ0 = 0.023029999999999995
RR = RR.tsv
ℓmax = ℓmax.bin
f21 = f21.bin
kmin = 1.0e-5
kmax = 100000.0
dlrec    = 4
dlrecRg1 = -4
Output size: 61465536 bytes = 0.05724424123764038 GiB
Output size: 51264 bytes = 4.774332046508789e-5 GiB
Reading 'out/F21EllCache'...   0.000804 seconds (197 allocations: 84.203 KiB)
ellmax: 1202
lmaxcache: 1202
fell[:,1,1] = ComplexF64[809.6031528389767 - 1.9829558194077161e-13im, 0.0 + 0.0im]
ell 1202, elapsed: 2.002716064453125e-5
ell 1201, elapsed: 0.013367176055908203
ell 1200, elapsed: 0.013668060302734375
ell 1199, elapsed: 0.0002689361572265625
ell 1198, elapsed: 0.00026488304138183594
ell 1197, elapsed: 0.00033402442932128906
ell 1196, elapsed: 0.0003101825714111328
ell 1195, elapsed: 0.0003039836883544922
ell 1194, elapsed: 0.0003018379211425781
ell 1193, elapsed: 0.0003039836883544922
ell 1192, elapsed: 0.00030493736267089844
ell 1191, elapsed: 0.00041294097900390625
ell 1190, elapsed: 0.00030684471130371094
ell 1189, elapsed: 0.0003058910369873047
ell 1188, elapsed: 0.00030493736267089844
ell 1187, elapsed: 0.00030517578125
ell 1186, elapsed: 0.0002999305725097656
ell 1185, elapsed: 0.00030684471130371094
ell 1184, elapsed: 0.0002989768981933594
ell 1183, elapsed: 0.00031495094299316406
ell 1182, elapsed: 0.000308990478515625
ell 1181, elapsed: 0.0002980232238769531
ell 1180, elapsed: 0.00030803680419921875
ell 1179, elapsed: 0.0003349781036376953
ell 1178, elapsed: 0.0003101825714111328
ell 1177, elapsed: 0.00030493736267089844
ell 1176, elapsed: 0.00029587745666503906
ell 1175, elapsed: 0.00030517578125
ell 1174, elapsed: 0.0002980232238769531
ell 1173, elapsed: 0.0003178119659423828
ell 1172, elapsed: 0.00030612945556640625
ell 1171, elapsed: 0.0003020763397216797
ell 1170, elapsed: 0.00030303001403808594
ell 1169, elapsed: 0.00031113624572753906
ell 1168, elapsed: 0.00030303001403808594
ell 1167, elapsed: 0.00032901763916015625
ell 1166, elapsed: 0.0003001689910888672
ell 1165, elapsed: 0.0003039836883544922
ell 1164, elapsed: 0.00030112266540527344
ell 1163, elapsed: 0.00030303001403808594
ell 1162, elapsed: 0.00030517578125
ell 1161, elapsed: 0.0002989768981933594
ell 1160, elapsed: 0.00031685829162597656
ell 1159, elapsed: 0.0003058910369873047
ell 1158, elapsed: 0.000308990478515625
ell 1157, elapsed: 0.0003018379211425781
ell 1156, elapsed: 0.00030994415283203125
ell 1155, elapsed: 0.000347137451171875
ell 1154, elapsed: 0.0003070831298828125
ell 1153, elapsed: 0.0003058910369873047
ell 1152, elapsed: 0.00030493736267089844
ell 1151, elapsed: 0.000308990478515625
ell 1150, elapsed: 0.0002999305725097656
ell 1149, elapsed: 0.00030303001403808594
ell 1148, elapsed: 0.0003039836883544922
ell 1147, elapsed: 0.0002980232238769531
ell 1146, elapsed: 0.0003070831298828125
ell 1145, elapsed: 0.00030112266540527344
ell 1144, elapsed: 0.0003020763397216797
ell 1143, elapsed: 0.00030612945556640625
ell 1142, elapsed: 0.00032210350036621094
ell 1141, elapsed: 0.0003070831298828125
ell 1140, elapsed: 0.0002980232238769531
ell 1139, elapsed: 0.0003139972686767578
ell 1138, elapsed: 0.0003058910369873047
ell 1137, elapsed: 0.0003020763397216797
ell 1136, elapsed: 0.00031495094299316406
ell 1135, elapsed: 0.00030112266540527344
ell 1134, elapsed: 0.00030112266540527344
ell 1133, elapsed: 0.00030493736267089844
ell 1132, elapsed: 0.0003020763397216797
ell 1131, elapsed: 0.00030612945556640625
ell 1130, elapsed: 0.00035190582275390625
ell 1129, elapsed: 0.0002999305725097656
ell 1128, elapsed: 0.000308990478515625
ell 1127, elapsed: 0.0003020763397216797
ell 1126, elapsed: 0.00030493736267089844
ell 1125, elapsed: 0.0003020763397216797
ell 1124, elapsed: 0.0002989768981933594
ell 1123, elapsed: 0.0003108978271484375
ell 1122, elapsed: 0.00030112266540527344
ell 1121, elapsed: 0.000308990478515625
ell 1120, elapsed: 0.0002980232238769531
ell 1119, elapsed: 0.0002999305725097656
ell 1118, elapsed: 0.0003979206085205078
ell 1117, elapsed: 0.0003001689910888672
ell 1116, elapsed: 0.00030684471130371094
ell 1115, elapsed: 0.00030303001403808594
ell 1114, elapsed: 0.00030493736267089844
ell 1113, elapsed: 0.00030994415283203125
ell 1112, elapsed: 0.0002999305725097656
ell 1111, elapsed: 0.00030303001403808594
ell 1110, elapsed: 0.0002949237823486328
ell 1109, elapsed: 0.0002961158752441406
ell 1108, elapsed: 0.0003039836883544922
ell 1107, elapsed: 0.00030112266540527344
ell 1106, elapsed: 0.00033092498779296875
ell 1105, elapsed: 0.000308990478515625
ell 1104, elapsed: 0.00029015541076660156
ell 1103, elapsed: 0.0003039836883544922
ell 1102, elapsed: 0.0003020763397216797
ell 1101, elapsed: 0.0002949237823486328
ell 1100, elapsed: 0.00030493736267089844
ell 1099, elapsed: 0.00043702125549316406
ell 1098, elapsed: 0.0002999305725097656
ell 1097, elapsed: 0.00030684471130371094
ell 1096, elapsed: 0.00030493736267089844
ell 1095, elapsed: 0.00030493736267089844
ell 1094, elapsed: 0.0003399848937988281
ell 1093, elapsed: 0.00030994415283203125
ell 1092, elapsed: 0.00030112266540527344
ell 1091, elapsed: 0.00030493736267089844
ell 1090, elapsed: 0.0003120899200439453
ell 1089, elapsed: 0.00030303001403808594
ell 1088, elapsed: 0.00028204917907714844
ell 1087, elapsed: 0.00028395652770996094
ell 1086, elapsed: 0.00028586387634277344
ell 1085, elapsed: 0.0002799034118652344
ell 1084, elapsed: 0.0002849102020263672
ell 1083, elapsed: 0.0002789497375488281
ell 1082, elapsed: 0.0002779960632324219
ell 1081, elapsed: 0.0003230571746826172
ell 1080, elapsed: 0.0002911090850830078
ell 1079, elapsed: 0.0002999305725097656
ell 1078, elapsed: 0.00028705596923828125
ell 1077, elapsed: 0.0002810955047607422
ell 1076, elapsed: 0.0002930164337158203
ell 1075, elapsed: 0.0002880096435546875
ell 1074, elapsed: 0.0002989768981933594
ell 1073, elapsed: 0.000286102294921875
ell 1072, elapsed: 0.00028896331787109375
ell 1071, elapsed: 0.0002930164337158203
ell 1070, elapsed: 0.00030493736267089844
ell 1069, elapsed: 0.0002961158752441406
ell 1068, elapsed: 0.0003368854522705078
ell 1067, elapsed: 0.0003001689910888672
ell 1066, elapsed: 0.00030303001403808594
ell 1065, elapsed: 0.00029397010803222656
ell 1064, elapsed: 0.0003020763397216797
ell 1063, elapsed: 0.0003020763397216797
ell 1062, elapsed: 0.00029778480529785156
ell 1061, elapsed: 0.00031185150146484375
ell 1060, elapsed: 0.00029206275939941406
ell 1059, elapsed: 0.00029587745666503906
ell 1058, elapsed: 0.0002970695495605469
ell 1057, elapsed: 0.00029587745666503906
ell 1056, elapsed: 0.0002989768981933594
ell 1055, elapsed: 0.00034999847412109375
ell 1054, elapsed: 0.0003020763397216797
ell 1053, elapsed: 0.00028395652770996094
ell 1052, elapsed: 0.00030112266540527344
ell 1051, elapsed: 0.00031280517578125
ell 1050, elapsed: 0.0002980232238769531
ell 1049, elapsed: 0.00032901763916015625
ell 1048, elapsed: 0.0002968311309814453
ell 1047, elapsed: 0.00030493736267089844
ell 1046, elapsed: 0.00029587745666503906
ell 1045, elapsed: 0.0002989768981933594
ell 1044, elapsed: 0.0003139972686767578
ell 1043, elapsed: 0.0003428459167480469
ell 1042, elapsed: 0.0002510547637939453
ell 1041, elapsed: 0.0002651214599609375
ell 1040, elapsed: 0.00029397010803222656
ell 1039, elapsed: 0.0003018379211425781
ell 1038, elapsed: 0.0002880096435546875
ell 1037, elapsed: 0.0002601146697998047
ell 1036, elapsed: 0.0002770423889160156
ell 1035, elapsed: 0.000286102294921875
ell 1034, elapsed: 0.0002918243408203125
ell 1033, elapsed: 0.00024700164794921875
ell 1032, elapsed: 0.0002551078796386719
ell 1031, elapsed: 0.0002620220184326172
ell 1030, elapsed: 0.0002570152282714844
ell 1029, elapsed: 0.00030112266540527344
ell 1028, elapsed: 0.0002880096435546875
ell 1027, elapsed: 0.00025200843811035156
ell 1026, elapsed: 0.000244140625
ell 1025, elapsed: 0.0002739429473876953
ell 1024, elapsed: 0.000263214111328125
ell 1023, elapsed: 0.00027298927307128906
ell 1022, elapsed: 0.0002498626708984375
ell 1021, elapsed: 0.00026798248291015625
ell 1020, elapsed: 0.00024509429931640625
ell 1019, elapsed: 0.00025081634521484375
ell 1018, elapsed: 0.00024700164794921875
ell 1017, elapsed: 0.0002651214599609375
ell 1016, elapsed: 0.0002579689025878906
ell 1015, elapsed: 0.00027489662170410156
ell 1014, elapsed: 0.0002760887145996094
ell 1013, elapsed: 0.00025391578674316406
ell 1012, elapsed: 0.00026917457580566406
ell 1011, elapsed: 0.000247955322265625
ell 1010, elapsed: 0.0002460479736328125
ell 1009, elapsed: 0.0003070831298828125
ell 1008, elapsed: 0.0003108978271484375
ell 1007, elapsed: 0.0003077983856201172
ell 1006, elapsed: 0.0003039836883544922
ell 1005, elapsed: 0.00030612945556640625
ell 1004, elapsed: 0.00031280517578125
ell 1003, elapsed: 0.0002582073211669922
ell 1002, elapsed: 0.0003490447998046875
ell 1001, elapsed: 0.00024700164794921875
ell 1000, elapsed: 0.0002429485321044922
ell 999, elapsed: 0.0002989768981933594
ell 998, elapsed: 0.00024700164794921875
ell 997, elapsed: 0.00025200843811035156
ell 996, elapsed: 0.0002460479736328125
ell 995, elapsed: 0.0002560615539550781
ell 994, elapsed: 0.0002429485321044922
ell 993, elapsed: 0.00024890899658203125
ell 992, elapsed: 0.0002532005310058594
ell 991, elapsed: 0.00024509429931640625
ell 990, elapsed: 0.00025010108947753906
ell 989, elapsed: 0.00024509429931640625
ell 988, elapsed: 0.00024700164794921875
ell 987, elapsed: 0.00028204917907714844
ell 986, elapsed: 0.00024509429931640625
ell 985, elapsed: 0.0002510547637939453
ell 984, elapsed: 0.00024509429931640625
ell 983, elapsed: 0.00024509429931640625
ell 982, elapsed: 0.0002551078796386719
ell 981, elapsed: 0.00024700164794921875
ell 980, elapsed: 0.0002510547637939453
ell 979, elapsed: 0.00024509429931640625
ell 978, elapsed: 0.0002410411834716797
ell 977, elapsed: 0.0002510547637939453
ell 976, elapsed: 0.0002429485321044922
ell 975, elapsed: 0.00025010108947753906
ell 974, elapsed: 0.0002429485321044922
ell 973, elapsed: 0.00024318695068359375
ell 972, elapsed: 0.00025200843811035156
ell 971, elapsed: 0.0002911090850830078
ell 970, elapsed: 0.00025010108947753906
ell 969, elapsed: 0.0002448558807373047
ell 968, elapsed: 0.0002429485321044922
ell 967, elapsed: 0.00025916099548339844
ell 966, elapsed: 0.00024390220642089844
ell 965, elapsed: 0.00025200843811035156
ell 964, elapsed: 0.0002429485321044922
ell 963, elapsed: 0.0002429485321044922
ell 962, elapsed: 0.00030112266540527344
ell 961, elapsed: 0.0002980232238769531
ell 960, elapsed: 0.00030303001403808594
ell 959, elapsed: 0.0002999305725097656
ell 958, elapsed: 0.0002989768981933594
ell 957, elapsed: 0.0003459453582763672
ell 956, elapsed: 0.00030612945556640625
ell 955, elapsed: 0.0002930164337158203
ell 954, elapsed: 0.00028395652770996094
ell 953, elapsed: 0.0002830028533935547
ell 952, elapsed: 0.0002579689025878906
ell 951, elapsed: 0.000244140625
ell 950, elapsed: 0.0002560615539550781
ell 949, elapsed: 0.0002429485321044922
ell 948, elapsed: 0.00024318695068359375
ell 947, elapsed: 0.00025200843811035156
ell 946, elapsed: 0.0002460479736328125
ell 945, elapsed: 0.0003180503845214844
ell 944, elapsed: 0.00024700164794921875
ell 943, elapsed: 0.0003790855407714844
ell 942, elapsed: 0.00032782554626464844
ell 941, elapsed: 0.00032591819763183594
ell 940, elapsed: 0.00032401084899902344
ell 939, elapsed: 0.00031304359436035156
ell 938, elapsed: 0.0003209114074707031
ell 937, elapsed: 0.00031495094299316406
ell 936, elapsed: 0.0003108978271484375
ell 935, elapsed: 0.0003170967102050781
ell 934, elapsed: 0.00031304359436035156
ell 933, elapsed: 0.0003190040588378906
ell 932, elapsed: 0.00033092498779296875
ell 931, elapsed: 0.0003120899200439453
ell 930, elapsed: 0.0003108978271484375
ell 929, elapsed: 0.0003180503845214844
ell 928, elapsed: 0.0003159046173095703
ell 927, elapsed: 0.0003299713134765625
ell 926, elapsed: 0.00030803680419921875
ell 925, elapsed: 0.0003199577331542969
ell 924, elapsed: 0.000308990478515625
ell 923, elapsed: 0.000308990478515625
ell 922, elapsed: 0.0003018379211425781
ell 921, elapsed: 0.0002980232238769531
ell 920, elapsed: 0.0003609657287597656
ell 919, elapsed: 0.00030493736267089844
ell 918, elapsed: 0.00031304359436035156
ell 917, elapsed: 0.00031113624572753906
ell 916, elapsed: 0.00031185150146484375
ell 915, elapsed: 0.00031304359436035156
ell 914, elapsed: 0.00031185150146484375
ell 913, elapsed: 0.00032591819763183594
ell 912, elapsed: 0.0003139972686767578
ell 911, elapsed: 0.0003180503845214844
ell 910, elapsed: 0.00030994415283203125
ell 909, elapsed: 0.00031113624572753906
ell 908, elapsed: 0.0003960132598876953
ell 907, elapsed: 0.0003190040588378906
ell 906, elapsed: 0.00032591819763183594
ell 905, elapsed: 0.0003108978271484375
ell 904, elapsed: 0.0004010200500488281
ell 903, elapsed: 0.0003261566162109375
ell 902, elapsed: 0.000370025634765625
ell 901, elapsed: 0.00032806396484375
ell 900, elapsed: 0.0003230571746826172
ell 899, elapsed: 0.0003151893615722656
ell 898, elapsed: 0.00032210350036621094
ell 897, elapsed: 0.00034117698669433594
ell 896, elapsed: 0.00033211708068847656
ell 895, elapsed: 0.0003170967102050781
ell 894, elapsed: 0.0003199577331542969
ell 893, elapsed: 0.0003268718719482422
ell 892, elapsed: 0.0003180503845214844
ell 891, elapsed: 0.00032711029052734375
ell 890, elapsed: 0.0003199577331542969
ell 889, elapsed: 0.0003108978271484375
ell 888, elapsed: 0.0003199577331542969
ell 887, elapsed: 0.00031685829162597656
ell 886, elapsed: 0.00036215782165527344
ell 885, elapsed: 0.00031685829162597656
ell 884, elapsed: 0.0003199577331542969
ell 883, elapsed: 0.00031304359436035156
ell 882, elapsed: 0.0003230571746826172
ell 881, elapsed: 0.0003211498260498047
ell 880, elapsed: 0.0003139972686767578
ell 879, elapsed: 0.00032591819763183594
ell 878, elapsed: 0.00031280517578125
ell 877, elapsed: 0.0002911090850830078
ell 876, elapsed: 0.00030803680419921875
ell 875, elapsed: 0.0002970695495605469
ell 874, elapsed: 0.00033402442932128906
ell 873, elapsed: 0.00029206275939941406
ell 872, elapsed: 0.00029397010803222656
ell 871, elapsed: 0.0002989768981933594
ell 870, elapsed: 0.00030517578125
ell 869, elapsed: 0.00030994415283203125
ell 868, elapsed: 0.00029397010803222656
ell 867, elapsed: 0.0002970695495605469
ell 866, elapsed: 0.00030994415283203125
ell 865, elapsed: 0.0002989768981933594
ell 864, elapsed: 0.00030684471130371094
ell 863, elapsed: 0.0002980232238769531
ell 862, elapsed: 0.0002930164337158203
ell 861, elapsed: 0.0003478527069091797
ell 860, elapsed: 0.0002968311309814453
ell 859, elapsed: 0.00030112266540527344
ell 858, elapsed: 0.0002918243408203125
ell 857, elapsed: 0.0002930164337158203
ell 856, elapsed: 0.0002961158752441406
ell 855, elapsed: 0.0003688335418701172
ell 854, elapsed: 0.0002989768981933594
ell 853, elapsed: 0.0002949237823486328
ell 852, elapsed: 0.0003349781036376953
ell 851, elapsed: 0.00030303001403808594
ell 850, elapsed: 0.00029587745666503906
ell 849, elapsed: 0.00032901763916015625
ell 848, elapsed: 0.0002961158752441406
ell 847, elapsed: 0.00030303001403808594
ell 846, elapsed: 0.00029587745666503906
ell 845, elapsed: 0.00030493736267089844
ell 844, elapsed: 0.00030612945556640625
ell 843, elapsed: 0.0002968311309814453
ell 842, elapsed: 0.0002999305725097656
ell 841, elapsed: 0.0002989768981933594
ell 840, elapsed: 0.00029397010803222656
ell 839, elapsed: 0.00030112266540527344
ell 838, elapsed: 0.00029587745666503906
ell 837, elapsed: 0.00030493736267089844
ell 836, elapsed: 0.0002980232238769531
ell 835, elapsed: 0.0003020763397216797
ell 834, elapsed: 0.00030303001403808594
ell 833, elapsed: 0.0002999305725097656
ell 832, elapsed: 0.0002989768981933594
ell 831, elapsed: 0.0002999305725097656
ell 830, elapsed: 0.00029587745666503906
ell 829, elapsed: 0.0002980232238769531
ell 828, elapsed: 0.0002930164337158203
ell 827, elapsed: 0.0002970695495605469
ell 826, elapsed: 0.0002999305725097656
ell 825, elapsed: 0.0002949237823486328
ell 824, elapsed: 0.0003521442413330078
ell 823, elapsed: 0.0002980232238769531
ell 822, elapsed: 0.0003020763397216797
ell 821, elapsed: 0.00029397010803222656
ell 820, elapsed: 0.00030303001403808594
ell 819, elapsed: 0.00029397010803222656
ell 818, elapsed: 0.0002949237823486328
ell 817, elapsed: 0.00030517578125
ell 816, elapsed: 0.0002989768981933594
ell 815, elapsed: 0.00030112266540527344
ell 814, elapsed: 0.0002968311309814453
ell 813, elapsed: 0.0002961158752441406
ell 812, elapsed: 0.00030493736267089844
ell 811, elapsed: 0.0003211498260498047
ell 810, elapsed: 0.0003008842468261719
ell 809, elapsed: 0.0003211498260498047
ell 808, elapsed: 0.0002989768981933594
ell 807, elapsed: 0.00030612945556640625
ell 806, elapsed: 0.0002548694610595703
ell 805, elapsed: 0.0002560615539550781
ell 804, elapsed: 0.00026798248291015625
ell 803, elapsed: 0.00024700164794921875
ell 802, elapsed: 0.00026416778564453125
ell 801, elapsed: 0.00025916099548339844
ell 800, elapsed: 0.00026798248291015625
ell 799, elapsed: 0.0002460479736328125
ell 798, elapsed: 0.00024199485778808594
ell 797, elapsed: 0.0002849102020263672
ell 796, elapsed: 0.00026988983154296875
ell 795, elapsed: 0.000308990478515625
ell 794, elapsed: 0.00026917457580566406
ell 793, elapsed: 0.0002911090850830078
ell 792, elapsed: 0.00025010108947753906
ell 791, elapsed: 0.0002429485321044922
ell 790, elapsed: 0.0002529621124267578
ell 789, elapsed: 0.00024819374084472656
ell 788, elapsed: 0.00024890899658203125
ell 787, elapsed: 0.0002429485321044922
ell 786, elapsed: 0.0002551078796386719
ell 785, elapsed: 0.0002491474151611328
ell 784, elapsed: 0.000270843505859375
ell 783, elapsed: 0.000308990478515625
ell 782, elapsed: 0.0002639293670654297
ell 781, elapsed: 0.0002529621124267578
ell 780, elapsed: 0.00027489662170410156
ell 779, elapsed: 0.0002560615539550781
ell 778, elapsed: 0.0002551078796386719
ell 777, elapsed: 0.0002560615539550781
ell 776, elapsed: 0.00026988983154296875
ell 775, elapsed: 0.0002589225769042969
ell 774, elapsed: 0.00026106834411621094
ell 773, elapsed: 0.00026416778564453125
ell 772, elapsed: 0.00026798248291015625
ell 771, elapsed: 0.00027108192443847656
ell 770, elapsed: 0.000263214111328125
ell 769, elapsed: 0.0002789497375488281
ell 768, elapsed: 0.00026798248291015625
ell 767, elapsed: 0.0002560615539550781
ell 766, elapsed: 0.0002608299255371094
ell 765, elapsed: 0.0002570152282714844
ell 764, elapsed: 0.0002570152282714844
ell 763, elapsed: 0.0002620220184326172
ell 762, elapsed: 0.0002570152282714844
ell 761, elapsed: 0.00026488304138183594
ell 760, elapsed: 0.00027108192443847656
ell 759, elapsed: 0.0002510547637939453
ell 758, elapsed: 0.0002532005310058594
ell 757, elapsed: 0.0002818107604980469
ell 756, elapsed: 0.0002720355987548828
ell 755, elapsed: 0.0003490447998046875
ell 754, elapsed: 0.00026106834411621094
ell 753, elapsed: 0.0002601146697998047
ell 752, elapsed: 0.0002579689025878906
ell 751, elapsed: 0.0002942085266113281
ell 750, elapsed: 0.00026416778564453125
ell 749, elapsed: 0.00025200843811035156
ell 748, elapsed: 0.0003039836883544922
ell 747, elapsed: 0.0002930164337158203
ell 746, elapsed: 0.000263214111328125
ell 745, elapsed: 0.0002529621124267578
ell 744, elapsed: 0.0002589225769042969
ell 743, elapsed: 0.0002961158752441406
ell 742, elapsed: 0.0002899169921875
ell 741, elapsed: 0.00032901763916015625
ell 740, elapsed: 0.0002970695495605469
ell 739, elapsed: 0.0002980232238769531
ell 738, elapsed: 0.0003070831298828125
ell 737, elapsed: 0.00030493736267089844
ell 736, elapsed: 0.00030303001403808594
ell 735, elapsed: 0.0002989768981933594
ell 734, elapsed: 0.0003020763397216797
ell 733, elapsed: 0.0003001689910888672
ell 732, elapsed: 0.0002980232238769531
ell 731, elapsed: 0.0003039836883544922
ell 730, elapsed: 0.00029206275939941406
ell 729, elapsed: 0.000347137451171875
ell 728, elapsed: 0.0003018379211425781
ell 727, elapsed: 0.00030303001403808594
ell 726, elapsed: 0.00030112266540527344
ell 725, elapsed: 0.00029397010803222656
ell 724, elapsed: 0.0003018379211425781
ell 723, elapsed: 0.0002918243408203125
ell 722, elapsed: 0.00026106834411621094
ell 721, elapsed: 0.0002598762512207031
ell 720, elapsed: 0.0002570152282714844
ell 719, elapsed: 0.00026297569274902344
ell 718, elapsed: 0.0002510547637939453
ell 717, elapsed: 0.0002560615539550781
ell 716, elapsed: 0.0002579689025878906
ell 715, elapsed: 0.0002980232238769531
ell 714, elapsed: 0.0003159046173095703
ell 713, elapsed: 0.0003108978271484375
ell 712, elapsed: 0.0002620220184326172
ell 711, elapsed: 0.00028586387634277344
ell 710, elapsed: 0.00025200843811035156
ell 709, elapsed: 0.0002720355987548828
ell 708, elapsed: 0.00025391578674316406
ell 707, elapsed: 0.00026297569274902344
ell 706, elapsed: 0.0002608299255371094
ell 705, elapsed: 0.0002639293670654297
ell 704, elapsed: 0.0002789497375488281
ell 703, elapsed: 0.0002560615539550781
ell 702, elapsed: 0.0002620220184326172
ell 701, elapsed: 0.0003199577331542969
ell 700, elapsed: 0.0002498626708984375
ell 699, elapsed: 0.00026488304138183594
ell 698, elapsed: 0.0002620220184326172
ell 697, elapsed: 0.0002760887145996094
ell 696, elapsed: 0.00025200843811035156
ell 695, elapsed: 0.0002560615539550781
ell 694, elapsed: 0.0002608299255371094
ell 693, elapsed: 0.00026798248291015625
ell 692, elapsed: 0.0002560615539550781
ell 691, elapsed: 0.00025200843811035156
ell 690, elapsed: 0.0002589225769042969
ell 689, elapsed: 0.0002720355987548828
ell 688, elapsed: 0.0002510547637939453
ell 687, elapsed: 0.00030112266540527344
ell 686, elapsed: 0.0002598762512207031
ell 685, elapsed: 0.0002598762512207031
ell 684, elapsed: 0.0002551078796386719
ell 683, elapsed: 0.00024700164794921875
ell 682, elapsed: 0.0002498626708984375
ell 681, elapsed: 0.0002498626708984375
ell 680, elapsed: 0.0002460479736328125
ell 679, elapsed: 0.00025081634521484375
ell 678, elapsed: 0.0002448558807373047
ell 677, elapsed: 0.0002510547637939453
ell 676, elapsed: 0.00024700164794921875
ell 675, elapsed: 0.00024700164794921875
ell 674, elapsed: 0.00024509429931640625
ell 673, elapsed: 0.000244140625
ell 672, elapsed: 0.0002961158752441406
ell 671, elapsed: 0.000270843505859375
ell 670, elapsed: 0.0002532005310058594
ell 669, elapsed: 0.0002460479736328125
ell 668, elapsed: 0.0002491474151611328
ell 667, elapsed: 0.0002579689025878906
ell 666, elapsed: 0.0002498626708984375
ell 665, elapsed: 0.0002491474151611328
ell 664, elapsed: 0.0002498626708984375
ell 663, elapsed: 0.0002510547637939453
ell 662, elapsed: 0.00024890899658203125
ell 661, elapsed: 0.000247955322265625
ell 660, elapsed: 0.00027108192443847656
ell 659, elapsed: 0.00026917457580566406
ell 658, elapsed: 0.00025391578674316406
ell 657, elapsed: 0.00030612945556640625
ell 656, elapsed: 0.0002510547637939453
ell 655, elapsed: 0.0002570152282714844
ell 654, elapsed: 0.0002448558807373047
ell 653, elapsed: 0.00024890899658203125
ell 652, elapsed: 0.0002601146697998047
ell 651, elapsed: 0.00028586387634277344
ell 650, elapsed: 0.0002560615539550781
ell 649, elapsed: 0.0002510547637939453
ell 648, elapsed: 0.0002548694610595703
ell 647, elapsed: 0.0002689361572265625
ell 646, elapsed: 0.0002570152282714844
ell 645, elapsed: 0.00026106834411621094
ell 644, elapsed: 0.0002579689025878906
ell 643, elapsed: 0.00028514862060546875
ell 642, elapsed: 0.0002598762512207031
ell 641, elapsed: 0.00025391578674316406
ell 640, elapsed: 0.00026798248291015625
ell 639, elapsed: 0.0002510547637939453
ell 638, elapsed: 0.0002689361572265625
ell 637, elapsed: 0.0002529621124267578
ell 636, elapsed: 0.0002620220184326172
ell 635, elapsed: 0.0002570152282714844
ell 634, elapsed: 0.0002651214599609375
ell 633, elapsed: 0.0002601146697998047
ell 632, elapsed: 0.00026416778564453125
ell 631, elapsed: 0.0002598762512207031
ell 630, elapsed: 0.0002720355987548828
ell 629, elapsed: 0.0002567768096923828
ell 628, elapsed: 0.0003120899200439453
ell 627, elapsed: 0.00025391578674316406
ell 626, elapsed: 0.0002639293670654297
ell 625, elapsed: 0.00026297569274902344
ell 624, elapsed: 0.0002689361572265625
ell 623, elapsed: 0.00025916099548339844
ell 622, elapsed: 0.00026106834411621094
ell 621, elapsed: 0.00025200843811035156
ell 620, elapsed: 0.0002620220184326172
ell 619, elapsed: 0.00025200843811035156
ell 618, elapsed: 0.0002608299255371094
ell 617, elapsed: 0.0002570152282714844
ell 616, elapsed: 0.0002560615539550781
ell 615, elapsed: 0.0002589225769042969
ell 614, elapsed: 0.00033593177795410156
ell 613, elapsed: 0.000331878662109375
ell 612, elapsed: 0.0003261566162109375
ell 611, elapsed: 0.0003368854522705078
ell 610, elapsed: 0.00032782554626464844
ell 609, elapsed: 0.00032591819763183594
ell 608, elapsed: 0.0003371238708496094
ell 607, elapsed: 0.0003209114074707031
ell 606, elapsed: 0.0003249645233154297
ell 605, elapsed: 0.0003139972686767578
ell 604, elapsed: 0.0003101825714111328
ell 603, elapsed: 0.0003387928009033203
ell 602, elapsed: 0.0003230571746826172
ell 601, elapsed: 0.0003159046173095703
ell 600, elapsed: 0.0003159046173095703
ell 599, elapsed: 0.0003180503845214844
ell 598, elapsed: 0.0003299713134765625
ell 597, elapsed: 0.00032401084899902344
ell 596, elapsed: 0.0003268718719482422
ell 595, elapsed: 0.0003209114074707031
ell 594, elapsed: 0.0003170967102050781
ell 593, elapsed: 0.0003249645233154297
ell 592, elapsed: 0.0003180503845214844
ell 591, elapsed: 0.0003299713134765625
ell 590, elapsed: 0.0003228187561035156
ell 589, elapsed: 0.0003178119659423828
ell 588, elapsed: 0.0003230571746826172
ell 587, elapsed: 0.0003159046173095703
ell 586, elapsed: 0.00032210350036621094
ell 585, elapsed: 0.00031685829162597656
ell 584, elapsed: 0.0003151893615722656
ell 583, elapsed: 0.0003190040588378906
ell 582, elapsed: 0.00031185150146484375
ell 581, elapsed: 0.0003178119659423828
ell 580, elapsed: 0.00034308433532714844
ell 579, elapsed: 0.00032711029052734375
ell 578, elapsed: 0.0003151893615722656
ell 577, elapsed: 0.00030303001403808594
ell 576, elapsed: 0.00030994415283203125
ell 575, elapsed: 0.0002930164337158203
ell 574, elapsed: 0.0003070831298828125
ell 573, elapsed: 0.0002961158752441406
ell 572, elapsed: 0.0002980232238769531
ell 571, elapsed: 0.00030303001403808594
ell 570, elapsed: 0.0003058910369873047
ell 569, elapsed: 0.0003058910369873047
ell 568, elapsed: 0.00034308433532714844
ell 567, elapsed: 0.0002961158752441406
ell 566, elapsed: 0.00030612945556640625
ell 565, elapsed: 0.00029587745666503906
ell 564, elapsed: 0.00030303001403808594
ell 563, elapsed: 0.0002989768981933594
ell 562, elapsed: 0.0002980232238769531
ell 561, elapsed: 0.00030112266540527344
ell 560, elapsed: 0.0002961158752441406
ell 559, elapsed: 0.0002989768981933594
ell 558, elapsed: 0.00030303001403808594
ell 557, elapsed: 0.00030112266540527344
ell 556, elapsed: 0.00030422210693359375
ell 555, elapsed: 0.00032591819763183594
ell 554, elapsed: 0.0003190040588378906
ell 553, elapsed: 0.0003249645233154297
ell 552, elapsed: 0.00032901763916015625
ell 551, elapsed: 0.0003180503845214844
ell 550, elapsed: 0.00032520294189453125
ell 549, elapsed: 0.0003268718719482422
ell 548, elapsed: 0.0003190040588378906
ell 547, elapsed: 0.00033020973205566406
ell 546, elapsed: 0.0003209114074707031
ell 545, elapsed: 0.00032401084899902344
ell 544, elapsed: 0.0003559589385986328
ell 543, elapsed: 0.00032210350036621094
ell 542, elapsed: 0.0003249645233154297
ell 541, elapsed: 0.00032591819763183594
ell 540, elapsed: 0.00031685829162597656
ell 539, elapsed: 0.00032520294189453125
ell 538, elapsed: 0.0003199577331542969
ell 537, elapsed: 0.00032711029052734375
ell 536, elapsed: 0.0003180503845214844
ell 535, elapsed: 0.0003299713134765625
ell 534, elapsed: 0.0003330707550048828
ell 533, elapsed: 0.00041604042053222656
ell 532, elapsed: 0.0003299713134765625
ell 531, elapsed: 0.0003249645233154297
ell 530, elapsed: 0.0003261566162109375
ell 529, elapsed: 0.00032901763916015625
ell 528, elapsed: 0.00031495094299316406
ell 527, elapsed: 0.0003249645233154297
ell 526, elapsed: 0.0003209114074707031
ell 525, elapsed: 0.0003268718719482422
ell 524, elapsed: 0.0003249645233154297
ell 523, elapsed: 0.0003209114074707031
ell 522, elapsed: 0.00034809112548828125
ell 521, elapsed: 0.00032901763916015625
ell 520, elapsed: 0.0003211498260498047
ell 519, elapsed: 0.0003230571746826172
ell 518, elapsed: 0.00032019615173339844
ell 517, elapsed: 0.00032711029052734375
ell 516, elapsed: 0.00032806396484375
ell 515, elapsed: 0.00032901763916015625
ell 514, elapsed: 0.0003199577331542969
ell 513, elapsed: 0.000331878662109375
ell 512, elapsed: 0.000331878662109375
ell 511, elapsed: 0.00034618377685546875
ell 510, elapsed: 0.00033402442932128906
ell 509, elapsed: 0.00031685829162597656
ell 508, elapsed: 0.00032210350036621094
ell 507, elapsed: 0.00032401084899902344
ell 506, elapsed: 0.0003230571746826172
ell 505, elapsed: 0.0003249645233154297
ell 504, elapsed: 0.0003268718719482422
ell 503, elapsed: 0.0003199577331542969
ell 502, elapsed: 0.00032806396484375
ell 501, elapsed: 0.0003209114074707031
ell 500, elapsed: 0.00032806396484375
ell 499, elapsed: 0.0003650188446044922
ell 498, elapsed: 0.0003218650817871094
ell 497, elapsed: 0.00032711029052734375
ell 496, elapsed: 0.00032782554626464844
ell 495, elapsed: 0.00032591819763183594
ell 494, elapsed: 0.00032520294189453125
ell 493, elapsed: 0.0003352165222167969
ell 492, elapsed: 0.00032591819763183594
ell 491, elapsed: 0.0003237724304199219
ell 490, elapsed: 0.00032901763916015625
ell 489, elapsed: 0.0003228187561035156
ell 488, elapsed: 0.0003600120544433594
ell 487, elapsed: 0.00031495094299316406
ell 486, elapsed: 0.0003209114074707031
ell 485, elapsed: 0.00032591819763183594
ell 484, elapsed: 0.0003230571746826172
ell 483, elapsed: 0.0003249645233154297
ell 482, elapsed: 0.00032711029052734375
ell 481, elapsed: 0.0003209114074707031
ell 480, elapsed: 0.0003371238708496094
ell 479, elapsed: 0.0003209114074707031
ell 478, elapsed: 0.0003249645233154297
ell 477, elapsed: 0.0003409385681152344
ell 476, elapsed: 0.0003249645233154297
ell 475, elapsed: 0.0003287792205810547
ell 474, elapsed: 0.0003199577331542969
ell 473, elapsed: 0.0003299713134765625
ell 472, elapsed: 0.000308990478515625
ell 471, elapsed: 0.00029397010803222656
ell 470, elapsed: 0.0002968311309814453
ell 469, elapsed: 0.0002892017364501953
ell 468, elapsed: 0.0002951622009277344
ell 467, elapsed: 0.0002880096435546875
ell 466, elapsed: 0.0002880096435546875
ell 465, elapsed: 0.00033783912658691406
ell 464, elapsed: 0.0002930164337158203
ell 463, elapsed: 0.0002970695495605469
ell 462, elapsed: 0.0002868175506591797
ell 461, elapsed: 0.0002930164337158203
ell 460, elapsed: 0.0002830028533935547
ell 459, elapsed: 0.00028395652770996094
ell 458, elapsed: 0.0002951622009277344
ell 457, elapsed: 0.0002841949462890625
ell 456, elapsed: 0.00029015541076660156
ell 455, elapsed: 0.00028705596923828125
ell 454, elapsed: 0.0002880096435546875
ell 453, elapsed: 0.0002899169921875
ell 452, elapsed: 0.00030803680419921875
ell 451, elapsed: 0.0002918243408203125
ell 450, elapsed: 0.0002799034118652344
ell 449, elapsed: 0.00028014183044433594
ell 448, elapsed: 0.0002880096435546875
ell 447, elapsed: 0.0002739429473876953
ell 446, elapsed: 0.0002849102020263672
ell 445, elapsed: 0.0002779960632324219
ell 444, elapsed: 0.0002779960632324219
ell 443, elapsed: 0.0002830028533935547
ell 442, elapsed: 0.0002779960632324219
ell 441, elapsed: 0.0002849102020263672
ell 440, elapsed: 0.0002808570861816406
ell 439, elapsed: 0.00031495094299316406
ell 438, elapsed: 0.00029087066650390625
ell 437, elapsed: 0.00027680397033691406
ell 436, elapsed: 0.00028586387634277344
ell 435, elapsed: 0.0002808570861816406
ell 434, elapsed: 0.00028705596923828125
ell 433, elapsed: 0.0002779960632324219
ell 432, elapsed: 0.00028014183044433594
ell 431, elapsed: 0.00028586387634277344
ell 430, elapsed: 0.00028204917907714844
ell 429, elapsed: 0.00028395652770996094
ell 428, elapsed: 0.00028014183044433594
ell 427, elapsed: 0.0002760887145996094
ell 426, elapsed: 0.00028586387634277344
ell 425, elapsed: 0.00030112266540527344
ell 424, elapsed: 0.00028705596923828125
ell 423, elapsed: 0.0002789497375488281
ell 422, elapsed: 0.0002810955047607422
ell 421, elapsed: 0.0002949237823486328
ell 420, elapsed: 0.00030493736267089844
ell 419, elapsed: 0.0003039836883544922
ell 418, elapsed: 0.00030803680419921875
ell 417, elapsed: 0.00030303001403808594
ell 416, elapsed: 0.00030303001403808594
ell 415, elapsed: 0.0002868175506591797
ell 414, elapsed: 0.00029206275939941406
ell 413, elapsed: 0.0003020763397216797
ell 412, elapsed: 0.0002930164337158203
ell 411, elapsed: 0.00029397010803222656
ell 410, elapsed: 0.0002868175506591797
ell 409, elapsed: 0.0002930164337158203
ell 408, elapsed: 0.000286102294921875
ell 407, elapsed: 0.0002868175506591797
ell 406, elapsed: 0.0002951622009277344
ell 405, elapsed: 0.00029206275939941406
ell 404, elapsed: 0.0002579689025878906
ell 403, elapsed: 0.000247955322265625
ell 402, elapsed: 0.0002529621124267578
ell 401, elapsed: 0.0002498626708984375
ell 400, elapsed: 0.00024890899658203125
ell 399, elapsed: 0.00032901763916015625
ell 398, elapsed: 0.0002498626708984375
ell 397, elapsed: 0.0002570152282714844
ell 396, elapsed: 0.0002448558807373047
ell 395, elapsed: 0.000247955322265625
ell 394, elapsed: 0.0002498626708984375
ell 393, elapsed: 0.00024700164794921875
ell 392, elapsed: 0.00025200843811035156
ell 391, elapsed: 0.00024580955505371094
ell 390, elapsed: 0.0002460479736328125
ell 389, elapsed: 0.00031113624572753906
ell 388, elapsed: 0.0002999305725097656
ell 387, elapsed: 0.00031185150146484375
ell 386, elapsed: 0.000308990478515625
ell 385, elapsed: 0.00032401084899902344
ell 384, elapsed: 0.00030303001403808594
ell 383, elapsed: 0.0002961158752441406
ell 382, elapsed: 0.0003020763397216797
ell 381, elapsed: 0.0002989768981933594
ell 380, elapsed: 0.0003008842468261719
ell 379, elapsed: 0.0003058910369873047
ell 378, elapsed: 0.00030684471130371094
ell 377, elapsed: 0.000308990478515625
ell 376, elapsed: 0.0003070831298828125
ell 375, elapsed: 0.0003020763397216797
ell 374, elapsed: 0.00030684471130371094
ell 373, elapsed: 0.0003230571746826172
ell 372, elapsed: 0.00030303001403808594
ell 371, elapsed: 0.0002930164337158203
ell 370, elapsed: 0.0003020763397216797
ell 369, elapsed: 0.0003228187561035156
ell 368, elapsed: 0.0003001689910888672
ell 367, elapsed: 0.00030493736267089844
ell 366, elapsed: 0.00030303001403808594
ell 365, elapsed: 0.00030803680419921875
ell 364, elapsed: 0.0003027915954589844
ell 363, elapsed: 0.0002989768981933594
ell 362, elapsed: 0.00030684471130371094
ell 361, elapsed: 0.0002980232238769531
ell 360, elapsed: 0.0003559589385986328
ell 359, elapsed: 0.0003008842468261719
ell 358, elapsed: 0.0003018379211425781
ell 357, elapsed: 0.00030517578125
ell 356, elapsed: 0.0002970695495605469
ell 355, elapsed: 0.000308990478515625
ell 354, elapsed: 0.0002999305725097656
ell 353, elapsed: 0.00030112266540527344
ell 352, elapsed: 0.00031495094299316406
ell 351, elapsed: 0.0002968311309814453
ell 350, elapsed: 0.00031495094299316406
ell 349, elapsed: 0.000308990478515625
ell 348, elapsed: 0.00033402442932128906
ell 347, elapsed: 0.00031495094299316406
ell 346, elapsed: 0.0003018379211425781
ell 345, elapsed: 0.0003139972686767578
ell 344, elapsed: 0.000308990478515625
ell 343, elapsed: 0.00031280517578125
ell 342, elapsed: 0.0003001689910888672
ell 341, elapsed: 0.0002989768981933594
ell 340, elapsed: 0.00031185150146484375
ell 339, elapsed: 0.0003020763397216797
ell 338, elapsed: 0.00031495094299316406
ell 337, elapsed: 0.0003020763397216797
ell 336, elapsed: 0.0003249645233154297
ell 335, elapsed: 0.0003120899200439453
ell 334, elapsed: 0.0002968311309814453
ell 333, elapsed: 0.00030493736267089844
ell 332, elapsed: 0.0002999305725097656
ell 331, elapsed: 0.00030112266540527344
ell 330, elapsed: 0.0003039836883544922
ell 329, elapsed: 0.0003058910369873047
ell 328, elapsed: 0.00030803680419921875
ell 327, elapsed: 0.0002999305725097656
ell 326, elapsed: 0.0002999305725097656
ell 325, elapsed: 0.00030303001403808594
ell 324, elapsed: 0.0003509521484375
ell 323, elapsed: 0.0003108978271484375
ell 322, elapsed: 0.00029921531677246094
ell 321, elapsed: 0.0002980232238769531
ell 320, elapsed: 0.0002911090850830078
ell 319, elapsed: 0.00028586387634277344
ell 318, elapsed: 0.0002899169921875
ell 317, elapsed: 0.0002880096435546875
ell 316, elapsed: 0.0002892017364501953
ell 315, elapsed: 0.0002799034118652344
ell 314, elapsed: 0.0002830028533935547
ell 313, elapsed: 0.0002880096435546875
ell 312, elapsed: 0.0002942085266113281
ell 311, elapsed: 0.00033402442932128906
ell 310, elapsed: 0.00029397010803222656
ell 309, elapsed: 0.0002930164337158203
ell 308, elapsed: 0.0002970695495605469
ell 307, elapsed: 0.0002899169921875
ell 306, elapsed: 0.0002968311309814453
ell 305, elapsed: 0.00029397010803222656
ell 304, elapsed: 0.00029087066650390625
ell 303, elapsed: 0.00029087066650390625
ell 302, elapsed: 0.00028896331787109375
ell 301, elapsed: 0.00029015541076660156
ell 300, elapsed: 0.00028705596923828125
ell 299, elapsed: 0.00028395652770996094
ell 298, elapsed: 0.0003490447998046875
ell 297, elapsed: 0.0002849102020263672
ell 296, elapsed: 0.0002911090850830078
ell 295, elapsed: 0.00028896331787109375
ell 294, elapsed: 0.0002868175506591797
ell 293, elapsed: 0.0002961158752441406
ell 292, elapsed: 0.00029206275939941406
ell 291, elapsed: 0.0003020763397216797
ell 290, elapsed: 0.0002899169921875
ell 289, elapsed: 0.0002930164337158203
ell 288, elapsed: 0.0002999305725097656
ell 287, elapsed: 0.0002930164337158203
ell 286, elapsed: 0.00029397010803222656
ell 285, elapsed: 0.00034809112548828125
ell 284, elapsed: 0.00030612945556640625
ell 283, elapsed: 0.0002930164337158203
ell 282, elapsed: 0.0002970695495605469
ell 281, elapsed: 0.0002999305725097656
ell 280, elapsed: 0.0002930164337158203
ell 279, elapsed: 0.0002999305725097656
ell 278, elapsed: 0.00030517578125
ell 277, elapsed: 0.0002970695495605469
ell 276, elapsed: 0.0002980232238769531
ell 275, elapsed: 0.00029206275939941406
ell 274, elapsed: 0.0002942085266113281
ell 273, elapsed: 0.0003521442413330078
ell 272, elapsed: 0.0002930164337158203
ell 271, elapsed: 0.0002980232238769531
ell 270, elapsed: 0.0002880096435546875
ell 269, elapsed: 0.00030803680419921875
ell 268, elapsed: 0.00028395652770996094
ell 267, elapsed: 0.000286102294921875
ell 266, elapsed: 0.0002980232238769531
ell 265, elapsed: 0.00028705596923828125
ell 264, elapsed: 0.0002918243408203125
ell 263, elapsed: 0.000286102294921875
ell 262, elapsed: 0.00028705596923828125
ell 261, elapsed: 0.00029015541076660156
ell 260, elapsed: 0.0003199577331542969
ell 259, elapsed: 0.00029206275939941406
ell 258, elapsed: 0.00028705596923828125
ell 257, elapsed: 0.000286102294921875
ell 256, elapsed: 0.0002911090850830078
ell 255, elapsed: 0.000286102294921875
ell 254, elapsed: 0.00029397010803222656
ell 253, elapsed: 0.0002970695495605469
ell 252, elapsed: 0.0002970695495605469
ell 251, elapsed: 0.00029015541076660156
ell 250, elapsed: 0.00029206275939941406
ell 249, elapsed: 0.00029087066650390625
ell 248, elapsed: 0.0002892017364501953
ell 247, elapsed: 0.00032520294189453125
ell 246, elapsed: 0.000286102294921875
ell 245, elapsed: 0.0002899169921875
ell 244, elapsed: 0.0002930164337158203
ell 243, elapsed: 0.0002849102020263672
ell 242, elapsed: 0.0002930164337158203
ell 241, elapsed: 0.00028705596923828125
ell 240, elapsed: 0.00028586387634277344
ell 239, elapsed: 0.0002989768981933594
ell 238, elapsed: 0.00028896331787109375
ell 237, elapsed: 0.0002961158752441406
ell 236, elapsed: 0.00028705596923828125
ell 235, elapsed: 0.00032901763916015625
ell 234, elapsed: 0.0002968311309814453
ell 233, elapsed: 0.0002880096435546875
ell 232, elapsed: 0.0002918243408203125
ell 231, elapsed: 0.00028705596923828125
ell 230, elapsed: 0.00028896331787109375
ell 229, elapsed: 0.00028896331787109375
ell 228, elapsed: 0.0002880096435546875
ell 227, elapsed: 0.00029397010803222656
ell 226, elapsed: 0.00028586387634277344
ell 225, elapsed: 0.0002951622009277344
ell 224, elapsed: 0.0002899169921875
ell 223, elapsed: 0.000286102294921875
ell 222, elapsed: 0.00031495094299316406
ell 221, elapsed: 0.00029397010803222656
ell 220, elapsed: 0.00028896331787109375
ell 219, elapsed: 0.0002880096435546875
ell 218, elapsed: 0.00029397010803222656
ell 217, elapsed: 0.00029397010803222656
ell 216, elapsed: 0.0002830028533935547
ell 215, elapsed: 0.0002911090850830078
ell 214, elapsed: 0.0002799034118652344
ell 213, elapsed: 0.0002789497375488281
ell 212, elapsed: 0.0002849102020263672
ell 211, elapsed: 0.00030803680419921875
ell 210, elapsed: 0.0002789497375488281
ell 209, elapsed: 0.00032782554626464844
ell 208, elapsed: 0.0002779960632324219
ell 207, elapsed: 0.0002830028533935547
ell 206, elapsed: 0.0002751350402832031
ell 205, elapsed: 0.0002892017364501953
ell 204, elapsed: 0.0002720355987548828
ell 203, elapsed: 0.00026702880859375
ell 202, elapsed: 0.0002732276916503906
ell 201, elapsed: 0.0002770423889160156
ell 200, elapsed: 0.0002770423889160156
ell 199, elapsed: 0.00026702880859375
ell 198, elapsed: 0.0002789497375488281
ell 197, elapsed: 0.00028705596923828125
ell 196, elapsed: 0.0002799034118652344
ell 195, elapsed: 0.000308990478515625
ell 194, elapsed: 0.0002808570861816406
ell 193, elapsed: 0.00028705596923828125
ell 192, elapsed: 0.0002808570861816406
ell 191, elapsed: 0.0002930164337158203
ell 190, elapsed: 0.0002892017364501953
ell 189, elapsed: 0.0002799034118652344
ell 188, elapsed: 0.0002949237823486328
ell 187, elapsed: 0.00028586387634277344
ell 186, elapsed: 0.0002880096435546875
ell 185, elapsed: 0.0002980232238769531
ell 184, elapsed: 0.0002799034118652344
ell 183, elapsed: 0.00028586387634277344
ell 182, elapsed: 0.0003299713134765625
ell 181, elapsed: 0.0002779960632324219
ell 180, elapsed: 0.0002849102020263672
ell 179, elapsed: 0.0002779960632324219
ell 178, elapsed: 0.0002951622009277344
ell 177, elapsed: 0.0002808570861816406
ell 176, elapsed: 0.0002810955047607422
ell 175, elapsed: 0.0002899169921875
ell 174, elapsed: 0.00028204917907714844
ell 173, elapsed: 0.000286102294921875
ell 172, elapsed: 0.00028586387634277344
ell 171, elapsed: 0.0002779960632324219
ell 170, elapsed: 0.0002918243408203125
ell 169, elapsed: 0.0003170967102050781
ell 168, elapsed: 0.0002961158752441406
ell 167, elapsed: 0.0002830028533935547
ell 166, elapsed: 0.0002989768981933594
ell 165, elapsed: 0.00033211708068847656
ell 164, elapsed: 0.00031185150146484375
ell 163, elapsed: 0.0002849102020263672
ell 162, elapsed: 0.0002779960632324219
ell 161, elapsed: 0.0002830028533935547
ell 160, elapsed: 0.0002739429473876953
ell 159, elapsed: 0.0002789497375488281
ell 158, elapsed: 0.00028514862060546875
ell 157, elapsed: 0.0002760887145996094
ell 156, elapsed: 0.00037097930908203125
ell 155, elapsed: 0.0002751350402832031
ell 154, elapsed: 0.00027179718017578125
ell 153, elapsed: 0.00028204917907714844
ell 152, elapsed: 0.00027298927307128906
ell 151, elapsed: 0.0002751350402832031
ell 150, elapsed: 0.00026798248291015625
ell 149, elapsed: 0.0002701282501220703
ell 148, elapsed: 0.0002818107604980469
ell 147, elapsed: 0.00027108192443847656
ell 146, elapsed: 0.0002751350402832031
ell 145, elapsed: 0.0002818107604980469
ell 144, elapsed: 0.00027489662170410156
ell 143, elapsed: 0.00032591819763183594
ell 142, elapsed: 0.0002808570861816406
ell 141, elapsed: 0.00028896331787109375
ell 140, elapsed: 0.0002751350402832031
ell 139, elapsed: 0.00027489662170410156
ell 138, elapsed: 0.0002810955047607422
ell 137, elapsed: 0.0002760887145996094
ell 136, elapsed: 0.0002810955047607422
ell 135, elapsed: 0.0002791881561279297
ell 134, elapsed: 0.0002720355987548828
ell 133, elapsed: 0.00028014183044433594
ell 132, elapsed: 0.0002770423889160156
ell 131, elapsed: 0.0002760887145996094
ell 130, elapsed: 0.00027298927307128906
ell 129, elapsed: 0.00030112266540527344
ell 128, elapsed: 0.0002779960632324219
ell 127, elapsed: 0.0002460479736328125
ell 126, elapsed: 0.0002460479736328125
ell 125, elapsed: 0.0002357959747314453
ell 124, elapsed: 0.000244140625
ell 123, elapsed: 0.00023984909057617188
ell 122, elapsed: 0.0002391338348388672
ell 121, elapsed: 0.0002429485321044922
ell 120, elapsed: 0.0002391338348388672
ell 119, elapsed: 0.00024318695068359375
ell 118, elapsed: 0.00023484230041503906
ell 117, elapsed: 0.00023698806762695312
ell 116, elapsed: 0.00024700164794921875
ell 115, elapsed: 0.0002307891845703125
ell 114, elapsed: 0.00024318695068359375
ell 113, elapsed: 0.0003509521484375
ell 112, elapsed: 0.0002410411834716797
ell 111, elapsed: 0.00023698806762695312
ell 110, elapsed: 0.00023889541625976562
ell 109, elapsed: 0.000244140625
ell 108, elapsed: 0.0002739429473876953
ell 107, elapsed: 0.0002429485321044922
ell 106, elapsed: 0.0002529621124267578
ell 105, elapsed: 0.00024580955505371094
ell 104, elapsed: 0.0002579689025878906
ell 103, elapsed: 0.00026679039001464844
ell 102, elapsed: 0.00024509429931640625
ell 101, elapsed: 0.00024700164794921875
ell 100, elapsed: 0.00025010108947753906
ell 99, elapsed: 0.0002720355987548828
ell 98, elapsed: 0.0002760887145996094
ell 97, elapsed: 0.00027489662170410156
ell 96, elapsed: 0.0002830028533935547
ell 95, elapsed: 0.00026702880859375
ell 94, elapsed: 0.00026106834411621094
ell 93, elapsed: 0.0002541542053222656
ell 92, elapsed: 0.0002391338348388672
ell 91, elapsed: 0.00024700164794921875
ell 90, elapsed: 0.00023698806762695312
ell 89, elapsed: 0.00026297569274902344
ell 88, elapsed: 0.00026798248291015625
ell 87, elapsed: 0.00024819374084472656
ell 86, elapsed: 0.0002579689025878906
ell 85, elapsed: 0.0002429485321044922
ell 84, elapsed: 0.0002789497375488281
ell 83, elapsed: 0.0002980232238769531
ell 82, elapsed: 0.00027179718017578125
ell 81, elapsed: 0.0002689361572265625
ell 80, elapsed: 0.00028896331787109375
ell 79, elapsed: 0.00036907196044921875
ell 78, elapsed: 0.0003859996795654297
ell 77, elapsed: 0.0003669261932373047
ell 76, elapsed: 0.00036907196044921875
ell 75, elapsed: 0.00034999847412109375
ell 74, elapsed: 0.0003681182861328125
ell 73, elapsed: 0.00040793418884277344
ell 72, elapsed: 0.0002968311309814453
ell 71, elapsed: 0.00024580955505371094
ell 70, elapsed: 0.00024509429931640625
ell 69, elapsed: 0.00024199485778808594
ell 68, elapsed: 0.0002460479736328125
ell 67, elapsed: 0.00023603439331054688
ell 66, elapsed: 0.0002548694610595703
ell 65, elapsed: 0.00023698806762695312
ell 64, elapsed: 0.000247955322265625
ell 63, elapsed: 0.00023508071899414062
ell 62, elapsed: 0.00025081634521484375
ell 61, elapsed: 0.00024580955505371094
ell 60, elapsed: 0.00023603439331054688
ell 59, elapsed: 0.0002589225769042969
ell 58, elapsed: 0.00024390220642089844
ell 57, elapsed: 0.00025200843811035156
ell 56, elapsed: 0.0002598762512207031
ell 55, elapsed: 0.00024199485778808594
ell 54, elapsed: 0.000247955322265625
ell 53, elapsed: 0.00024700164794921875
ell 52, elapsed: 0.00023984909057617188
ell 51, elapsed: 0.0002460479736328125
ell 50, elapsed: 0.00023889541625976562
ell 49, elapsed: 0.00024318695068359375
ell 48, elapsed: 0.00023889541625976562
ell 47, elapsed: 0.00023698806762695312
ell 46, elapsed: 0.00024509429931640625
ell 45, elapsed: 0.00023889541625976562
ell 44, elapsed: 0.00024390220642089844
ell 43, elapsed: 0.00023603439331054688
ell 42, elapsed: 0.0002739429473876953
ell 41, elapsed: 0.0002579689025878906
ell 40, elapsed: 0.00024580955505371094
ell 39, elapsed: 0.00024199485778808594
ell 38, elapsed: 0.00023984909057617188
ell 37, elapsed: 0.0002548694610595703
ell 36, elapsed: 0.0002448558807373047
ell 35, elapsed: 0.0002372264862060547
ell 34, elapsed: 0.00025391578674316406
ell 33, elapsed: 0.00024080276489257812
ell 32, elapsed: 0.0002498626708984375
ell 31, elapsed: 0.0002460479736328125
ell 30, elapsed: 0.00023603439331054688
ell 29, elapsed: 0.00023889541625976562
ell 28, elapsed: 0.00023508071899414062
ell 27, elapsed: 0.0002579689025878906
ell 26, elapsed: 0.00023984909057617188
ell 25, elapsed: 0.00023412704467773438
ell 24, elapsed: 0.0002410411834716797
ell 23, elapsed: 0.0002410411834716797
ell 22, elapsed: 0.000244140625
ell 21, elapsed: 0.0002410411834716797
ell 20, elapsed: 0.00024509429931640625
ell 19, elapsed: 0.00024390220642089844
ell 18, elapsed: 0.00023794174194335938
ell 17, elapsed: 0.00024819374084472656
ell 16, elapsed: 0.00023412704467773438
ell 15, elapsed: 0.00023698806762695312
ell 14, elapsed: 0.00025200843811035156
ell 13, elapsed: 0.00024008750915527344
ell 12, elapsed: 0.00024700164794921875
ell 11, elapsed: 0.0002560615539550781
ell 10, elapsed: 0.00024008750915527344
ell 9, elapsed: 0.00023984909057617188
ell 8, elapsed: 0.00023412704467773438
ell 7, elapsed: 0.0002429485321044922
ell 6, elapsed: 0.00024318695068359375
ell 5, elapsed: 0.00024199485778808594
ell 4, elapsed: 0.00025200843811035156
ell 3, elapsed: 0.0002791881561279297
ell 2, elapsed: 0.0003001689910888672
ell 1, elapsed: 0.00028705596923828125
ell 0, elapsed: 0.0002970695495605469
  0.397214 seconds (46.03 k allocations: 3.091 MiB, 6.63% compilation time)
elapsed: 0.0003650188446044922
step:          0.046533 sec (0 allocations: 0 byte, 0.0% gc time)
swapping:      0.000381 sec (0 allocations: 0 byte, 0.0% gc time)
calc_Mellell!: 0.005348 sec (0 allocations: 0 byte, 0.0% gc time)
  t0 :  0.001172 sec (0 allocations: 0 byte, 0.0% gc time)
  tm2 : 0.069491 sec (0 allocations: 0 byte, 0.0% gc time)
  tm2s: 0.001274 sec (0 allocations: 0 byte, 0.0% gc time)
  tm4 : 0.158994 sec (0 allocations: 0 byte, 0.0% gc time)
  tp2 : 0.0 sec (0 allocations: 0 byte, 0.0% gc time)
  tp2s: 0.0 sec (0 allocations: 0 byte, 0.0% gc time)
  tp4 : 0.0 sec (0 allocations: 0 byte, 0.0% gc time)
calc_wtdll!:   0.259466 sec (9.9 k allocations: 1.047 MB, 0.0% gc time)
calc_wljj!:    0.019786 sec (689 allocations: 10.766 KB, 0.0% gc time)
mult_prefac!:  0.0 sec (0 allocations: 0 byte, 0.0% gc time)
convert:       0.0 sec (0 allocations: 0 byte, 0.0% gc time)
write:         0.027938 sec (0 allocations: 0 byte, 0.0% gc time)
test_rand_2f1: 0.0 sec (0 allocations: 0 byte, 0.0% gc time)
Closing outfile out/Ml21-cache.bin...   0.000009 seconds
  0.000419 seconds (36 allocations: 27.953 KiB)
make_phi():   0.001604 seconds (8.18 k allocations: 237.844 KiB)
  0.116054 seconds (141.90 k allocations: 3.483 MiB)
tskip:       0.000612 sec (0 allocations: 0 byte, 0.0% gc time)
tread:       0.021782 sec (17 allocations: 10.641 KB, 0.0% gc time)
tmultphi:    0.008967 sec (0 allocations: 0 byte, 0.0% gc time)
tbrfft:      0.032046 sec (0 allocations: 0 byte, 0.0% gc time)
tmultprefac: 0.015615 sec (0 allocations: 0 byte, 0.0% gc time)
toutfunc:    0.033565 sec (127.507 k allocations: 2.312 MB, 0.0% gc time)
Testing R=1.0 ... passed
Calculating fmax: 
  dlrec    = 4
  dlrecRg1 = -4
  q=1.1, R=0.9:	  0.271051 seconds (105.72 k allocations: 15.273 MiB, 7.26% gc time)

  0.271222 seconds (105.78 k allocations: 15.307 MiB, 7.26% gc time)
ℓ = 1202
Δℓ = 4
ΔℓRg1 = -4
N = 1600
q = 1.1
kmin = 1.0e-5
kmax = 100000.00000000004
χ0 = 0.023029999999999995
RR = RR.tsv
ℓmax = ℓmax.bin
f21 = f21.bin
kmin = 1.0e-5
kmax = 100000.0
dlrec    = 4
dlrecRg1 = -4
Output size: 5741568 bytes = 0.005347251892089844 GiB
Output size: 51264 bytes = 4.774332046508789e-5 GiB
Reading 'out/F21EllCache'...   0.000855 seconds (197 allocations: 84.203 KiB)
ellmax: 1202
lmaxcache: 1202
fell[:,1,1] = ComplexF64[1.3482014726274674e-57 - 3.302141236118086e-73im, 1.357860004724329e-57 - 3.3257978169518355e-73im]
ell 1202, elapsed: 2.4080276489257812e-5
ell 1201, elapsed: 0.00028395652770996094
ell 1200, elapsed: 0.00026297569274902344
ell 1199, elapsed: 0.0002620220184326172
ell 1198, elapsed: 0.00026702880859375
ell 1002, elapsed: 0.008314132690429688
ell 1001, elapsed: 0.0002760887145996094
ell 1000, elapsed: 0.00026607513427734375
ell 999, elapsed: 0.0002651214599609375
ell 998, elapsed: 0.00026607513427734375
ell 902, elapsed: 0.004394054412841797
ell 901, elapsed: 0.0002741813659667969
ell 900, elapsed: 0.0002760887145996094
ell 899, elapsed: 0.0002758502960205078
ell 898, elapsed: 0.0002789497375488281
ell 802, elapsed: 0.004332780838012695
ell 801, elapsed: 0.00026988983154296875
ell 800, elapsed: 0.00026679039001464844
ell 799, elapsed: 0.0002620220184326172
ell 798, elapsed: 0.0002639293670654297
ell 702, elapsed: 0.004210948944091797
ell 701, elapsed: 0.0002770423889160156
ell 700, elapsed: 0.0002651214599609375
ell 699, elapsed: 0.0003199577331542969
ell 698, elapsed: 0.0002608299255371094
ell 602, elapsed: 0.004189014434814453
ell 601, elapsed: 0.00026702880859375
ell 600, elapsed: 0.0002579689025878906
ell 599, elapsed: 0.0002589225769042969
ell 598, elapsed: 0.0002589225769042969
ell 502, elapsed: 0.004223823547363281
ell 501, elapsed: 0.0002739429473876953
ell 500, elapsed: 0.0002639293670654297
ell 499, elapsed: 0.0002570152282714844
ell 498, elapsed: 0.00025916099548339844
ell 402, elapsed: 0.004127025604248047
ell 401, elapsed: 0.0002701282501220703
ell 400, elapsed: 0.00026488304138183594
ell 399, elapsed: 0.0002930164337158203
ell 398, elapsed: 0.00026106834411621094
ell 302, elapsed: 0.004163980484008789
ell 301, elapsed: 0.0002841949462890625
ell 300, elapsed: 0.00026702880859375
ell 299, elapsed: 0.0002658367156982422
ell 298, elapsed: 0.00026416778564453125
ell 202, elapsed: 0.007173061370849609
ell 201, elapsed: 0.00025582313537597656
ell 200, elapsed: 0.00024008750915527344
ell 199, elapsed: 0.00024199485778808594
ell 198, elapsed: 0.0002391338348388672
ell 152, elapsed: 0.002123117446899414
ell 151, elapsed: 0.0002601146697998047
ell 150, elapsed: 0.00026106834411621094
ell 149, elapsed: 0.00026106834411621094
ell 148, elapsed: 0.0002601146697998047
ell 127, elapsed: 0.0011429786682128906
ell 126, elapsed: 0.00025582313537597656
ell 125, elapsed: 0.0002579689025878906
ell 124, elapsed: 0.0002589225769042969
ell 123, elapsed: 0.0002601146697998047
ell 114, elapsed: 0.0006699562072753906
ell 113, elapsed: 0.00026297569274902344
ell 112, elapsed: 0.0002598762512207031
ell 111, elapsed: 0.0002589225769042969
ell 110, elapsed: 0.0002601146697998047
ell 102, elapsed: 0.0005979537963867188
ell 101, elapsed: 0.00026917457580566406
ell 100, elapsed: 0.0002598762512207031
ell 99, elapsed: 0.00026297569274902344
ell 98, elapsed: 0.00025916099548339844
ell 97, elapsed: 0.0003159046173095703
ell 96, elapsed: 0.0002989768981933594
ell 95, elapsed: 0.002015829086303711
ell 94, elapsed: 0.0003101825714111328
ell 93, elapsed: 0.00030612945556640625
ell 92, elapsed: 0.000308990478515625
ell 91, elapsed: 0.0005700588226318359
ell 90, elapsed: 0.0003199577331542969
ell 89, elapsed: 0.0003218650817871094
ell 88, elapsed: 0.00030684471130371094
ell 87, elapsed: 0.0003070831298828125
ell 86, elapsed: 0.0003039836883544922
ell 85, elapsed: 0.00031304359436035156
ell 84, elapsed: 0.00030493736267089844
ell 83, elapsed: 0.0002989768981933594
ell 82, elapsed: 0.00030994415283203125
ell 81, elapsed: 0.0003070831298828125
ell 80, elapsed: 0.0003101825714111328
ell 79, elapsed: 0.00030803680419921875
ell 78, elapsed: 0.0003170967102050781
ell 77, elapsed: 0.00038886070251464844
ell 76, elapsed: 0.0004119873046875
ell 75, elapsed: 0.00032401084899902344
ell 74, elapsed: 0.00031495094299316406
ell 73, elapsed: 0.000308990478515625
ell 72, elapsed: 0.00030493736267089844
ell 71, elapsed: 0.0003108978271484375
ell 70, elapsed: 0.0003139972686767578
ell 69, elapsed: 0.0003039836883544922
ell 68, elapsed: 0.0003199577331542969
ell 67, elapsed: 0.00031185150146484375
ell 66, elapsed: 0.000308990478515625
ell 65, elapsed: 0.00039696693420410156
ell 64, elapsed: 0.00030684471130371094
ell 63, elapsed: 0.0003108978271484375
ell 62, elapsed: 0.0003101825714111328
ell 61, elapsed: 0.000308990478515625
ell 60, elapsed: 0.00031304359436035156
ell 59, elapsed: 0.000308990478515625
ell 58, elapsed: 0.0003108978271484375
ell 57, elapsed: 0.00030684471130371094
ell 56, elapsed: 0.0002999305725097656
ell 55, elapsed: 0.00031495094299316406
ell 54, elapsed: 0.00031495094299316406
ell 53, elapsed: 0.0004780292510986328
ell 52, elapsed: 0.00030112266540527344
ell 51, elapsed: 0.0003039836883544922
ell 50, elapsed: 0.0003368854522705078
ell 49, elapsed: 0.0003120899200439453
ell 48, elapsed: 0.0003180503845214844
ell 47, elapsed: 0.00031304359436035156
ell 46, elapsed: 0.00030303001403808594
ell 45, elapsed: 0.0003170967102050781
ell 44, elapsed: 0.0003159046173095703
ell 43, elapsed: 0.0003190040588378906
ell 42, elapsed: 0.0003590583801269531
ell 41, elapsed: 0.000308990478515625
ell 40, elapsed: 0.0003178119659423828
ell 39, elapsed: 0.00031113624572753906
ell 38, elapsed: 0.00031685829162597656
ell 37, elapsed: 0.00030612945556640625
ell 36, elapsed: 0.00037598609924316406
ell 35, elapsed: 0.00032591819763183594
ell 34, elapsed: 0.0002989768981933594
ell 33, elapsed: 0.0003268718719482422
ell 32, elapsed: 0.0002968311309814453
ell 31, elapsed: 0.0002970695495605469
ell 30, elapsed: 0.00030803680419921875
ell 29, elapsed: 0.00030493736267089844
ell 28, elapsed: 0.00032019615173339844
ell 27, elapsed: 0.00030493736267089844
ell 26, elapsed: 0.00034689903259277344
ell 25, elapsed: 0.0003108978271484375
ell 24, elapsed: 0.00031113624572753906
ell 23, elapsed: 0.00030803680419921875
ell 22, elapsed: 0.00030493736267089844
ell 21, elapsed: 0.00030493736267089844
ell 20, elapsed: 0.00029587745666503906
ell 19, elapsed: 0.0002980232238769531
ell 18, elapsed: 0.00030994415283203125
ell 17, elapsed: 0.0003001689910888672
ell 16, elapsed: 0.0003249645233154297
ell 15, elapsed: 0.00030112266540527344
ell 14, elapsed: 0.0003521442413330078
ell 13, elapsed: 0.00031113624572753906
ell 12, elapsed: 0.0003039836883544922
ell 11, elapsed: 0.00030517578125
ell 10, elapsed: 0.0002989768981933594
ell 9, elapsed: 0.00030303001403808594
ell 8, elapsed: 0.00030994415283203125
ell 7, elapsed: 0.0002970695495605469
ell 6, elapsed: 0.00030803680419921875
ell 5, elapsed: 0.0002999305725097656
ell 4, elapsed: 0.00030303001403808594
ell 3, elapsed: 0.00031304359436035156
ell 2, elapsed: 0.0003559589385986328
ell 1, elapsed: 0.00031685829162597656
ell 0, elapsed: 0.0003058910369873047
  0.107859 seconds (11.51 k allocations: 719.594 KiB)
elapsed: 0.00035500526428222656
step:          0.05046 sec (0 allocations: 0 byte, 0.0% gc time)
swapping:      0.000323 sec (0 allocations: 0 byte, 0.0% gc time)
calc_Mellell!: 0.000801 sec (0 allocations: 0 byte, 0.0% gc time)
  t0 :  0.000227 sec (0 allocations: 0 byte, 0.0% gc time)
  tm2 : 0.00993 sec (0 allocations: 0 byte, 0.0% gc time)
  tm2s: 0.000231 sec (0 allocations: 0 byte, 0.0% gc time)
  tm4 : 0.025586 sec (0 allocations: 0 byte, 0.0% gc time)
  tp2 : 0.0 sec (0 allocations: 0 byte, 0.0% gc time)
  tp2s: 0.0 sec (0 allocations: 0 byte, 0.0% gc time)
  tp4 : 0.0 sec (0 allocations: 0 byte, 0.0% gc time)
calc_wtdll!:   0.036434 sec (1.344 k allocations: 147.0 KB, 0.0% gc time)
calc_wljj!:    0.002313 sec (6 allocations: 96 byte, 0.0% gc time)
mult_prefac!:  0.0 sec (0 allocations: 0 byte, 0.0% gc time)
convert:       0.0 sec (0 allocations: 0 byte, 0.0% gc time)
write:         0.003265 sec (0 allocations: 0 byte, 0.0% gc time)
test_rand_2f1: 0.0 sec (0 allocations: 0 byte, 0.0% gc time)
Closing outfile out/Ml21-cache.bin...   0.000005 seconds
  0.000420 seconds (36 allocations: 27.953 KiB)
make_phi():   0.001465 seconds (8.18 k allocations: 237.844 KiB)
  0.011272 seconds (11.65 k allocations: 308.688 KiB)
tskip:       1.6e-5 sec (0 allocations: 0 byte, 0.0% gc time)
tread:       0.002021 sec (17 allocations: 2.125 KB, 0.0% gc time)
tmultphi:    0.000845 sec (0 allocations: 0 byte, 0.0% gc time)
tbrfft:      0.003344 sec (0 allocations: 0 byte, 0.0% gc time)
tmultprefac: 0.001544 sec (0 allocations: 0 byte, 0.0% gc time)
toutfunc:    0.003258 sec (10.304 k allocations: 196.0 KB, 0.0% gc time)
Testing R=0.9 ... passed
Calculating fmax: 
  dlrec    = 4
  dlrecRg1 = -4
  q=1.1, R=0.8:	  0.204094 seconds (103.21 k allocations: 14.840 MiB)

  0.204230 seconds (103.25 k allocations: 14.874 MiB)
ℓ = 1202
Δℓ = 4
ΔℓRg1 = -4
N = 1600
q = 1.1
kmin = 1.0e-5
kmax = 100000.00000000004
χ0 = 0.023029999999999995
RR = RR.tsv
ℓmax = ℓmax.bin
f21 = f21.bin
kmin = 1.0e-5
kmax = 100000.0
dlrec    = 4
dlrecRg1 = -4
Output size: 5741568 bytes = 0.005347251892089844 GiB
Output size: 51264 bytes = 4.774332046508789e-5 GiB
Reading 'out/F21EllCache'...   0.000859 seconds (197 allocations: 84.203 KiB)
ellmax: 1202
lmaxcache: 1202
fell[:,1,1] = ComplexF64[7.519068145690986e-120 - 1.8416405474382574e-135im, 7.541664537386155e-120 - 1.847175067190611e-135im]
ell 1202, elapsed: 1.6927719116210938e-5
ell 1201, elapsed: 0.0011298656463623047
ell 1200, elapsed: 0.0003020763397216797
ell 1199, elapsed: 0.00029206275939941406
ell 1198, elapsed: 0.0002930164337158203
ell 1002, elapsed: 0.009901046752929688
ell 1001, elapsed: 0.0011260509490966797
ell 1000, elapsed: 0.0002620220184326172
ell 999, elapsed: 0.0002620220184326172
ell 998, elapsed: 0.00025391578674316406
ell 902, elapsed: 0.0049359798431396484
ell 901, elapsed: 0.0002689361572265625
ell 900, elapsed: 0.0002601146697998047
ell 899, elapsed: 0.00025391578674316406
ell 898, elapsed: 0.0002570152282714844
ell 802, elapsed: 0.005736827850341797
ell 801, elapsed: 0.0002639293670654297
ell 800, elapsed: 0.00025916099548339844
ell 799, elapsed: 0.0002532005310058594
ell 798, elapsed: 0.0002529621124267578
ell 702, elapsed: 0.005174875259399414
ell 701, elapsed: 0.0002868175506591797
ell 700, elapsed: 0.00025582313537597656
ell 699, elapsed: 0.0002541542053222656
ell 698, elapsed: 0.00026297569274902344
ell 602, elapsed: 0.008356094360351562
ell 601, elapsed: 0.0002510547637939453
ell 600, elapsed: 0.00023984909057617188
ell 599, elapsed: 0.0002391338348388672
ell 598, elapsed: 0.00023984909057617188
ell 502, elapsed: 0.004006862640380859
ell 501, elapsed: 0.0002570152282714844
ell 500, elapsed: 0.0002510547637939453
ell 499, elapsed: 0.00025582313537597656
ell 498, elapsed: 0.0002529621124267578
ell 402, elapsed: 0.0041921138763427734
ell 401, elapsed: 0.004409074783325195
ell 400, elapsed: 0.00026798248291015625
ell 399, elapsed: 0.0002658367156982422
ell 398, elapsed: 0.0002579689025878906
ell 302, elapsed: 0.004180192947387695
ell 301, elapsed: 0.0002779960632324219
ell 300, elapsed: 0.00024700164794921875
ell 299, elapsed: 0.00024199485778808594
ell 298, elapsed: 0.0002410411834716797
ell 202, elapsed: 0.003982067108154297
ell 201, elapsed: 0.0002560615539550781
ell 200, elapsed: 0.0002560615539550781
ell 199, elapsed: 0.00024890899658203125
ell 198, elapsed: 0.00024390220642089844
ell 152, elapsed: 0.0020978450775146484
ell 151, elapsed: 0.0002570152282714844
ell 150, elapsed: 0.00025010108947753906
ell 149, elapsed: 0.0002589225769042969
ell 148, elapsed: 0.0002491474151611328
ell 127, elapsed: 0.0010728836059570312
ell 126, elapsed: 0.004384040832519531
ell 125, elapsed: 0.00026416778564453125
ell 124, elapsed: 0.0002579689025878906
ell 123, elapsed: 0.00026702880859375
ell 114, elapsed: 0.0006558895111083984
ell 113, elapsed: 0.00026106834411621094
ell 112, elapsed: 0.0002560615539550781
ell 111, elapsed: 0.0002570152282714844
ell 110, elapsed: 0.0002570152282714844
ell 102, elapsed: 0.0006041526794433594
ell 101, elapsed: 0.0002510547637939453
ell 100, elapsed: 0.00029206275939941406
ell 99, elapsed: 0.00026297569274902344
ell 98, elapsed: 0.00036597251892089844
ell 97, elapsed: 0.0003199577331542969
ell 96, elapsed: 0.00028514862060546875
ell 95, elapsed: 0.00029778480529785156
ell 94, elapsed: 0.0002810955047607422
ell 93, elapsed: 0.00028705596923828125
ell 92, elapsed: 0.0002789497375488281
ell 91, elapsed: 0.0002810955047607422
ell 90, elapsed: 0.000286102294921875
ell 89, elapsed: 0.00029087066650390625
ell 88, elapsed: 0.0002918243408203125
ell 87, elapsed: 0.00033402442932128906
ell 86, elapsed: 0.00029206275939941406
ell 85, elapsed: 0.0002760887145996094
ell 84, elapsed: 0.0002810955047607422
ell 83, elapsed: 0.000270843505859375
ell 82, elapsed: 0.0002849102020263672
ell 81, elapsed: 0.0003070831298828125
ell 80, elapsed: 0.0002651214599609375
ell 79, elapsed: 0.00025200843811035156
ell 78, elapsed: 0.000263214111328125
ell 77, elapsed: 0.0002548694610595703
ell 76, elapsed: 0.0002570152282714844
ell 75, elapsed: 0.0002460479736328125
ell 74, elapsed: 0.00025200843811035156
ell 73, elapsed: 0.00030803680419921875
ell 72, elapsed: 0.0002701282501220703
ell 71, elapsed: 0.00026798248291015625
ell 70, elapsed: 0.0002608299255371094
ell 69, elapsed: 0.00026702880859375
ell 68, elapsed: 0.00028896331787109375
ell 67, elapsed: 0.0003058910369873047
ell 66, elapsed: 0.0003058910369873047
ell 65, elapsed: 0.00030493736267089844
ell 64, elapsed: 0.0002980232238769531
ell 63, elapsed: 0.0003039836883544922
ell 62, elapsed: 0.0003058910369873047
ell 61, elapsed: 0.0003070831298828125
ell 60, elapsed: 0.0003409385681152344
ell 59, elapsed: 0.0003039836883544922
ell 58, elapsed: 0.0002980232238769531
ell 57, elapsed: 0.00029587745666503906
[...]
ell 781, elapsed: 0.0005240440368652344
ell 780, elapsed: 0.0005269050598144531
ell 779, elapsed: 0.0005228519439697266
ell 778, elapsed: 0.0005331039428710938
ell 772, elapsed: 0.0011701583862304688
ell 771, elapsed: 0.0005340576171875
ell 770, elapsed: 0.0005280971527099609
ell 769, elapsed: 0.0005328655242919922
ell 768, elapsed: 0.0005290508270263672
ell 762, elapsed: 0.0009429454803466797
ell 761, elapsed: 0.0007078647613525391
ell 760, elapsed: 0.0005340576171875
ell 759, elapsed: 0.0005240440368652344
ell 758, elapsed: 0.0005290508270263672
ell 752, elapsed: 0.0009338855743408203
ell 751, elapsed: 0.0005328655242919922
ell 750, elapsed: 0.0007030963897705078
ell 749, elapsed: 0.0005230903625488281
ell 748, elapsed: 0.0005238056182861328
ell 742, elapsed: 0.0009291172027587891
ell 741, elapsed: 0.0005190372467041016
ell 740, elapsed: 0.0005619525909423828
ell 739, elapsed: 0.004661083221435547
ell 738, elapsed: 0.0005979537963867188
ell 732, elapsed: 0.0009951591491699219
ell 731, elapsed: 0.0005469322204589844
ell 730, elapsed: 0.0005590915679931641
ell 729, elapsed: 0.0006239414215087891
ell 728, elapsed: 0.000659942626953125
ell 722, elapsed: 0.0009708404541015625
ell 721, elapsed: 0.0005540847778320312
ell 720, elapsed: 0.0005691051483154297
ell 719, elapsed: 0.0005559921264648438
ell 718, elapsed: 0.0009610652923583984
ell 712, elapsed: 0.0008571147918701172
ell 711, elapsed: 0.0004820823669433594
ell 710, elapsed: 0.0004889965057373047
ell 709, elapsed: 0.000553131103515625
ell 708, elapsed: 0.0005660057067871094
ell 702, elapsed: 0.000993967056274414
ell 701, elapsed: 0.0004792213439941406
ell 700, elapsed: 0.0004630088806152344
ell 699, elapsed: 0.00045180320739746094
ell 698, elapsed: 0.0004878044128417969
ell 692, elapsed: 0.0008068084716796875
ell 691, elapsed: 0.00048613548278808594
ell 690, elapsed: 0.00047707557678222656
ell 689, elapsed: 0.0005199909210205078
ell 688, elapsed: 0.0004849433898925781
ell 682, elapsed: 0.0008020401000976562
ell 681, elapsed: 0.00046896934509277344
ell 680, elapsed: 0.0004949569702148438
ell 679, elapsed: 0.0004839897155761719
ell 678, elapsed: 0.0005080699920654297
ell 672, elapsed: 0.0008292198181152344
ell 671, elapsed: 0.0004780292510986328
ell 670, elapsed: 0.000469207763671875
ell 669, elapsed: 0.0004680156707763672
ell 668, elapsed: 0.0004749298095703125
ell 662, elapsed: 0.0007710456848144531
ell 661, elapsed: 0.0004699230194091797
ell 660, elapsed: 0.0004968643188476562
ell 659, elapsed: 0.0004589557647705078
ell 658, elapsed: 0.0004620552062988281
ell 652, elapsed: 0.0007550716400146484
ell 651, elapsed: 0.00045490264892578125
ell 650, elapsed: 0.0004630088806152344
ell 649, elapsed: 0.0004589557647705078
ell 648, elapsed: 0.00047898292541503906
ell 642, elapsed: 0.0007619857788085938
ell 641, elapsed: 0.00045490264892578125
ell 640, elapsed: 0.0004630088806152344
ell 639, elapsed: 0.00046181678771972656
ell 638, elapsed: 0.0005011558532714844
ell 632, elapsed: 0.0007920265197753906
ell 631, elapsed: 0.0004889965057373047
ell 630, elapsed: 0.0005269050598144531
ell 629, elapsed: 0.0005490779876708984
ell 628, elapsed: 0.0005130767822265625
ell 622, elapsed: 0.0009140968322753906
ell 621, elapsed: 0.0005211830139160156
ell 620, elapsed: 0.0005278587341308594
ell 619, elapsed: 0.0005540847778320312
ell 618, elapsed: 0.0005319118499755859
ell 612, elapsed: 0.0009510517120361328
ell 611, elapsed: 0.0005371570587158203
ell 610, elapsed: 0.0005390644073486328
ell 609, elapsed: 0.0005340576171875
ell 608, elapsed: 0.0005750656127929688
ell 602, elapsed: 0.0009310245513916016
ell 601, elapsed: 0.0005271434783935547
ell 600, elapsed: 0.0005230903625488281
ell 599, elapsed: 0.0005328655242919922
ell 598, elapsed: 0.0005481243133544922
ell 592, elapsed: 0.0009849071502685547
ell 591, elapsed: 0.0005309581756591797
ell 590, elapsed: 0.0005400180816650391
ell 589, elapsed: 0.0005209445953369141
ell 588, elapsed: 0.0005488395690917969
ell 582, elapsed: 0.0009520053863525391
ell 581, elapsed: 0.0005841255187988281
ell 580, elapsed: 0.0005450248718261719
ell 579, elapsed: 0.000537872314453125
ell 578, elapsed: 0.0005369186401367188
ell 572, elapsed: 0.0009400844573974609
ell 571, elapsed: 0.0005350112915039062
ell 570, elapsed: 0.0005340576171875
ell 569, elapsed: 0.0005919933319091797
ell 568, elapsed: 0.0005469322204589844
ell 562, elapsed: 0.0009469985961914062
ell 561, elapsed: 0.0005631446838378906
ell 560, elapsed: 0.0005669593811035156
ell 559, elapsed: 0.0005431175231933594
ell 558, elapsed: 0.0005800724029541016
ell 552, elapsed: 0.0009179115295410156
ell 551, elapsed: 0.0005328655242919922
ell 550, elapsed: 0.0005400180816650391
ell 549, elapsed: 0.0005629062652587891
ell 548, elapsed: 0.0005500316619873047
ell 542, elapsed: 0.005221128463745117
ell 541, elapsed: 0.0005648136138916016
ell 540, elapsed: 0.0005559921264648438
ell 539, elapsed: 0.000537872314453125
ell 538, elapsed: 0.0005350112915039062
ell 532, elapsed: 0.0009961128234863281
ell 531, elapsed: 0.0005710124969482422
ell 530, elapsed: 0.0005757808685302734
ell 529, elapsed: 0.0005660057067871094
ell 528, elapsed: 0.0005700588226318359
ell 522, elapsed: 0.0010018348693847656
ell 521, elapsed: 0.0006048679351806641
ell 520, elapsed: 0.00055694580078125
ell 519, elapsed: 0.0005540847778320312
ell 518, elapsed: 0.0005509853363037109
ell 512, elapsed: 0.0009639263153076172
ell 511, elapsed: 0.0005500316619873047
ell 510, elapsed: 0.0005490779876708984
ell 509, elapsed: 0.0005540847778320312
ell 508, elapsed: 0.0005688667297363281
ell 502, elapsed: 0.0009748935699462891
ell 501, elapsed: 0.0005419254302978516
ell 500, elapsed: 0.0005688667297363281
ell 499, elapsed: 0.0005381107330322266
ell 498, elapsed: 0.0006330013275146484
ell 492, elapsed: 0.0009508132934570312
ell 491, elapsed: 0.0005369186401367188
ell 490, elapsed: 0.0005509853363037109
ell 489, elapsed: 0.0005390644073486328
ell 488, elapsed: 0.0005450248718261719
ell 482, elapsed: 0.0012021064758300781
ell 481, elapsed: 0.0005459785461425781
ell 480, elapsed: 0.0005500316619873047
ell 479, elapsed: 0.0005440711975097656
ell 478, elapsed: 0.0005409717559814453
ell 472, elapsed: 0.0017659664154052734
ell 471, elapsed: 0.0005450248718261719
ell 470, elapsed: 0.0005421638488769531
ell 469, elapsed: 0.0005290508270263672
ell 468, elapsed: 0.0005409717559814453
ell 462, elapsed: 0.0014150142669677734
ell 461, elapsed: 0.0005400180816650391
ell 460, elapsed: 0.0005369186401367188
ell 459, elapsed: 0.0005419254302978516
ell 458, elapsed: 0.0005447864532470703
ell 452, elapsed: 0.0009398460388183594
ell 451, elapsed: 0.0010099411010742188
ell 450, elapsed: 0.0005509853363037109
ell 449, elapsed: 0.0005319118499755859
ell 448, elapsed: 0.0005500316619873047
ell 442, elapsed: 0.0009629726409912109
ell 441, elapsed: 0.0009999275207519531
ell 440, elapsed: 0.0005471706390380859
ell 439, elapsed: 0.0005390644073486328
ell 438, elapsed: 0.0005288124084472656
ell 432, elapsed: 0.0009279251098632812
ell 431, elapsed: 0.0005319118499755859
ell 430, elapsed: 0.0006330013275146484
ell 429, elapsed: 0.0005309581756591797
ell 428, elapsed: 0.0005300045013427734
ell 422, elapsed: 0.0009379386901855469
ell 421, elapsed: 0.000514984130859375
ell 420, elapsed: 0.0005371570587158203
ell 419, elapsed: 0.00055694580078125
ell 418, elapsed: 0.0005249977111816406
ell 412, elapsed: 0.0009551048278808594
ell 411, elapsed: 0.0005180835723876953
ell 410, elapsed: 0.0005168914794921875
ell 409, elapsed: 0.0005137920379638672
ell 408, elapsed: 0.0005328655242919922
ell 402, elapsed: 0.0009610652923583984
ell 401, elapsed: 0.0005128383636474609
ell 400, elapsed: 0.0005199909210205078
ell 399, elapsed: 0.0005199909210205078
ell 398, elapsed: 0.000537872314453125
ell 392, elapsed: 0.0008709430694580078
ell 391, elapsed: 0.0005700588226318359
ell 390, elapsed: 0.0004839897155761719
ell 389, elapsed: 0.0004820823669433594
ell 388, elapsed: 0.0005211830139160156
ell 382, elapsed: 0.0009548664093017578
ell 381, elapsed: 0.0005350112915039062
ell 380, elapsed: 0.0005609989166259766
ell 379, elapsed: 0.0004830360412597656
ell 378, elapsed: 0.000537872314453125
ell 372, elapsed: 0.0007929801940917969
ell 371, elapsed: 0.0004458427429199219
ell 370, elapsed: 0.0004611015319824219
ell 369, elapsed: 0.0005240440368652344
ell 368, elapsed: 0.0005130767822265625
ell 362, elapsed: 0.0008630752563476562
ell 361, elapsed: 0.0004918575286865234
ell 360, elapsed: 0.0005400180816650391
ell 359, elapsed: 0.0005369186401367188
ell 358, elapsed: 0.0005331039428710938
ell 352, elapsed: 0.0010180473327636719
ell 351, elapsed: 0.0005238056182861328
ell 350, elapsed: 0.0004730224609375
ell 349, elapsed: 0.0004589557647705078
ell 348, elapsed: 0.0005311965942382812
ell 342, elapsed: 0.0009260177612304688
ell 341, elapsed: 0.00043511390686035156
ell 340, elapsed: 0.0005059242248535156
ell 339, elapsed: 0.000518798828125
ell 338, elapsed: 0.0005381107330322266
ell 332, elapsed: 0.0008530616760253906
ell 331, elapsed: 0.0004858970642089844
ell 330, elapsed: 0.0005140304565429688
ell 329, elapsed: 0.00045013427734375
ell 328, elapsed: 0.0004849433898925781
ell 322, elapsed: 0.000782012939453125
ell 321, elapsed: 0.00045800209045410156
ell 320, elapsed: 0.0004470348358154297
ell 319, elapsed: 0.0005018711090087891
ell 318, elapsed: 0.0005271434783935547
ell 312, elapsed: 0.0009961128234863281
ell 311, elapsed: 0.0005259513854980469
ell 310, elapsed: 0.0005249977111816406
ell 309, elapsed: 0.0005168914794921875
ell 308, elapsed: 0.0005259513854980469
ell 302, elapsed: 0.0009748935699462891
ell 301, elapsed: 0.0005319118499755859
ell 300, elapsed: 0.0005559921264648438
ell 299, elapsed: 0.0004608631134033203
ell 298, elapsed: 0.0004470348358154297
ell 292, elapsed: 0.0008559226989746094
ell 291, elapsed: 0.00046515464782714844
ell 290, elapsed: 0.0004379749298095703
ell 289, elapsed: 0.0005011558532714844
ell 288, elapsed: 0.000537872314453125
ell 282, elapsed: 0.0009682178497314453
ell 281, elapsed: 0.0005340576171875
ell 280, elapsed: 0.0005240440368652344
ell 279, elapsed: 0.0005300045013427734
ell 278, elapsed: 0.0005300045013427734
ell 272, elapsed: 0.0009779930114746094
ell 271, elapsed: 0.0005300045013427734
ell 270, elapsed: 0.0005359649658203125
ell 269, elapsed: 0.0005290508270263672
ell 268, elapsed: 0.0005319118499755859
ell 262, elapsed: 0.0008959770202636719
ell 261, elapsed: 0.0004341602325439453
ell 260, elapsed: 0.0004899501800537109
ell 259, elapsed: 0.00044798851013183594
ell 258, elapsed: 0.00046896934509277344
ell 252, elapsed: 0.0007650852203369141
ell 251, elapsed: 0.0004458427429199219
ell 250, elapsed: 0.0004420280456542969
ell 249, elapsed: 0.0004429817199707031
ell 248, elapsed: 0.0004761219024658203
ell 242, elapsed: 0.0008292198181152344
ell 241, elapsed: 0.0004620552062988281
ell 240, elapsed: 0.00045180320739746094
ell 239, elapsed: 0.000453948974609375
ell 238, elapsed: 0.0004639625549316406
ell 232, elapsed: 0.0008339881896972656
ell 231, elapsed: 0.0005068778991699219
ell 230, elapsed: 0.0004429817199707031
ell 229, elapsed: 0.000431060791015625
ell 228, elapsed: 0.0004420280456542969
ell 222, elapsed: 0.0007650852203369141
ell 221, elapsed: 0.0004570484161376953
ell 220, elapsed: 0.00048613548278808594
ell 219, elapsed: 0.0004570484161376953
ell 218, elapsed: 0.0005538463592529297
ell 212, elapsed: 0.0007610321044921875
ell 211, elapsed: 0.0004639625549316406
ell 210, elapsed: 0.00045800209045410156
ell 209, elapsed: 0.0004601478576660156
ell 208, elapsed: 0.00045299530029296875
ell 202, elapsed: 0.000762939453125
ell 201, elapsed: 0.0005359649658203125
ell 200, elapsed: 0.0004699230194091797
ell 199, elapsed: 0.0004780292510986328
ell 198, elapsed: 0.00046896934509277344
ell 192, elapsed: 0.000804901123046875
ell 191, elapsed: 0.0004799365997314453
ell 190, elapsed: 0.00047898292541503906
ell 189, elapsed: 0.0005481243133544922
ell 188, elapsed: 0.0005300045013427734
ell 182, elapsed: 0.0009260177612304688
ell 181, elapsed: 0.0005340576171875
ell 180, elapsed: 0.0005278587341308594
ell 179, elapsed: 0.0005309581756591797
ell 178, elapsed: 0.0005619525909423828
ell 172, elapsed: 0.0009601116180419922
ell 171, elapsed: 0.0005199909210205078
ell 170, elapsed: 0.0005249977111816406
ell 169, elapsed: 0.0005249977111816406
ell 168, elapsed: 0.0004780292510986328
ell 162, elapsed: 0.0007851123809814453
ell 161, elapsed: 0.0004699230194091797
ell 160, elapsed: 0.0004818439483642578
ell 159, elapsed: 0.0004968643188476562
ell 158, elapsed: 0.0005390644073486328
ell 152, elapsed: 0.0008800029754638672
ell 151, elapsed: 0.00047397613525390625
ell 150, elapsed: 0.0004909038543701172
ell 149, elapsed: 0.00047016143798828125
ell 148, elapsed: 0.00048613548278808594
ell 142, elapsed: 0.0008440017700195312
ell 141, elapsed: 0.0004780292510986328
ell 140, elapsed: 0.0005140304565429688
ell 139, elapsed: 0.0004978179931640625
ell 138, elapsed: 0.00047707557678222656
ell 132, elapsed: 0.0008699893951416016
ell 131, elapsed: 0.00047588348388671875
ell 130, elapsed: 0.0004971027374267578
ell 129, elapsed: 0.00047206878662109375
ell 128, elapsed: 0.0004930496215820312
ell 122, elapsed: 0.0008351802825927734
ell 121, elapsed: 0.0005071163177490234
ell 120, elapsed: 0.00049591064453125
ell 119, elapsed: 0.0004711151123046875
ell 118, elapsed: 0.0004918575286865234
ell 112, elapsed: 0.0007951259613037109
ell 111, elapsed: 0.00047898292541503906
ell 110, elapsed: 0.00047779083251953125
ell 109, elapsed: 0.0005309581756591797
ell 108, elapsed: 0.0004799365997314453
ell 102, elapsed: 0.0007760524749755859
ell 101, elapsed: 0.002003908157348633
ell 100, elapsed: 0.0020639896392822266
ell 99, elapsed: 0.0020990371704101562
ell 98, elapsed: 0.0021271705627441406
ell 92, elapsed: 0.004093170166015625
ell 91, elapsed: 0.0021409988403320312
ell 90, elapsed: 0.0022840499877929688
ell 89, elapsed: 0.0022919178009033203
ell 88, elapsed: 0.0022478103637695312
ell 82, elapsed: 0.0044231414794921875
ell 81, elapsed: 0.002302885055541992
ell 80, elapsed: 0.0022389888763427734
ell 79, elapsed: 0.0022361278533935547
ell 78, elapsed: 0.0023741722106933594
ell 72, elapsed: 0.0044438838958740234
ell 71, elapsed: 0.002332925796508789
ell 70, elapsed: 0.0023980140686035156
ell 69, elapsed: 0.002386808395385742
ell 68, elapsed: 0.002331972122192383
ell 62, elapsed: 0.00450897216796875
ell 61, elapsed: 0.0023589134216308594
ell 60, elapsed: 0.0023190975189208984
ell 59, elapsed: 0.0023179054260253906
ell 58, elapsed: 0.002360105514526367
ell 52, elapsed: 0.004541158676147461
ell 51, elapsed: 0.002331972122192383
ell 50, elapsed: 0.0023338794708251953
ell 49, elapsed: 0.0023651123046875
ell 48, elapsed: 0.0023360252380371094
ell 42, elapsed: 0.004567146301269531
ell 41, elapsed: 0.002380847930908203
ell 40, elapsed: 0.0024089813232421875
ell 39, elapsed: 0.0023391246795654297
ell 38, elapsed: 0.002360105514526367
ell 32, elapsed: 0.004561185836791992
ell 31, elapsed: 0.002363920211791992
ell 30, elapsed: 0.002276897430419922
ell 29, elapsed: 0.0022449493408203125
ell 28, elapsed: 0.002137899398803711
ell 22, elapsed: 0.004086017608642578
ell 21, elapsed: 0.0021750926971435547
ell 20, elapsed: 0.002196788787841797
ell 19, elapsed: 0.0020940303802490234
ell 18, elapsed: 0.0020329952239990234
ell 12, elapsed: 0.004349946975708008
ell 11, elapsed: 0.0022881031036376953
ell 10, elapsed: 0.002288818359375
ell 9, elapsed: 0.0022618770599365234
ell 8, elapsed: 0.0023200511932373047
  0.528271 seconds (68.56 k allocations: 12.176 MiB)
elapsed: 0.002747058868408203
step:          0.041835 sec (0 allocations: 0 byte, 0.0% gc time)
swapping:      0.000385 sec (0 allocations: 0 byte, 0.0% gc time)
calc_Mellell!: 0.019445 sec (0 allocations: 0 byte, 0.0% gc time)
  t0 :  0.010562 sec (0 allocations: 0 byte, 0.0% gc time)
  tm2 : 0.049823 sec (0 allocations: 0 byte, 0.0% gc time)
  tm2s: 0.006448 sec (0 allocations: 0 byte, 0.0% gc time)
  tm4 : 0.115451 sec (0 allocations: 0 byte, 0.0% gc time)
  tp2 : 0.0 sec (0 allocations: 0 byte, 0.0% gc time)
  tp2s: 0.0 sec (0 allocations: 0 byte, 0.0% gc time)
  tp4 : 0.0 sec (0 allocations: 0 byte, 0.0% gc time)
calc_wtdll!:   0.386305 sec (48.6 k allocations: 11.096 MB, 0.0% gc time)
calc_wljj!:    0.024126 sec (69 allocations: 1.078 KB, 0.0% gc time)
mult_prefac!:  0.0 sec (0 allocations: 0 byte, 0.0% gc time)
convert:       0.0 sec (0 allocations: 0 byte, 0.0% gc time)
write:         0.024766 sec (0 allocations: 0 byte, 0.0% gc time)
test_rand_2f1: 0.0 sec (0 allocations: 0 byte, 0.0% gc time)
Closing outfile out/MlCache/MlCache.bin...   0.000010 seconds
xi, l=0, nu=0:   0.287970 seconds (603.10 k allocations: 32.983 MiB, 99.37% compilation time)
xi, l=0, nu=-2:  0.001517 seconds (114 allocations: 148.969 KiB)
Created 'out/xi.tsv'.
  q=1.1, R=0.6:	  0.405919 seconds (264.58 k allocations: 38.109 MiB, 4.39% gc time)
  q=1.1, R=0.7:	  0.462017 seconds (276.43 k allocations: 40.113 MiB, 2.78% gc time)
  q=1.1, R=0.8:	  0.467015 seconds (271.87 k allocations: 39.334 MiB, 2.48% gc time)
  q=1.1, R=0.9:	  0.518226 seconds (266.68 k allocations: 38.464 MiB, 1.18% gc time)
  q=1.1, R=0.998:	 13.776712 seconds (114.96 k allocations: 7.588 MiB)
  q=1.1, R=1.0:	  0.002796 seconds (8.20 k allocations: 704.344 KiB)

ℓ = 1000
Δℓ = 4
ΔℓRg1 = -4
N = 4096
q = 1.1
kmin = 1.0e-5
kmax = 1000.0
χ0 = 0.001
RR = RR.tsv
ℓmax = ℓmax.bin
f21 = f21.bin
kmin = 1.0e-5
kmax = 1000.0
dlrec    = 4
dlrecRg1 = -4
Output size: 1573632 bytes = 0.0014655590057373047 GiB
Output size: 786816 bytes = 0.0007327795028686523 GiB
Reading 'out/F21EllCache'...   0.001156 seconds (198 allocations: 533.078 KiB)
ellmax: 1002
lmaxcache: 1000
fell[:,1,1] = ComplexF64[1.726292812820208e-224 - 4.2281979352226965e-240im, 1.7282693092099638e-224 - 4.233038955177178e-240im]
ell 1002, elapsed: 2.9802322387695312e-5
ell 1001, elapsed: 0.00047516822814941406
ell 1000, elapsed: 0.0008349418640136719
ell 999, elapsed: 0.004085063934326172
ell 998, elapsed: 0.0038640499114990234
ell 44, elapsed: 0.574815034866333
ell 43, elapsed: 0.0038709640502929688
ell 42, elapsed: 0.003888845443725586
ell 41, elapsed: 0.0038170814514160156
ell 40, elapsed: 0.003871917724609375
  0.604797 seconds (4.59 k allocations: 322.266 KiB)
elapsed: 0.004739999771118164
step:          0.570638 sec (0 allocations: 0 byte, 0.0% gc time)
swapping:      0.000484 sec (0 allocations: 0 byte, 0.0% gc time)
calc_Mellell!: 0.000711 sec (0 allocations: 0 byte, 0.0% gc time)
  t0 :  0.000384 sec (0 allocations: 0 byte, 0.0% gc time)
  tm2 : 0.007284 sec (0 allocations: 0 byte, 0.0% gc time)
  tm2s: 0.000374 sec (0 allocations: 0 byte, 0.0% gc time)
  tm4 : 0.017833 sec (0 allocations: 0 byte, 0.0% gc time)
  tp2 : 0.0 sec (0 allocations: 0 byte, 0.0% gc time)
  tp2s: 0.0 sec (0 allocations: 0 byte, 0.0% gc time)
  tp4 : 0.0 sec (0 allocations: 0 byte, 0.0% gc time)
calc_wtdll!:   0.026035 sec (480 allocations: 52.5 KB, 0.0% gc time)
calc_wljj!:    0.00067 sec (1 allocations: 16 byte, 0.0% gc time)
mult_prefac!:  0.0 sec (0 allocations: 0 byte, 0.0% gc time)
convert:       0.0 sec (0 allocations: 0 byte, 0.0% gc time)
write:         0.000733 sec (0 allocations: 0 byte, 0.0% gc time)
test_rand_2f1: 0.0 sec (0 allocations: 0 byte, 0.0% gc time)
Closing outfile out/MlCache/MlCache.bin...   0.000011 seconds
  0.379266 seconds (38 allocations: 66.859 KiB)
make_phi():   0.006267 seconds (65 allocations: 275.984 KiB)
  0.041821 seconds (11.42 k allocations: 711.960 KiB, 83.55% compilation time)
tskip:       1.0e-6 sec (0 allocations: 0 byte, 0.0% gc time)
tread:       0.000546 sec (17 allocations: 1.266 KB, 0.0% gc time)
tmultphi:    0.000207 sec (0 allocations: 0 byte, 0.0% gc time)
tbrfft:      0.000879 sec (0 allocations: 0 byte, 0.0% gc time)
tmultprefac: 0.000395 sec (0 allocations: 0 byte, 0.0% gc time)
toutfunc:    0.000116 sec (0 allocations: 0 byte, 0.0% gc time)
Created 'out/wl42_jj00.tsv'.
Created 'out/wl42_jj02.tsv'.
    Testing TwoFAST tests passed 
