################################################################################
# PkgEval set-up: 2020-10-29T04:34:18.312
#

Julia Version 1.6.0-DEV.1352
Commit 8f71ea7f35 (2020-10-28 02:10 UTC)
Platform Info:
  OS: Linux (x86_64-linux-gnu)
  CPU: AMD EPYC 7502 32-Core Processor
  WORD_SIZE: 64
  LIBM: libopenlibm
  LLVM: libLLVM-11.0.0 (ORCJIT, znver2)
Environment:
  JULIA_DEPOT_PATH = ::/usr/local/share/julia
  JULIA_MAX_NUM_PRECOMPILE_FILES = 9223372036854775807



################################################################################
# Installation: 2020-10-29T04:34:19.806
#

   Resolving package versions...
   Installed OpenSpecFun_jll ────────────── v0.5.3+4
   Installed Reexport ───────────────────── v0.2.0
   Installed MKL_jll ────────────────────── v2020.2.254+0
   Installed Readables ──────────────────── v0.3.3
   Installed CompilerSupportLibraries_jll ─ v0.3.4+0
   Installed ArbNumerics ────────────────── v1.2.1
   Installed FFTW ───────────────────────── v1.2.4
   Installed IntelOpenMP_jll ────────────── v2018.0.3+0
   Installed SpecialFunctions ───────────── v0.10.3
   Installed AbstractFFTs ───────────────── v0.5.0
   Installed GenericSVD ─────────────────── v0.3.0
   Installed FFTW_jll ───────────────────── v3.3.9+6
   Installed GenericSchur ───────────────── v0.4.0
   Installed BinaryProvider ─────────────── v0.5.10
   Installed JLLWrappers ────────────────── v1.1.3
   Installed TwoFAST ────────────────────── v0.1.3
Updating `~/.julia/environments/v1.6/Project.toml`
  [0dd23c3e] + TwoFAST v0.1.3
Updating `~/.julia/environments/v1.6/Manifest.toml`
  [621f4979] + AbstractFFTs v0.5.0
  [7e558dbc] + ArbNumerics v1.2.1
  [b99e7846] + BinaryProvider v0.5.10
  [7a1cc6ca] + FFTW v1.2.4
  [01680d73] + GenericSVD v0.3.0
  [c145ed77] + GenericSchur v0.4.0
  [692b3bcd] + JLLWrappers v1.1.3
  [0d4725de] + Readables v0.3.3
  [189a3867] + Reexport v0.2.0
  [276daf66] + SpecialFunctions v0.10.3
  [0dd23c3e] + TwoFAST v0.1.3
  [e66e0078] + CompilerSupportLibraries_jll v0.3.4+0
  [f5851436] + FFTW_jll v3.3.9+6
  [1d5cc7b8] + IntelOpenMP_jll v2018.0.3+0
  [856f044c] + MKL_jll v2020.2.254+0
  [efe28fd5] + OpenSpecFun_jll v0.5.3+4
  [0dad84c5] + ArgTools
  [56f22d72] + Artifacts
  [2a0f44e3] + Base64
  [ade2ca70] + Dates
  [8bb1440f] + DelimitedFiles
  [f43a241f] + Downloads
  [b77e0a4c] + InteractiveUtils
  [b27032c2] + LibCURL
  [76f85450] + LibGit2
  [8f399da3] + Libdl
  [37e2e46d] + LinearAlgebra
  [56ddb016] + Logging
  [d6f4376e] + Markdown
  [a63ad114] + Mmap
  [44cfe95a] + Pkg
  [de0858da] + Printf
  [3fa0cd96] + REPL
  [9a3f8284] + Random
  [ea8e919c] + SHA
  [9e88b42a] + Serialization
  [6462fe0b] + Sockets
  [fa267f1f] + TOML
  [8dfed614] + Test
  [cf7118a7] + UUIDs
  [4ec0a83e] + Unicode
  [deac9b47] + LibCURL_jll
  [14a3606d] + MozillaCACerts_jll
    Building ArbNumerics → `~/.julia/scratchspaces/44cfe95a-1eb2-52ea-b672-e2afdf69b78f/329a81d67c64e3a51c176a243b6424fbe39213d0/build.log`
    Building FFTW ───────→ `~/.julia/scratchspaces/44cfe95a-1eb2-52ea-b672-e2afdf69b78f/8b7c16b56936047ca41bf25effa137ae0b381ae8/build.log`


################################################################################
# Testing: 2020-10-29T04:34:42.979
#


     Testing TwoFAST
Status `/tmp/jl_CnJh9X/Project.toml`
  [7e558dbc] ArbNumerics v1.2.1
  [39dd38d3] Dierckx v0.5.0
  [7a1cc6ca] FFTW v1.2.4
  [276daf66] SpecialFunctions v0.10.3
  [0dd23c3e] TwoFAST v0.1.3
  [8bb1440f] DelimitedFiles
  [37e2e46d] LinearAlgebra
  [56ddb016] Logging
  [8dfed614] Test
Status `/tmp/jl_CnJh9X/Manifest.toml`
  [621f4979] AbstractFFTs v0.5.0
  [7e558dbc] ArbNumerics v1.2.1
  [b99e7846] BinaryProvider v0.5.10
  [39dd38d3] Dierckx v0.5.0
  [7a1cc6ca] FFTW v1.2.4
  [01680d73] GenericSVD v0.3.0
  [c145ed77] GenericSchur v0.4.0
  [692b3bcd] JLLWrappers v1.1.3
  [0d4725de] Readables v0.3.3
  [189a3867] Reexport v0.2.0
  [276daf66] SpecialFunctions v0.10.3
  [0dd23c3e] TwoFAST v0.1.3
  [e66e0078] CompilerSupportLibraries_jll v0.3.4+0
  [cd4c43a9] Dierckx_jll v0.0.1+0
  [f5851436] FFTW_jll v3.3.9+6
  [1d5cc7b8] IntelOpenMP_jll v2018.0.3+0
  [856f044c] MKL_jll v2020.2.254+0
  [efe28fd5] OpenSpecFun_jll v0.5.3+4
  [0dad84c5] ArgTools
  [56f22d72] Artifacts
  [2a0f44e3] Base64
  [ade2ca70] Dates
  [8bb1440f] DelimitedFiles
  [f43a241f] Downloads
  [b77e0a4c] InteractiveUtils
  [b27032c2] LibCURL
  [76f85450] LibGit2
  [8f399da3] Libdl
  [37e2e46d] LinearAlgebra
  [56ddb016] Logging
  [d6f4376e] Markdown
  [a63ad114] Mmap
  [44cfe95a] Pkg
  [de0858da] Printf
  [3fa0cd96] REPL
  [9a3f8284] Random
  [ea8e919c] SHA
  [9e88b42a] Serialization
  [6462fe0b] Sockets
  [fa267f1f] TOML
  [8dfed614] Test
  [cf7118a7] UUIDs
  [4ec0a83e] Unicode
  [deac9b47] LibCURL_jll
  [14a3606d] MozillaCACerts_jll
     Testing Running tests...
WARNING: could not import Printf.ini_hex into ArbNumerics
WARNING: could not import Printf.ini_HEX into ArbNumerics
t = 0.0 sec (0 allocations: 0 byte, 0.0% gc time)
typeof(t) = NamedTuple{(:value, :time, :bytes, :gctime, :gcstats), Tuple{DataType, Float64, Int64, Float64, Base.GC_Diff}}
TwoFAST.PerformanceStats.TimedType = Union{NamedTuple{(:value, :time, :bytes, :gctime, :gcstats), Tuple{T, Float64, Int64, Float64, Base.GC_Diff}}, Tuple{Any, Float64, Int64, Float64, Base.GC_Diff}} where T
t = 0.0 sec (0 allocations: 0 byte, 0.0% gc time)
t: 0.0 sec (0 allocations: 0 byte, 0.0% gc time)
Testing ξ(r), ℓ=0, ν=-1 ... passed
Testing ξ(r), ℓ=0, ν=0 ... passed
Testing ξ(r), ℓ=0, ν=1 ... passed
Testing ξ(r), ℓ=0, ν=2 ... passed
Testing ξ(r), ℓ=0, ν=3 ... passed
Testing ξ(r), ℓ=1, ν=0 ... passed
Testing ξ(r), ℓ=1, ν=1 ... passed
Testing ξ(r), ℓ=1, ν=2 ... passed
Testing ξ(r), ℓ=1, ν=3 ... passed
Testing ξ(r), ℓ=2, ν=-1 ... passed
Testing ξ(r), ℓ=2, ν=0 ... passed
Testing ξ(r), ℓ=2, ν=1 ... passed
Testing ξ(r), ℓ=2, ν=2 ... passed
Testing ξ(r), ℓ=2, ν=3 ... passed
Testing ξ(r), ℓ=3, ν=-1 ... passed
Testing ξ(r), ℓ=3, ν=0 ... passed
Testing ξ(r), ℓ=3, ν=1 ... passed
Testing ξ(r), ℓ=3, ν=2 ... passed
Testing ξ(r), ℓ=3, ν=3 ... passed
Testing ξ(r), ℓ=4, ν=-1 ... passed
Testing ξ(r), ℓ=4, ν=0 ... passed
Testing ξ(r), ℓ=4, ν=1 ... passed
Testing ξ(r), ℓ=4, ν=2 ... passed
Testing ξ(r), ℓ=4, ν=3 ... passed
Testing ξ(r) ... passed
Testing ξ′(r) ... passed
Testing ξ″(r) ... passed
Calculating fmax: 
  dlrec    = 4
  dlrecRg1 = -4
  q=1.1, R=1.1:	  2.738667 seconds (859.03 k allocations: 55.105 MiB, 0.59% gc time, 91.05% compilation time)

  2.738939 seconds (859.09 k allocations: 55.140 MiB, 0.59% gc time, 91.04% compilation time)
ℓ = 1202
Δℓ = 4
ΔℓRg1 = -4
N = 1600
q = 1.1
kmin = 1.0e-5
kmax = 100000.00000000004
χ0 = 0.023029999999999995
RR = RR.tsv
ℓmax = ℓmax.bin
f21 = f21.bin
kmin = 1.0e-5
kmax = 100000.0
dlrec    = 4
dlrecRg1 = -4
Output size: 5741568 bytes = 0.005347251892089844 GiB
Output size: 51264 bytes = 4.774332046508789e-5 GiB
Reading 'out/F21EllCache'...   0.494931 seconds (433.74 k allocations: 25.621 MiB, 2.81% gc time, 99.56% compilation time)
ellmax: 1202
lmaxcache: 1202
fell[:,1,1] = ComplexF64[3.9583795592771634e-52 - 9.695233714158177e-68im, 3.990121772925759e-52 - 9.772979714843386e-68im]
ell 1202, elapsed: 4.696846008300781e-5
ell 1201, elapsed: 0.8652868270874023
ell 1200, elapsed: 0.0004010200500488281
ell 1199, elapsed: 0.00036406517028808594
ell 1198, elapsed: 0.0003898143768310547
ell 1002, elapsed: 0.008437871932983398
ell 1001, elapsed: 0.0003800392150878906
ell 1000, elapsed: 0.0003578662872314453
ell 999, elapsed: 0.00036215782165527344
ell 998, elapsed: 0.0003619194030761719
ell 902, elapsed: 0.004242897033691406
ell 901, elapsed: 0.0003840923309326172
ell 900, elapsed: 0.00037097930908203125
ell 899, elapsed: 0.00036597251892089844
ell 898, elapsed: 0.0004839897155761719
ell 802, elapsed: 0.004156827926635742
ell 801, elapsed: 0.00037479400634765625
ell 800, elapsed: 0.0003662109375
ell 799, elapsed: 0.0003628730773925781
ell 798, elapsed: 0.0003859996795654297
ell 702, elapsed: 0.004286050796508789
ell 701, elapsed: 0.00042819976806640625
ell 700, elapsed: 0.00036716461181640625
ell 699, elapsed: 0.0003638267517089844
ell 698, elapsed: 0.0003600120544433594
ell 602, elapsed: 0.00403904914855957
ell 601, elapsed: 0.0003981590270996094
ell 600, elapsed: 0.000370025634765625
ell 599, elapsed: 0.0003790855407714844
ell 598, elapsed: 0.0003819465637207031
ell 502, elapsed: 0.0044100284576416016
ell 501, elapsed: 0.00037789344787597656
ell 500, elapsed: 0.00038313865661621094
ell 499, elapsed: 0.00037407875061035156
ell 498, elapsed: 0.00037384033203125
ell 402, elapsed: 0.004375934600830078
ell 401, elapsed: 0.0004830360412597656
ell 400, elapsed: 0.00037288665771484375
ell 399, elapsed: 0.0003731250762939453
ell 398, elapsed: 0.00037097930908203125
ell 302, elapsed: 0.004407167434692383
ell 301, elapsed: 0.00037980079650878906
ell 300, elapsed: 0.00036215782165527344
ell 299, elapsed: 0.00035381317138671875
ell 298, elapsed: 0.00035500526428222656
ell 202, elapsed: 0.004102945327758789
ell 201, elapsed: 0.0004248619079589844
ell 200, elapsed: 0.00036907196044921875
ell 199, elapsed: 0.00035500526428222656
ell 198, elapsed: 0.0003559589385986328
ell 152, elapsed: 0.002111196517944336
ell 151, elapsed: 0.0003609657287597656
ell 150, elapsed: 0.0004000663757324219
ell 149, elapsed: 0.0003650188446044922
ell 148, elapsed: 0.0003628730773925781
ell 127, elapsed: 0.0011539459228515625
ell 126, elapsed: 0.0003612041473388672
ell 125, elapsed: 0.0003631114959716797
ell 124, elapsed: 0.0003619194030761719
ell 123, elapsed: 0.0003590583801269531
ell 114, elapsed: 0.0007278919219970703
ell 113, elapsed: 0.0003578662872314453
ell 112, elapsed: 0.0003609657287597656
ell 111, elapsed: 0.0003609657287597656
ell 110, elapsed: 0.0003600120544433594
ell 102, elapsed: 0.0006580352783203125
ell 101, elapsed: 0.0003571510314941406
ell 100, elapsed: 0.0003571510314941406
ell 99, elapsed: 0.00035691261291503906
ell 98, elapsed: 0.0003859996795654297
ell 97, elapsed: 0.00038909912109375
ell 96, elapsed: 0.00038695335388183594
ell 95, elapsed: 0.00038886070251464844
ell 94, elapsed: 0.00039505958557128906
ell 93, elapsed: 0.00038695335388183594
ell 92, elapsed: 0.0003910064697265625
ell 91, elapsed: 0.0004191398620605469
ell 90, elapsed: 0.00040793418884277344
ell 89, elapsed: 0.0004000663757324219
ell 88, elapsed: 0.00042891502380371094
ell 87, elapsed: 0.0003910064697265625
ell 86, elapsed: 0.00039696693420410156
ell 85, elapsed: 0.0003948211669921875
ell 84, elapsed: 0.00039315223693847656
ell 83, elapsed: 0.0003960132598876953
ell 82, elapsed: 0.00039196014404296875
ell 81, elapsed: 0.00039386749267578125
ell 80, elapsed: 0.00040793418884277344
ell 79, elapsed: 0.0004000663757324219
ell 78, elapsed: 0.0004189014434814453
ell 77, elapsed: 0.00039696693420410156
ell 76, elapsed: 0.00039315223693847656
ell 75, elapsed: 0.00039696693420410156
ell 74, elapsed: 0.0004000663757324219
ell 73, elapsed: 0.00039196014404296875
ell 72, elapsed: 0.0003910064697265625
ell 71, elapsed: 0.00039505958557128906
ell 70, elapsed: 0.0003979206085205078
ell 69, elapsed: 0.0004341602325439453
ell 68, elapsed: 0.0003960132598876953
ell 67, elapsed: 0.00038886070251464844
ell 66, elapsed: 0.00039196014404296875
ell 65, elapsed: 0.0003972053527832031
ell 64, elapsed: 0.0003979206085205078
ell 63, elapsed: 0.00039386749267578125
ell 62, elapsed: 0.0003921985626220703
ell 61, elapsed: 0.0003979206085205078
ell 60, elapsed: 0.0003960132598876953
ell 59, elapsed: 0.000431060791015625
ell 58, elapsed: 0.0003991127014160156
ell 57, elapsed: 0.00039386749267578125
ell 56, elapsed: 0.0003979206085205078
ell 55, elapsed: 0.00039315223693847656
ell 54, elapsed: 0.00039696693420410156
ell 53, elapsed: 0.0004169940948486328
ell 52, elapsed: 0.00039887428283691406
ell 51, elapsed: 0.0003960132598876953
ell 50, elapsed: 0.00039315223693847656
ell 49, elapsed: 0.00043892860412597656
ell 48, elapsed: 0.0003948211669921875
ell 47, elapsed: 0.00040411949157714844
ell 46, elapsed: 0.000408172607421875
ell 45, elapsed: 0.0003910064697265625
ell 44, elapsed: 0.00039196014404296875
ell 43, elapsed: 0.0003910064697265625
ell 42, elapsed: 0.0004029273986816406
ell 41, elapsed: 0.00039386749267578125
ell 40, elapsed: 0.00040793418884277344
ell 39, elapsed: 0.0004010200500488281
ell 38, elapsed: 0.0003910064697265625
ell 37, elapsed: 0.00039386749267578125
ell 36, elapsed: 0.00039315223693847656
ell 35, elapsed: 0.0004010200500488281
ell 34, elapsed: 0.0003941059112548828
ell 33, elapsed: 0.0003981590270996094
ell 32, elapsed: 0.0004010200500488281
ell 31, elapsed: 0.0003960132598876953
ell 30, elapsed: 0.00042891502380371094
ell 29, elapsed: 0.00039196014404296875
ell 28, elapsed: 0.0003910064697265625
ell 27, elapsed: 0.0003910064697265625
ell 26, elapsed: 0.0003921985626220703
ell 25, elapsed: 0.00038909912109375
ell 24, elapsed: 0.00038886070251464844
ell 23, elapsed: 0.00038909912109375
ell 22, elapsed: 0.00039196014404296875
ell 21, elapsed: 0.00038886070251464844
ell 20, elapsed: 0.00042891502380371094
ell 19, elapsed: 0.0003979206085205078
ell 18, elapsed: 0.0003960132598876953
ell 17, elapsed: 0.00039696693420410156
ell 16, elapsed: 0.0004000663757324219
ell 15, elapsed: 0.0004000663757324219
ell 14, elapsed: 0.0003859996795654297
ell 13, elapsed: 0.00038909912109375
ell 12, elapsed: 0.00039887428283691406
ell 11, elapsed: 0.0004730224609375
ell 10, elapsed: 0.0004088878631591797
ell 9, elapsed: 0.0004029273986816406
ell 8, elapsed: 0.0004010200500488281
ell 7, elapsed: 0.00041413307189941406
ell 6, elapsed: 0.00040793418884277344
ell 5, elapsed: 0.0004169940948486328
ell 4, elapsed: 0.00039887428283691406
ell 3, elapsed: 0.0003981590270996094
ell 2, elapsed: 0.0004029273986816406
ell 1, elapsed: 0.0004229545593261719
ell 0, elapsed: 0.0004088878631591797
  1.253311 seconds (1.40 M allocations: 76.281 MiB, 1.22% gc time, 91.13% compilation time)
elapsed: 0.00047588348388671875
step:          0.23778 sec (315.762 k allocations: 17.396 MB, 0.0% gc time)
swapping:      0.000269 sec (0 allocations: 0 byte, 0.0% gc time)
calc_Mellell!: 0.10399 sec (137.693 k allocations: 7.624 MB, 0.0% gc time)
  t0 :  0.0 sec (0 allocations: 0 byte, 0.0% gc time)
  tm2 : 0.0 sec (0 allocations: 0 byte, 0.0% gc time)
  tm2s: 0.0 sec (0 allocations: 0 byte, 0.0% gc time)
  tm4 : 0.0 sec (0 allocations: 0 byte, 0.0% gc time)
  tp2 : 0.0 sec (0 allocations: 0 byte, 0.0% gc time)
  tp2s: 0.0 sec (0 allocations: 0 byte, 0.0% gc time)
  tp4 : 0.0 sec (0 allocations: 0 byte, 0.0% gc time)
calc_wtdll!:   0.624045 sec (515.0 k allocations: 28.644 MB, 2.45% gc time)
calc_wljj!:    0.001373 sec (6 allocations: 96 byte, 0.0% gc time)
mult_prefac!:  0.0 sec (0 allocations: 0 byte, 0.0% gc time)
convert:       0.0 sec (0 allocations: 0 byte, 0.0% gc time)
write:         0.002216 sec (0 allocations: 0 byte, 0.0% gc time)
test_rand_2f1: 0.0 sec (0 allocations: 0 byte, 0.0% gc time)
Closing outfile out/Ml21-cache.bin...   0.000008 seconds
  0.793451 seconds (251.75 k allocations: 14.639 MiB, 1.53% gc time, 38.05% compilation time)
make_phi():   0.005962 seconds (8.19 k allocations: 238.078 KiB)
  0.180169 seconds (89.37 k allocations: 4.883 MiB, 95.40% compilation time)
tskip:       1.2e-5 sec (0 allocations: 0 byte, 0.0% gc time)
tread:       0.001403 sec (17 allocations: 2.125 KB, 0.0% gc time)
tmultphi:    0.02936 sec (22.005 k allocations: 1.33 MB, 0.0% gc time)
tbrfft:      0.002451 sec (0 allocations: 0 byte, 0.0% gc time)
tmultprefac: 0.001131 sec (0 allocations: 0 byte, 0.0% gc time)
toutfunc:    0.116483 sec (65.704 k allocations: 3.421 MB, 0.0% gc time)
Testing R=1.1 ... passed
Calculating fmax: 
  dlrec    = 4
  dlrecRg1 = -4
  q=1.1, R=1.0:	  0.001089 seconds (3.20 k allocations: 275.344 KiB)

  0.001432 seconds (3.25 k allocations: 310.250 KiB)
ℓ = 1202
Δℓ = 4
ΔℓRg1 = -4
N = 1600
q = 1.1
kmin = 1.0e-5
kmax = 100000.00000000004
χ0 = 0.023029999999999995
RR = RR.tsv
ℓmax = ℓmax.bin
f21 = f21.bin
kmin = 1.0e-5
kmax = 100000.0
dlrec    = 4
dlrecRg1 = -4
Output size: 61465536 bytes = 0.05724424123764038 GiB
Output size: 51264 bytes = 4.774332046508789e-5 GiB
Reading 'out/F21EllCache'...   0.000702 seconds (197 allocations: 84.203 KiB)
ellmax: 1202
lmaxcache: 1202
fell[:,1,1] = ComplexF64[809.6031528389767 - 1.9829558194077161e-13im, 0.0 + 0.0im]
ell 1202, elapsed: 2.002716064453125e-5
ell 1201, elapsed: 0.011966943740844727
ell 1200, elapsed: 0.011633872985839844
ell 1199, elapsed: 0.0002639293670654297
ell 1198, elapsed: 0.00023818016052246094
ell 1197, elapsed: 0.0002930164337158203
ell 1196, elapsed: 0.0002720355987548828
ell 1195, elapsed: 0.00024580955505371094
ell 1194, elapsed: 0.00025200843811035156
ell 1193, elapsed: 0.0002491474151611328
ell 1192, elapsed: 0.00025391578674316406
ell 1191, elapsed: 0.0002510547637939453
ell 1190, elapsed: 0.00026488304138183594
ell 1189, elapsed: 0.0002598762512207031
ell 1188, elapsed: 0.0002560615539550781
ell 1187, elapsed: 0.00025391578674316406
ell 1186, elapsed: 0.0002620220184326172
ell 1185, elapsed: 0.0002529621124267578
ell 1184, elapsed: 0.0002598762512207031
ell 1183, elapsed: 0.00026297569274902344
ell 1182, elapsed: 0.0002551078796386719
ell 1181, elapsed: 0.00030684471130371094
ell 1180, elapsed: 0.0002560615539550781
ell 1179, elapsed: 0.0002589225769042969
ell 1178, elapsed: 0.0002529621124267578
ell 1177, elapsed: 0.00027108192443847656
ell 1176, elapsed: 0.0002579689025878906
ell 1175, elapsed: 0.0002570152282714844
ell 1174, elapsed: 0.0002639293670654297
ell 1173, elapsed: 0.0002560615539550781
ell 1172, elapsed: 0.0002510547637939453
ell 1171, elapsed: 0.0002620220184326172
ell 1170, elapsed: 0.0002560615539550781
ell 1169, elapsed: 0.0002589225769042969
ell 1168, elapsed: 0.0002529621124267578
ell 1167, elapsed: 0.0002770423889160156
ell 1166, elapsed: 0.0002601146697998047
ell 1165, elapsed: 0.0002548694610595703
ell 1164, elapsed: 0.0002601146697998047
ell 1163, elapsed: 0.0002510547637939453
ell 1162, elapsed: 0.0002491474151611328
ell 1161, elapsed: 0.0002620220184326172
ell 1160, elapsed: 0.00025200843811035156
ell 1159, elapsed: 0.0002617835998535156
ell 1158, elapsed: 0.0002529621124267578
ell 1157, elapsed: 0.0002570152282714844
ell 1156, elapsed: 0.0002551078796386719
ell 1155, elapsed: 0.0002541542053222656
ell 1154, elapsed: 0.0002598762512207031
ell 1153, elapsed: 0.0002529621124267578
ell 1152, elapsed: 0.00039887428283691406
ell 1151, elapsed: 0.0002570152282714844
ell 1150, elapsed: 0.0002589225769042969
ell 1149, elapsed: 0.0002651214599609375
ell 1148, elapsed: 0.0002570152282714844
ell 1147, elapsed: 0.0002701282501220703
ell 1146, elapsed: 0.00025391578674316406
ell 1145, elapsed: 0.0002541542053222656
ell 1144, elapsed: 0.00026702880859375
ell 1143, elapsed: 0.0002529621124267578
ell 1142, elapsed: 0.0002608299255371094
ell 1141, elapsed: 0.0002541542053222656
ell 1140, elapsed: 0.0002548694610595703
ell 1139, elapsed: 0.0002551078796386719
ell 1138, elapsed: 0.00028395652770996094
ell 1137, elapsed: 0.0002551078796386719
ell 1136, elapsed: 0.00025200843811035156
ell 1135, elapsed: 0.0002510547637939453
ell 1134, elapsed: 0.0002579689025878906
ell 1133, elapsed: 0.00025200843811035156
ell 1132, elapsed: 0.0002639293670654297
ell 1131, elapsed: 0.0002529621124267578
ell 1130, elapsed: 0.0007040500640869141
ell 1129, elapsed: 0.0028839111328125
ell 1128, elapsed: 0.0004069805145263672
ell 1127, elapsed: 0.0003829002380371094
ell 1126, elapsed: 0.0003800392150878906
ell 1125, elapsed: 0.00037407875061035156
ell 1124, elapsed: 0.00037789344787597656
ell 1123, elapsed: 0.0003981590270996094
ell 1122, elapsed: 0.0003750324249267578
ell 1121, elapsed: 0.0003688335418701172
ell 1120, elapsed: 0.00036787986755371094
ell 1119, elapsed: 0.00037598609924316406
ell 1118, elapsed: 0.00036907196044921875
ell 1117, elapsed: 0.00037598609924316406
ell 1116, elapsed: 0.00036978721618652344
ell 1115, elapsed: 0.00036787986755371094
ell 1114, elapsed: 0.0003788471221923828
ell 1113, elapsed: 0.00040984153747558594
ell 1112, elapsed: 0.0003788471221923828
ell 1111, elapsed: 0.00037097930908203125
ell 1110, elapsed: 0.00036716461181640625
ell 1109, elapsed: 0.00037789344787597656
ell 1108, elapsed: 0.00037097930908203125
ell 1107, elapsed: 0.0003800392150878906
ell 1106, elapsed: 0.0003647804260253906
ell 1105, elapsed: 0.00037288665771484375
ell 1104, elapsed: 0.0003638267517089844
ell 1103, elapsed: 0.0004119873046875
ell 1102, elapsed: 0.00034499168395996094
ell 1101, elapsed: 0.00025200843811035156
ell 1100, elapsed: 0.0002548694610595703
ell 1099, elapsed: 0.00025010108947753906
ell 1098, elapsed: 0.00024890899658203125
ell 1097, elapsed: 0.00025391578674316406
ell 1096, elapsed: 0.000247955322265625
ell 1095, elapsed: 0.0002529621124267578
ell 1094, elapsed: 0.0002579689025878906
ell 1093, elapsed: 0.0002510547637939453
ell 1092, elapsed: 0.0002579689025878906
ell 1091, elapsed: 0.0002498626708984375
ell 1090, elapsed: 0.00026416778564453125
ell 1089, elapsed: 0.00025200843811035156
ell 1088, elapsed: 0.0002758502960205078
ell 1087, elapsed: 0.0002601146697998047
ell 1086, elapsed: 0.0002529621124267578
ell 1085, elapsed: 0.00025582313537597656
ell 1084, elapsed: 0.0002510547637939453
ell 1083, elapsed: 0.0002510547637939453
ell 1082, elapsed: 0.0002570152282714844
ell 1081, elapsed: 0.00024819374084472656
ell 1080, elapsed: 0.00026488304138183594
ell 1079, elapsed: 0.00024890899658203125
ell 1078, elapsed: 0.0002510547637939453
ell 1077, elapsed: 0.0002560615539550781
ell 1076, elapsed: 0.0002498626708984375
ell 1075, elapsed: 0.0002551078796386719
ell 1074, elapsed: 0.00026988983154296875
ell 1073, elapsed: 0.0002491474151611328
ell 1072, elapsed: 0.0002598762512207031
ell 1071, elapsed: 0.0002548694610595703
ell 1070, elapsed: 0.00026297569274902344
ell 1069, elapsed: 0.0002491474151611328
ell 1068, elapsed: 0.00024890899658203125
ell 1067, elapsed: 0.00026297569274902344
ell 1066, elapsed: 0.0002529621124267578
ell 1065, elapsed: 0.0002570152282714844
ell 1064, elapsed: 0.0002529621124267578
ell 1063, elapsed: 0.0002498626708984375
ell 1062, elapsed: 0.0002582073211669922
ell 1061, elapsed: 0.0002498626708984375
ell 1060, elapsed: 0.0002560615539550781
ell 1059, elapsed: 0.0003020763397216797
ell 1058, elapsed: 0.0002529621124267578
ell 1057, elapsed: 0.00024890899658203125
ell 1056, elapsed: 0.00024318695068359375
ell 1055, elapsed: 0.00025200843811035156
ell 1054, elapsed: 0.0002410411834716797
ell 1053, elapsed: 0.0002541542053222656
ell 1052, elapsed: 0.0002429485321044922
ell 1051, elapsed: 0.0002448558807373047
ell 1050, elapsed: 0.0002541542053222656
ell 1049, elapsed: 0.00024390220642089844
ell 1048, elapsed: 0.00024700164794921875
ell 1047, elapsed: 0.0002410411834716797
ell 1046, elapsed: 0.0002410411834716797
ell 1045, elapsed: 0.000247955322265625
ell 1044, elapsed: 0.00023984909057617188
ell 1043, elapsed: 0.00043702125549316406
ell 1042, elapsed: 0.00027298927307128906
ell 1041, elapsed: 0.0002608299255371094
ell 1040, elapsed: 0.0002880096435546875
ell 1039, elapsed: 0.00036597251892089844
ell 1038, elapsed: 0.0003159046173095703
ell 1037, elapsed: 0.0002999305725097656
ell 1036, elapsed: 0.00027108192443847656
ell 1035, elapsed: 0.0002760887145996094
ell 1034, elapsed: 0.0002810955047607422
ell 1033, elapsed: 0.0002548694610595703
ell 1032, elapsed: 0.0002410411834716797
ell 1031, elapsed: 0.000244140625
ell 1030, elapsed: 0.00036907196044921875
ell 1029, elapsed: 0.0002830028533935547
ell 1028, elapsed: 0.00025081634521484375
ell 1027, elapsed: 0.0002651214599609375
ell 1026, elapsed: 0.000244140625
ell 1025, elapsed: 0.0002460479736328125
ell 1024, elapsed: 0.00024509429931640625
ell 1023, elapsed: 0.0002460479736328125
ell 1022, elapsed: 0.0002429485321044922
ell 1021, elapsed: 0.000247955322265625
ell 1020, elapsed: 0.0002510547637939453
ell 1019, elapsed: 0.00024509429931640625
ell 1018, elapsed: 0.0002510547637939453
ell 1017, elapsed: 0.000244140625
ell 1016, elapsed: 0.00037789344787597656
ell 1015, elapsed: 0.00030493736267089844
ell 1014, elapsed: 0.0002880096435546875
ell 1013, elapsed: 0.0002968311309814453
ell 1012, elapsed: 0.00029206275939941406
ell 1011, elapsed: 0.00030803680419921875
ell 1010, elapsed: 0.00026798248291015625
ell 1009, elapsed: 0.0002570152282714844
ell 1008, elapsed: 0.0002589225769042969
ell 1007, elapsed: 0.0002510547637939453
ell 1006, elapsed: 0.0002510547637939453
ell 1005, elapsed: 0.0002570152282714844
ell 1004, elapsed: 0.0002560615539550781
ell 1003, elapsed: 0.000270843505859375
ell 1002, elapsed: 0.0003170967102050781
ell 1001, elapsed: 0.0002541542053222656
ell 1000, elapsed: 0.000247955322265625
ell 999, elapsed: 0.00024390220642089844
ell 998, elapsed: 0.00027298927307128906
ell 997, elapsed: 0.0002739429473876953
ell 996, elapsed: 0.0002968311309814453
ell 995, elapsed: 0.00036787986755371094
ell 994, elapsed: 0.00026297569274902344
ell 993, elapsed: 0.00025200843811035156
ell 992, elapsed: 0.00024700164794921875
ell 991, elapsed: 0.0002491474151611328
ell 990, elapsed: 0.00024199485778808594
ell 989, elapsed: 0.000244140625
ell 988, elapsed: 0.00028705596923828125
ell 987, elapsed: 0.0002529621124267578
ell 986, elapsed: 0.0002720355987548828
ell 985, elapsed: 0.0002529621124267578
ell 984, elapsed: 0.00025200843811035156
ell 983, elapsed: 0.0002570152282714844
ell 982, elapsed: 0.00025010108947753906
ell 981, elapsed: 0.0002589225769042969
ell 980, elapsed: 0.00024890899658203125
ell 979, elapsed: 0.0002548694610595703
ell 978, elapsed: 0.0002560615539550781
ell 977, elapsed: 0.00024819374084472656
ell 976, elapsed: 0.0002529621124267578
ell 975, elapsed: 0.0002579689025878906
ell 974, elapsed: 0.0002529621124267578
ell 973, elapsed: 0.0003070831298828125
ell 972, elapsed: 0.0003008842468261719
ell 971, elapsed: 0.00030803680419921875
ell 970, elapsed: 0.0002970695495605469
ell 969, elapsed: 0.00026798248291015625
ell 968, elapsed: 0.0002579689025878906
ell 967, elapsed: 0.0002460479736328125
ell 966, elapsed: 0.0002491474151611328
ell 965, elapsed: 0.0002529621124267578
ell 964, elapsed: 0.00024700164794921875
ell 963, elapsed: 0.00024890899658203125
ell 962, elapsed: 0.000247955322265625
ell 961, elapsed: 0.0002529621124267578
ell 960, elapsed: 0.0002498626708984375
ell 959, elapsed: 0.0003991127014160156
ell 958, elapsed: 0.00026416778564453125
ell 957, elapsed: 0.00025200843811035156
ell 956, elapsed: 0.0002570152282714844
ell 955, elapsed: 0.00025200843811035156
ell 954, elapsed: 0.00024890899658203125
ell 953, elapsed: 0.00025391578674316406
ell 952, elapsed: 0.0002491474151611328
ell 951, elapsed: 0.0002560615539550781
ell 950, elapsed: 0.00026106834411621094
ell 949, elapsed: 0.0002498626708984375
ell 948, elapsed: 0.00025391578674316406
ell 947, elapsed: 0.0002541542053222656
ell 946, elapsed: 0.0002529621124267578
ell 945, elapsed: 0.0002779960632324219
ell 944, elapsed: 0.0002491474151611328
ell 943, elapsed: 0.00024819374084472656
ell 942, elapsed: 0.0002498626708984375
ell 941, elapsed: 0.0002548694610595703
ell 940, elapsed: 0.0002491474151611328
ell 939, elapsed: 0.00025081634521484375
ell 938, elapsed: 0.0002491474151611328
ell 937, elapsed: 0.00024700164794921875
ell 936, elapsed: 0.00025200843811035156
ell 935, elapsed: 0.0002448558807373047
ell 934, elapsed: 0.00026106834411621094
ell 933, elapsed: 0.00024890899658203125
ell 932, elapsed: 0.0002579689025878906
ell 931, elapsed: 0.0002551078796386719
ell 930, elapsed: 0.0002949237823486328
ell 929, elapsed: 0.0002548694610595703
ell 928, elapsed: 0.00025010108947753906
ell 927, elapsed: 0.0002849102020263672
ell 926, elapsed: 0.0003409385681152344
ell 925, elapsed: 0.0002810955047607422
ell 924, elapsed: 0.00024890899658203125
ell 923, elapsed: 0.00024080276489257812
ell 922, elapsed: 0.0002410411834716797
ell 921, elapsed: 0.0002429485321044922
ell 920, elapsed: 0.0002391338348388672
ell 919, elapsed: 0.00025200843811035156
ell 918, elapsed: 0.0002448558807373047
ell 917, elapsed: 0.00024199485778808594
ell 916, elapsed: 0.00024509429931640625
ell 915, elapsed: 0.0003409385681152344
ell 914, elapsed: 0.00025200843811035156
ell 913, elapsed: 0.0002460479736328125
ell 912, elapsed: 0.0002460479736328125
ell 911, elapsed: 0.00025200843811035156
ell 910, elapsed: 0.00024700164794921875
ell 909, elapsed: 0.00025200843811035156
ell 908, elapsed: 0.0002460479736328125
ell 907, elapsed: 0.0002460479736328125
ell 906, elapsed: 0.00026297569274902344
ell 905, elapsed: 0.0002491474151611328
ell 904, elapsed: 0.00025010108947753906
ell 903, elapsed: 0.00024819374084472656
ell 902, elapsed: 0.00024819374084472656
ell 901, elapsed: 0.000286102294921875
ell 900, elapsed: 0.0002510547637939453
ell 899, elapsed: 0.0002551078796386719
ell 898, elapsed: 0.0002498626708984375
ell 897, elapsed: 0.00036406517028808594
ell 896, elapsed: 0.00030994415283203125
ell 895, elapsed: 0.00030112266540527344
ell 894, elapsed: 0.0003108978271484375
ell 893, elapsed: 0.00027298927307128906
ell 892, elapsed: 0.0002639293670654297
ell 891, elapsed: 0.000244140625
ell 890, elapsed: 0.0003020763397216797
ell 889, elapsed: 0.00033593177795410156
ell 888, elapsed: 0.00026297569274902344
ell 887, elapsed: 0.00026798248291015625
ell 886, elapsed: 0.00025391578674316406
ell 885, elapsed: 0.000247955322265625
ell 884, elapsed: 0.0002541542053222656
ell 883, elapsed: 0.0002639293670654297
ell 882, elapsed: 0.0003058910369873047
ell 881, elapsed: 0.00032210350036621094
ell 880, elapsed: 0.00030303001403808594
ell 879, elapsed: 0.0002551078796386719
ell 878, elapsed: 0.0002460479736328125
ell 877, elapsed: 0.0002739429473876953
ell 876, elapsed: 0.0002620220184326172
ell 875, elapsed: 0.00024890899658203125
ell 874, elapsed: 0.0002810955047607422
ell 873, elapsed: 0.000247955322265625
ell 872, elapsed: 0.0002598762512207031
ell 871, elapsed: 0.000247955322265625
ell 870, elapsed: 0.00025010108947753906
ell 869, elapsed: 0.0002551078796386719
ell 868, elapsed: 0.0002570152282714844
ell 867, elapsed: 0.0002548694610595703
ell 866, elapsed: 0.0002491474151611328
ell 865, elapsed: 0.0002529621124267578
ell 864, elapsed: 0.00025200843811035156
ell 863, elapsed: 0.000247955322265625
ell 862, elapsed: 0.0002510547637939453
ell 861, elapsed: 0.00024700164794921875
ell 860, elapsed: 0.00024700164794921875
ell 859, elapsed: 0.0002949237823486328
ell 858, elapsed: 0.00024700164794921875
ell 857, elapsed: 0.0002570152282714844
ell 856, elapsed: 0.00024509429931640625
ell 855, elapsed: 0.000247955322265625
ell 854, elapsed: 0.0002491474151611328
ell 853, elapsed: 0.00025391578674316406
ell 852, elapsed: 0.00026106834411621094
ell 851, elapsed: 0.0002498626708984375
ell 850, elapsed: 0.0002510547637939453
ell 849, elapsed: 0.0002570152282714844
ell 848, elapsed: 0.000247955322265625
ell 847, elapsed: 0.0002589225769042969
ell 846, elapsed: 0.00024890899658203125
ell 845, elapsed: 0.0002529621124267578
ell 844, elapsed: 0.0002880096435546875
ell 843, elapsed: 0.000247955322265625
ell 842, elapsed: 0.0002567768096923828
ell 841, elapsed: 0.0002548694610595703
ell 840, elapsed: 0.00025200843811035156
ell 839, elapsed: 0.0002598762512207031
ell 838, elapsed: 0.0002541542053222656
ell 837, elapsed: 0.0002701282501220703
ell 836, elapsed: 0.00024890899658203125
ell 835, elapsed: 0.00025391578674316406
ell 834, elapsed: 0.00025200843811035156
ell 833, elapsed: 0.0002598762512207031
ell 832, elapsed: 0.0002579689025878906
ell 831, elapsed: 0.0002529621124267578
ell 830, elapsed: 0.0002551078796386719
ell 829, elapsed: 0.0002510547637939453
ell 828, elapsed: 0.0002532005310058594
ell 827, elapsed: 0.00025582313537597656
ell 826, elapsed: 0.00025010108947753906
ell 825, elapsed: 0.00025582313537597656
ell 824, elapsed: 0.0002570152282714844
ell 823, elapsed: 0.0002491474151611328
ell 822, elapsed: 0.0002579689025878906
ell 821, elapsed: 0.0002529621124267578
ell 820, elapsed: 0.0002579689025878906
ell 819, elapsed: 0.00025200843811035156
ell 818, elapsed: 0.000247955322265625
ell 817, elapsed: 0.00026106834411621094
ell 816, elapsed: 0.0002551078796386719
ell 815, elapsed: 0.0002880096435546875
ell 814, elapsed: 0.0002529621124267578
ell 813, elapsed: 0.000247955322265625
ell 812, elapsed: 0.0002560615539550781
ell 811, elapsed: 0.00025010108947753906
ell 810, elapsed: 0.00025916099548339844
ell 809, elapsed: 0.00025081634521484375
ell 808, elapsed: 0.000247955322265625
ell 807, elapsed: 0.00026798248291015625
ell 806, elapsed: 0.00025200843811035156
ell 805, elapsed: 0.00026106834411621094
ell 804, elapsed: 0.00025081634521484375
ell 803, elapsed: 0.0002491474151611328
ell 802, elapsed: 0.0002560615539550781
ell 801, elapsed: 0.0002510547637939453
ell 800, elapsed: 0.0002868175506591797
ell 799, elapsed: 0.00025200843811035156
ell 798, elapsed: 0.000247955322265625
ell 797, elapsed: 0.0002548694610595703
ell 796, elapsed: 0.0002491474151611328
ell 795, elapsed: 0.0002579689025878906
ell 794, elapsed: 0.0002498626708984375
ell 793, elapsed: 0.0002570152282714844
ell 792, elapsed: 0.0002579689025878906
ell 791, elapsed: 0.0002510547637939453
ell 790, elapsed: 0.0002548694610595703
ell 789, elapsed: 0.00025010108947753906
ell 788, elapsed: 0.000247955322265625
ell 787, elapsed: 0.0002579689025878906
ell 786, elapsed: 0.0002510547637939453
ell 785, elapsed: 0.0003058910369873047
ell 784, elapsed: 0.00025010108947753906
ell 783, elapsed: 0.0002570152282714844
ell 782, elapsed: 0.00024890899658203125
ell 781, elapsed: 0.00024890899658203125
ell 780, elapsed: 0.0002560615539550781
ell 779, elapsed: 0.00025010108947753906
ell 778, elapsed: 0.00025391578674316406
ell 777, elapsed: 0.00024890899658203125
ell 776, elapsed: 0.00025010108947753906
ell 775, elapsed: 0.0002560615539550781
ell 774, elapsed: 0.0002491474151611328
ell 773, elapsed: 0.00025391578674316406
ell 772, elapsed: 0.00024890899658203125
ell 771, elapsed: 0.0002779960632324219
ell 770, elapsed: 0.00025391578674316406
ell 769, elapsed: 0.00025010108947753906
ell 768, elapsed: 0.0002579689025878906
ell 767, elapsed: 0.00024700164794921875
ell 766, elapsed: 0.00024890899658203125
ell 765, elapsed: 0.0002598762512207031
ell 764, elapsed: 0.0002510547637939453
ell 763, elapsed: 0.0002529621124267578
ell 762, elapsed: 0.00025010108947753906
ell 761, elapsed: 0.000247955322265625
ell 760, elapsed: 0.0002598762512207031
ell 759, elapsed: 0.00025200843811035156
ell 758, elapsed: 0.0002620220184326172
ell 757, elapsed: 0.00025200843811035156
ell 756, elapsed: 0.0002999305725097656
ell 755, elapsed: 0.00026106834411621094
ell 754, elapsed: 0.00025582313537597656
ell 753, elapsed: 0.00025391578674316406
ell 752, elapsed: 0.0002510547637939453
ell 751, elapsed: 0.00024509429931640625
ell 750, elapsed: 0.00025081634521484375
ell 749, elapsed: 0.00025010108947753906
ell 748, elapsed: 0.00025200843811035156
ell 747, elapsed: 0.00025200843811035156
ell 746, elapsed: 0.00024700164794921875
ell 745, elapsed: 0.00025200843811035156
ell 744, elapsed: 0.00024890899658203125
ell 743, elapsed: 0.0002498626708984375
ell 742, elapsed: 0.0002551078796386719
ell 741, elapsed: 0.00029206275939941406
ell 740, elapsed: 0.0002529621124267578
ell 739, elapsed: 0.0002541542053222656
ell 738, elapsed: 0.0002498626708984375
ell 737, elapsed: 0.00025010108947753906
ell 736, elapsed: 0.0002460479736328125
ell 735, elapsed: 0.0002529621124267578
ell 734, elapsed: 0.00025200843811035156
ell 733, elapsed: 0.00025010108947753906
ell 732, elapsed: 0.0002460479736328125
ell 731, elapsed: 0.00024890899658203125
ell 730, elapsed: 0.0002460479736328125
ell 729, elapsed: 0.00024819374084472656
ell 728, elapsed: 0.0002491474151611328
ell 727, elapsed: 0.00024700164794921875
ell 726, elapsed: 0.0002751350402832031
ell 725, elapsed: 0.0002460479736328125
ell 724, elapsed: 0.00024700164794921875
ell 723, elapsed: 0.0002491474151611328
ell 722, elapsed: 0.00024700164794921875
ell 721, elapsed: 0.0002541542053222656
ell 720, elapsed: 0.00024700164794921875
ell 719, elapsed: 0.00024580955505371094
ell 718, elapsed: 0.0003180503845214844
ell 717, elapsed: 0.0002608299255371094
ell 716, elapsed: 0.00024580955505371094
ell 715, elapsed: 0.0002410411834716797
ell 714, elapsed: 0.00023794174194335938
ell 713, elapsed: 0.000244140625
ell 712, elapsed: 0.00023889541625976562
ell 711, elapsed: 0.00034499168395996094
ell 710, elapsed: 0.00025200843811035156
ell 709, elapsed: 0.0002498626708984375
ell 708, elapsed: 0.0002510547637939453
ell 707, elapsed: 0.000247955322265625
ell 706, elapsed: 0.00025081634521484375
ell 705, elapsed: 0.0002460479736328125
ell 704, elapsed: 0.0002460479736328125
ell 703, elapsed: 0.0002529621124267578
ell 702, elapsed: 0.000247955322265625
ell 701, elapsed: 0.000247955322265625
ell 700, elapsed: 0.0002448558807373047
ell 699, elapsed: 0.00024700164794921875
ell 698, elapsed: 0.00024700164794921875
ell 697, elapsed: 0.00027298927307128906
ell 696, elapsed: 0.0002498626708984375
ell 695, elapsed: 0.0002460479736328125
ell 694, elapsed: 0.000247955322265625
ell 693, elapsed: 0.0002570152282714844
ell 692, elapsed: 0.00024580955505371094
ell 691, elapsed: 0.00025200843811035156
ell 690, elapsed: 0.000244140625
ell 689, elapsed: 0.000247955322265625
ell 688, elapsed: 0.00025200843811035156
ell 687, elapsed: 0.00024700164794921875
ell 686, elapsed: 0.00025200843811035156
ell 685, elapsed: 0.00024700164794921875
ell 684, elapsed: 0.0002498626708984375
ell 683, elapsed: 0.0002510547637939453
ell 682, elapsed: 0.00024700164794921875
ell 681, elapsed: 0.00025200843811035156
ell 680, elapsed: 0.00024819374084472656
ell 679, elapsed: 0.0002460479736328125
ell 678, elapsed: 0.00025010108947753906
ell 677, elapsed: 0.00024700164794921875
ell 676, elapsed: 0.00025200843811035156
ell 675, elapsed: 0.0002570152282714844
ell 674, elapsed: 0.00025010108947753906
ell 673, elapsed: 0.0002410411834716797
ell 672, elapsed: 0.00024700164794921875
ell 671, elapsed: 0.0002460479736328125
ell 670, elapsed: 0.00023984909057617188
ell 669, elapsed: 0.00024199485778808594
ell 668, elapsed: 0.0002391338348388672
ell 667, elapsed: 0.000247955322265625
ell 666, elapsed: 0.0003509521484375
ell 665, elapsed: 0.0002498626708984375
ell 664, elapsed: 0.00024890899658203125
ell 663, elapsed: 0.0002510547637939453
ell 662, elapsed: 0.00024700164794921875
ell 661, elapsed: 0.00025010108947753906
ell 660, elapsed: 0.00024890899658203125
ell 659, elapsed: 0.0002570152282714844
ell 658, elapsed: 0.0002510547637939453
ell 657, elapsed: 0.00024700164794921875
ell 656, elapsed: 0.00025010108947753906
ell 655, elapsed: 0.000247955322265625
ell 654, elapsed: 0.0002541542053222656
ell 653, elapsed: 0.0002498626708984375
ell 652, elapsed: 0.00027298927307128906
ell 651, elapsed: 0.0002541542053222656
ell 650, elapsed: 0.00025010108947753906
ell 649, elapsed: 0.00024890899658203125
ell 648, elapsed: 0.00024509429931640625
ell 647, elapsed: 0.000247955322265625
ell 646, elapsed: 0.00024890899658203125
ell 645, elapsed: 0.0002491474151611328
ell 644, elapsed: 0.00025200843811035156
ell 643, elapsed: 0.000247955322265625
ell 642, elapsed: 0.000247955322265625
ell 641, elapsed: 0.00024890899658203125
ell 640, elapsed: 0.00024819374084472656
ell 639, elapsed: 0.00024819374084472656
ell 638, elapsed: 0.00024509429931640625
ell 637, elapsed: 0.0002899169921875
ell 636, elapsed: 0.00025081634521484375
ell 635, elapsed: 0.000247955322265625
ell 634, elapsed: 0.0002510547637939453
ell 633, elapsed: 0.000247955322265625
ell 632, elapsed: 0.00024700164794921875
ell 631, elapsed: 0.000247955322265625
ell 630, elapsed: 0.000247955322265625
ell 629, elapsed: 0.00024700164794921875
ell 628, elapsed: 0.00024700164794921875
ell 627, elapsed: 0.0002510547637939453
ell 626, elapsed: 0.000247955322265625
ell 625, elapsed: 0.00024700164794921875
ell 624, elapsed: 0.0002510547637939453
ell 623, elapsed: 0.0002448558807373047
ell 622, elapsed: 0.0002739429473876953
ell 621, elapsed: 0.0002448558807373047
ell 620, elapsed: 0.0002460479736328125
ell 619, elapsed: 0.00024700164794921875
ell 618, elapsed: 0.0002448558807373047
ell 617, elapsed: 0.000247955322265625
ell 616, elapsed: 0.00024509429931640625
ell 615, elapsed: 0.00024390220642089844
ell 614, elapsed: 0.00024890899658203125
ell 613, elapsed: 0.0002460479736328125
ell 612, elapsed: 0.00025010108947753906
ell 611, elapsed: 0.0002548694610595703
ell 610, elapsed: 0.00024390220642089844
ell 609, elapsed: 0.00025010108947753906
ell 608, elapsed: 0.00025200843811035156
ell 607, elapsed: 0.0002770423889160156
ell 606, elapsed: 0.00024890899658203125
ell 605, elapsed: 0.0002651214599609375
ell 604, elapsed: 0.00025177001953125
ell 603, elapsed: 0.00024819374084472656
ell 602, elapsed: 0.0002529621124267578
ell 601, elapsed: 0.00025010108947753906
ell 600, elapsed: 0.00024509429931640625
ell 599, elapsed: 0.0002510547637939453
ell 598, elapsed: 0.00024890899658203125
ell 597, elapsed: 0.0002601146697998047
ell 596, elapsed: 0.000247955322265625
ell 595, elapsed: 0.00024700164794921875
ell 594, elapsed: 0.0002510547637939453
ell 593, elapsed: 0.000247955322265625
ell 592, elapsed: 0.00029087066650390625
ell 591, elapsed: 0.00024890899658203125
ell 590, elapsed: 0.0002510547637939453
ell 589, elapsed: 0.0002498626708984375
ell 588, elapsed: 0.0002460479736328125
ell 587, elapsed: 0.0002498626708984375
ell 586, elapsed: 0.0002532005310058594
ell 585, elapsed: 0.00024890899658203125
ell 584, elapsed: 0.00025200843811035156
ell 583, elapsed: 0.000247955322265625
ell 582, elapsed: 0.00024890899658203125
ell 581, elapsed: 0.00024890899658203125
ell 580, elapsed: 0.0002491474151611328
ell 579, elapsed: 0.00025200843811035156
ell 578, elapsed: 0.0002510547637939453
ell 577, elapsed: 0.0002789497375488281
ell 576, elapsed: 0.000247955322265625
ell 575, elapsed: 0.000244140625
ell 574, elapsed: 0.0002498626708984375
ell 573, elapsed: 0.0002460479736328125
ell 572, elapsed: 0.00024890899658203125
ell 571, elapsed: 0.0002460479736328125
ell 570, elapsed: 0.000247955322265625
ell 569, elapsed: 0.00024700164794921875
ell 568, elapsed: 0.00024580955505371094
ell 567, elapsed: 0.0002579689025878906
ell 566, elapsed: 0.00024819374084472656
ell 565, elapsed: 0.0002510547637939453
ell 564, elapsed: 0.00024890899658203125
ell 563, elapsed: 0.00024390220642089844
ell 562, elapsed: 0.0002739429473876953
ell 561, elapsed: 0.00025010108947753906
ell 560, elapsed: 0.00035190582275390625
ell 559, elapsed: 0.00039005279541015625
ell 558, elapsed: 0.0002830028533935547
ell 557, elapsed: 0.00024199485778808594
ell 556, elapsed: 0.0002410411834716797
ell 555, elapsed: 0.0002410411834716797
ell 554, elapsed: 0.00023889541625976562
ell 553, elapsed: 0.0002410411834716797
ell 552, elapsed: 0.00024199485778808594
ell 551, elapsed: 0.0002391338348388672
ell 550, elapsed: 0.000244140625
ell 549, elapsed: 0.00024008750915527344
ell 548, elapsed: 0.00023889541625976562
ell 547, elapsed: 0.00037598609924316406
ell 546, elapsed: 0.0002951622009277344
ell 545, elapsed: 0.00028586387634277344
ell 544, elapsed: 0.0002899169921875
ell 543, elapsed: 0.0002899169921875
ell 542, elapsed: 0.0002682209014892578
ell 541, elapsed: 0.00028586387634277344
ell 540, elapsed: 0.0002570152282714844
ell 539, elapsed: 0.000247955322265625
ell 538, elapsed: 0.0002760887145996094
ell 537, elapsed: 0.00025010108947753906
ell 536, elapsed: 0.0002498626708984375
ell 535, elapsed: 0.0002689361572265625
ell 534, elapsed: 0.0002779960632324219
ell 533, elapsed: 0.00025200843811035156
ell 532, elapsed: 0.0002510547637939453
ell 531, elapsed: 0.00025010108947753906
ell 530, elapsed: 0.0002720355987548828
ell 529, elapsed: 0.0002498626708984375
ell 528, elapsed: 0.000247955322265625
ell 527, elapsed: 0.0002510547637939453
ell 526, elapsed: 0.00024580955505371094
ell 525, elapsed: 0.0002510547637939453
ell 524, elapsed: 0.00024700164794921875
ell 523, elapsed: 0.00024890899658203125
ell 522, elapsed: 0.000247955322265625
ell 521, elapsed: 0.0002460479736328125
ell 520, elapsed: 0.00025010108947753906
ell 519, elapsed: 0.00029087066650390625
ell 518, elapsed: 0.00024509429931640625
ell 517, elapsed: 0.0002498626708984375
ell 516, elapsed: 0.00024890899658203125
ell 515, elapsed: 0.0002570152282714844
ell 514, elapsed: 0.00025010108947753906
ell 513, elapsed: 0.00025200843811035156
ell 512, elapsed: 0.00025200843811035156
ell 511, elapsed: 0.00024700164794921875
ell 510, elapsed: 0.00025200843811035156
ell 509, elapsed: 0.000247955322265625
ell 508, elapsed: 0.0002541542053222656
ell 507, elapsed: 0.0002460479736328125
ell 506, elapsed: 0.0002560615539550781
ell 505, elapsed: 0.0002529621124267578
ell 504, elapsed: 0.00028896331787109375
ell 503, elapsed: 0.0002658367156982422
ell 502, elapsed: 0.0002560615539550781
ell 501, elapsed: 0.0002529621124267578
ell 500, elapsed: 0.0002658367156982422
ell 499, elapsed: 0.00025200843811035156
ell 498, elapsed: 0.00026297569274902344
ell 497, elapsed: 0.0002541542053222656
ell 496, elapsed: 0.00027108192443847656
ell 495, elapsed: 0.0002617835998535156
ell 494, elapsed: 0.0002570152282714844
ell 493, elapsed: 0.0002620220184326172
ell 492, elapsed: 0.0002579689025878906
ell 491, elapsed: 0.0002651214599609375
ell 490, elapsed: 0.0003039836883544922
ell 489, elapsed: 0.00025916099548339844
ell 488, elapsed: 0.00026488304138183594
ell 487, elapsed: 0.00026106834411621094
ell 486, elapsed: 0.0002639293670654297
ell 485, elapsed: 0.00026607513427734375
ell 484, elapsed: 0.00025391578674316406
ell 483, elapsed: 0.00026106834411621094
ell 482, elapsed: 0.0002529621124267578
ell 481, elapsed: 0.0002498626708984375
ell 480, elapsed: 0.00026488304138183594
ell 479, elapsed: 0.00025391578674316406
ell 478, elapsed: 0.0002541542053222656
ell 477, elapsed: 0.0002579689025878906
ell 476, elapsed: 0.0002491474151611328
ell 475, elapsed: 0.00031304359436035156
ell 474, elapsed: 0.0002598762512207031
ell 473, elapsed: 0.00026488304138183594
ell 472, elapsed: 0.00025200843811035156
ell 471, elapsed: 0.0002560615539550781
ell 470, elapsed: 0.00026297569274902344
ell 469, elapsed: 0.0002541542053222656
ell 468, elapsed: 0.0002570152282714844
ell 467, elapsed: 0.00025010108947753906
ell 466, elapsed: 0.0002529621124267578
ell 465, elapsed: 0.0002579689025878906
ell 464, elapsed: 0.00024890899658203125
ell 463, elapsed: 0.00026106834411621094
ell 462, elapsed: 0.00025010108947753906
ell 461, elapsed: 0.0002968311309814453
ell 460, elapsed: 0.0002510547637939453
ell 459, elapsed: 0.00025391578674316406
ell 458, elapsed: 0.00025916099548339844
ell 457, elapsed: 0.00024890899658203125
ell 456, elapsed: 0.0002579689025878906
ell 455, elapsed: 0.0002639293670654297
ell 454, elapsed: 0.00025010108947753906
ell 453, elapsed: 0.00026988983154296875
ell 452, elapsed: 0.0002529621124267578
ell 451, elapsed: 0.00026297569274902344
ell 450, elapsed: 0.00025200843811035156
ell 449, elapsed: 0.00024700164794921875
ell 448, elapsed: 0.0002570152282714844
ell 447, elapsed: 0.00024890899658203125
ell 446, elapsed: 0.00028395652770996094
ell 445, elapsed: 0.00025010108947753906
ell 444, elapsed: 0.00025081634521484375
ell 443, elapsed: 0.0002570152282714844
ell 442, elapsed: 0.0002498626708984375
ell 441, elapsed: 0.0002601146697998047
ell 440, elapsed: 0.0002498626708984375
ell 439, elapsed: 0.000247955322265625
ell 438, elapsed: 0.0002620220184326172
ell 437, elapsed: 0.00024700164794921875
ell 436, elapsed: 0.00026702880859375
ell 435, elapsed: 0.00024890899658203125
ell 434, elapsed: 0.0002510547637939453
ell 433, elapsed: 0.00025391578674316406
ell 432, elapsed: 0.0002491474151611328
ell 431, elapsed: 0.0002968311309814453
ell 430, elapsed: 0.0002491474151611328
ell 429, elapsed: 0.0002510547637939453
ell 428, elapsed: 0.0002601146697998047
ell 427, elapsed: 0.00025081634521484375
ell 426, elapsed: 0.0002639293670654297
ell 425, elapsed: 0.0002510547637939453
ell 424, elapsed: 0.0002510547637939453
ell 423, elapsed: 0.0002579689025878906
ell 422, elapsed: 0.00025200843811035156
ell 421, elapsed: 0.0002589225769042969
ell 420, elapsed: 0.000247955322265625
ell 419, elapsed: 0.00027108192443847656
ell 418, elapsed: 0.0003001689910888672
ell 417, elapsed: 0.00030684471130371094
ell 416, elapsed: 0.0002701282501220703
ell 415, elapsed: 0.0002620220184326172
ell 414, elapsed: 0.0002551078796386719
ell 413, elapsed: 0.00029087066650390625
ell 412, elapsed: 0.0002989768981933594
ell 411, elapsed: 0.0002570152282714844
ell 410, elapsed: 0.000247955322265625
ell 409, elapsed: 0.00024890899658203125
ell 408, elapsed: 0.00024700164794921875
ell 407, elapsed: 0.0002448558807373047
ell 406, elapsed: 0.0002491474151611328
ell 405, elapsed: 0.00024580955505371094
ell 404, elapsed: 0.0002551078796386719
ell 403, elapsed: 0.00024390220642089844
ell 402, elapsed: 0.0003571510314941406
ell 401, elapsed: 0.00026297569274902344
ell 400, elapsed: 0.00024890899658203125
ell 399, elapsed: 0.0003159046173095703
ell 398, elapsed: 0.00027680397033691406
ell 397, elapsed: 0.0002779960632324219
ell 396, elapsed: 0.0002570152282714844
ell 395, elapsed: 0.0002448558807373047
ell 394, elapsed: 0.0002529621124267578
ell 393, elapsed: 0.00024318695068359375
ell 392, elapsed: 0.0002429485321044922
ell 391, elapsed: 0.00025010108947753906
ell 390, elapsed: 0.00024390220642089844
ell 389, elapsed: 0.00025200843811035156
ell 388, elapsed: 0.0003399848937988281
ell 387, elapsed: 0.0002658367156982422
ell 386, elapsed: 0.0003349781036376953
ell 385, elapsed: 0.00025582313537597656
ell 384, elapsed: 0.0003058910369873047
ell 383, elapsed: 0.00032711029052734375
ell 382, elapsed: 0.00024700164794921875
ell 381, elapsed: 0.00032591819763183594
ell 380, elapsed: 0.00028896331787109375
ell 379, elapsed: 0.00032520294189453125
ell 378, elapsed: 0.00024509429931640625
ell 377, elapsed: 0.00024580955505371094
ell 376, elapsed: 0.00025010108947753906
ell 375, elapsed: 0.0003058910369873047
ell 374, elapsed: 0.0002651214599609375
ell 373, elapsed: 0.0002551078796386719
ell 372, elapsed: 0.0002601146697998047
ell 371, elapsed: 0.0002498626708984375
ell 370, elapsed: 0.00026607513427734375
ell 369, elapsed: 0.0002570152282714844
ell 368, elapsed: 0.0002510547637939453
ell 367, elapsed: 0.00032806396484375
ell 366, elapsed: 0.0002789497375488281
ell 365, elapsed: 0.00024700164794921875
ell 364, elapsed: 0.0002551078796386719
ell 363, elapsed: 0.00024390220642089844
ell 362, elapsed: 0.00025200843811035156
ell 361, elapsed: 0.00024318695068359375
ell 360, elapsed: 0.00033211708068847656
ell 359, elapsed: 0.00025010108947753906
ell 358, elapsed: 0.0002429485321044922
ell 357, elapsed: 0.0002498626708984375
ell 356, elapsed: 0.00024318695068359375
ell 355, elapsed: 0.00024199485778808594
ell 354, elapsed: 0.0002491474151611328
ell 353, elapsed: 0.0002429485321044922
ell 352, elapsed: 0.000247955322265625
ell 351, elapsed: 0.0002460479736328125
ell 350, elapsed: 0.0002410411834716797
ell 349, elapsed: 0.00024580955505371094
ell 348, elapsed: 0.00024199485778808594
ell 347, elapsed: 0.0002579689025878906
ell 346, elapsed: 0.0002460479736328125
ell 345, elapsed: 0.00034689903259277344
ell 344, elapsed: 0.0002510547637939453
ell 343, elapsed: 0.00024700164794921875
ell 342, elapsed: 0.0002589225769042969
ell 341, elapsed: 0.000247955322265625
ell 340, elapsed: 0.00025391578674316406
ell 339, elapsed: 0.00024700164794921875
ell 338, elapsed: 0.0002429485321044922
ell 337, elapsed: 0.0002551078796386719
ell 336, elapsed: 0.0002529621124267578
ell 335, elapsed: 0.0002560615539550781
ell 334, elapsed: 0.00024509429931640625
ell 333, elapsed: 0.0002460479736328125
ell 332, elapsed: 0.00033092498779296875
ell 331, elapsed: 0.00032210350036621094
ell 330, elapsed: 0.0002949237823486328
ell 329, elapsed: 0.000244140625
ell 328, elapsed: 0.00023984909057617188
ell 327, elapsed: 0.0002510547637939453
ell 326, elapsed: 0.00024080276489257812
ell 325, elapsed: 0.0002460479736328125
ell 324, elapsed: 0.00024008750915527344
ell 323, elapsed: 0.00025081634521484375
ell 322, elapsed: 0.00025010108947753906
ell 321, elapsed: 0.00024199485778808594
ell 320, elapsed: 0.000247955322265625
ell 319, elapsed: 0.00024199485778808594
ell 318, elapsed: 0.0002429485321044922
ell 317, elapsed: 0.00024819374084472656
ell 316, elapsed: 0.0003490447998046875
ell 315, elapsed: 0.0002589225769042969
ell 314, elapsed: 0.00024819374084472656
ell 313, elapsed: 0.0002510547637939453
ell 312, elapsed: 0.0002460479736328125
ell 311, elapsed: 0.00024700164794921875
ell 310, elapsed: 0.0002529621124267578
ell 309, elapsed: 0.0002460479736328125
ell 308, elapsed: 0.0002529621124267578
ell 307, elapsed: 0.00024700164794921875
ell 306, elapsed: 0.0002491474151611328
ell 305, elapsed: 0.0002510547637939453
ell 304, elapsed: 0.000247955322265625
ell 303, elapsed: 0.00025010108947753906
ell 302, elapsed: 0.00024700164794921875
ell 301, elapsed: 0.0002942085266113281
ell 300, elapsed: 0.0002541542053222656
ell 299, elapsed: 0.000247955322265625
ell 298, elapsed: 0.0002541542053222656
ell 297, elapsed: 0.0002830028533935547
ell 296, elapsed: 0.0002760887145996094
ell 295, elapsed: 0.00028896331787109375
ell 294, elapsed: 0.0002460479736328125
ell 293, elapsed: 0.0002789497375488281
ell 292, elapsed: 0.00028014183044433594
ell 291, elapsed: 0.0002741813659667969
ell 290, elapsed: 0.0002779960632324219
ell 289, elapsed: 0.00027298927307128906
ell 288, elapsed: 0.0002770423889160156
ell 287, elapsed: 0.00037407875061035156
ell 286, elapsed: 0.0002720355987548828
ell 285, elapsed: 0.0002770423889160156
ell 284, elapsed: 0.00027108192443847656
ell 283, elapsed: 0.0002770423889160156
ell 282, elapsed: 0.0002760887145996094
ell 281, elapsed: 0.00028395652770996094
ell 280, elapsed: 0.00027108192443847656
ell 279, elapsed: 0.00027489662170410156
ell 278, elapsed: 0.000247955322265625
ell 277, elapsed: 0.0002429485321044922
ell 276, elapsed: 0.00024700164794921875
ell 275, elapsed: 0.0002491474151611328
ell 274, elapsed: 0.0002429485321044922
ell 273, elapsed: 0.0003600120544433594
ell 272, elapsed: 0.0002529621124267578
ell 271, elapsed: 0.0002570152282714844
ell 270, elapsed: 0.00024890899658203125
ell 269, elapsed: 0.0002510547637939453
ell 268, elapsed: 0.00026488304138183594
ell 267, elapsed: 0.00026297569274902344
ell 266, elapsed: 0.00025010108947753906
ell 265, elapsed: 0.000244140625
ell 264, elapsed: 0.00024199485778808594
ell 263, elapsed: 0.00025200843811035156
ell 262, elapsed: 0.0002429485321044922
ell 261, elapsed: 0.0002541542053222656
ell 260, elapsed: 0.00024390220642089844
ell 259, elapsed: 0.00024509429931640625
ell 258, elapsed: 0.00026988983154296875
ell 257, elapsed: 0.00025391578674316406
ell 256, elapsed: 0.0002579689025878906
ell 255, elapsed: 0.0002510547637939453
ell 254, elapsed: 0.0002579689025878906
ell 253, elapsed: 0.00025081634521484375
ell 252, elapsed: 0.00024890899658203125
ell 251, elapsed: 0.00025916099548339844
ell 250, elapsed: 0.0002498626708984375
ell 249, elapsed: 0.0002570152282714844
ell 248, elapsed: 0.00025081634521484375
ell 247, elapsed: 0.00025200843811035156
ell 246, elapsed: 0.00025916099548339844
ell 245, elapsed: 0.00025081634521484375
ell 244, elapsed: 0.0002989768981933594
ell 243, elapsed: 0.0002498626708984375
ell 242, elapsed: 0.00024890899658203125
ell 241, elapsed: 0.0002579689025878906
ell 240, elapsed: 0.0002510547637939453
ell 239, elapsed: 0.0002601146697998047
ell 238, elapsed: 0.0002579689025878906
ell 237, elapsed: 0.0002498626708984375
ell 236, elapsed: 0.00025916099548339844
ell 235, elapsed: 0.0002510547637939453
ell 234, elapsed: 0.0002570152282714844
ell 233, elapsed: 0.0002510547637939453
ell 232, elapsed: 0.0002510547637939453
ell 231, elapsed: 0.00026297569274902344
ell 230, elapsed: 0.00025200843811035156
ell 229, elapsed: 0.0003018379211425781
ell 228, elapsed: 0.00025010108947753906
ell 227, elapsed: 0.00025582313537597656
ell 226, elapsed: 0.00025010108947753906
ell 225, elapsed: 0.00025081634521484375
ell 224, elapsed: 0.00025391578674316406
ell 223, elapsed: 0.0002491474151611328
ell 222, elapsed: 0.00025010108947753906
ell 221, elapsed: 0.0002491474151611328
ell 220, elapsed: 0.0002560615539550781
ell 219, elapsed: 0.00025391578674316406
ell 218, elapsed: 0.000247955322265625
ell 217, elapsed: 0.0002551078796386719
ell 216, elapsed: 0.00025200843811035156
ell 215, elapsed: 0.00026798248291015625
ell 214, elapsed: 0.0002541542053222656
ell 213, elapsed: 0.00024819374084472656
ell 212, elapsed: 0.00025010108947753906
ell 211, elapsed: 0.0002491474151611328
ell 210, elapsed: 0.00024700164794921875
ell 209, elapsed: 0.0002620220184326172
ell 208, elapsed: 0.00024890899658203125
ell 207, elapsed: 0.00025391578674316406
ell 206, elapsed: 0.00025010108947753906
ell 205, elapsed: 0.00025200843811035156
ell 204, elapsed: 0.0002510547637939453
ell 203, elapsed: 0.0002491474151611328
ell 202, elapsed: 0.0002498626708984375
ell 201, elapsed: 0.00025081634521484375
ell 200, elapsed: 0.00029397010803222656
ell 199, elapsed: 0.00025391578674316406
ell 198, elapsed: 0.00024890899658203125
ell 197, elapsed: 0.0002541542053222656
ell 196, elapsed: 0.0002498626708984375
ell 195, elapsed: 0.00024890899658203125
ell 194, elapsed: 0.000247955322265625
ell 193, elapsed: 0.0002460479736328125
ell 192, elapsed: 0.00025010108947753906
ell 191, elapsed: 0.00025010108947753906
ell 190, elapsed: 0.0002551078796386719
ell 189, elapsed: 0.00025200843811035156
ell 188, elapsed: 0.0002491474151611328
ell 187, elapsed: 0.00025177001953125
ell 186, elapsed: 0.00024890899658203125
ell 185, elapsed: 0.0002849102020263672
ell 184, elapsed: 0.0002498626708984375
ell 183, elapsed: 0.00024890899658203125
ell 182, elapsed: 0.0002510547637939453
ell 181, elapsed: 0.00024700164794921875
ell 180, elapsed: 0.0002551078796386719
ell 179, elapsed: 0.0002560615539550781
ell 178, elapsed: 0.00025200843811035156
ell 177, elapsed: 0.00025391578674316406
ell 176, elapsed: 0.00024890899658203125
ell 175, elapsed: 0.0002560615539550781
ell 174, elapsed: 0.0002529621124267578
ell 173, elapsed: 0.00024890899658203125
ell 172, elapsed: 0.0002620220184326172
ell 171, elapsed: 0.00025081634521484375
ell 170, elapsed: 0.0003008842468261719
ell 169, elapsed: 0.0002541542053222656
ell 168, elapsed: 0.00025200843811035156
ell 167, elapsed: 0.0002551078796386719
ell 166, elapsed: 0.00025200843811035156
ell 165, elapsed: 0.0002560615539550781
ell 164, elapsed: 0.0002529621124267578
ell 163, elapsed: 0.00025391578674316406
ell 162, elapsed: 0.0002491474151611328
ell 161, elapsed: 0.000247955322265625
ell 160, elapsed: 0.0002560615539550781
ell 159, elapsed: 0.0002510547637939453
ell 158, elapsed: 0.0002589225769042969
ell 157, elapsed: 0.00024700164794921875
ell 156, elapsed: 0.0002739429473876953
ell 155, elapsed: 0.00025582313537597656
ell 154, elapsed: 0.0002579689025878906
ell 153, elapsed: 0.0002529621124267578
ell 152, elapsed: 0.000247955322265625
ell 151, elapsed: 0.00025200843811035156
ell 150, elapsed: 0.00025391578674316406
ell 149, elapsed: 0.0002532005310058594
ell 148, elapsed: 0.00025391578674316406
ell 147, elapsed: 0.00025200843811035156
ell 146, elapsed: 0.00024890899658203125
ell 145, elapsed: 0.0002570152282714844
ell 144, elapsed: 0.0002529621124267578
ell 143, elapsed: 0.0002548694610595703
ell 142, elapsed: 0.00024700164794921875
ell 141, elapsed: 0.0002789497375488281
ell 140, elapsed: 0.00025200843811035156
ell 139, elapsed: 0.00025010108947753906
ell 138, elapsed: 0.00025200843811035156
ell 137, elapsed: 0.00024890899658203125
ell 136, elapsed: 0.00024819374084472656
ell 135, elapsed: 0.0002651214599609375
ell 134, elapsed: 0.0002510547637939453
ell 133, elapsed: 0.0002560615539550781
ell 132, elapsed: 0.00024890899658203125
ell 131, elapsed: 0.00025916099548339844
ell 130, elapsed: 0.0002529621124267578
ell 129, elapsed: 0.00025200843811035156
ell 128, elapsed: 0.0002560615539550781
ell 127, elapsed: 0.0002529621124267578
ell 126, elapsed: 0.00031495094299316406
ell 125, elapsed: 0.0002751350402832031
ell 124, elapsed: 0.0002548694610595703
ell 123, elapsed: 0.0002570152282714844
ell 122, elapsed: 0.0002510547637939453
ell 121, elapsed: 0.0002551078796386719
ell 120, elapsed: 0.00025200843811035156
ell 119, elapsed: 0.0002510547637939453
ell 118, elapsed: 0.0002560615539550781
ell 117, elapsed: 0.00025200843811035156
ell 116, elapsed: 0.0002560615539550781
ell 115, elapsed: 0.00024890899658203125
ell 114, elapsed: 0.0002510547637939453
ell 113, elapsed: 0.0002601146697998047
ell 112, elapsed: 0.000270843505859375
ell 111, elapsed: 0.0002560615539550781
ell 110, elapsed: 0.00025200843811035156
ell 109, elapsed: 0.000247955322265625
ell 108, elapsed: 0.0002658367156982422
ell 107, elapsed: 0.00025010108947753906
ell 106, elapsed: 0.0002589225769042969
ell 105, elapsed: 0.00024890899658203125
ell 104, elapsed: 0.0002598762512207031
ell 103, elapsed: 0.0002498626708984375
ell 102, elapsed: 0.0002510547637939453
ell 101, elapsed: 0.0002548694610595703
ell 100, elapsed: 0.0002510547637939453
ell 99, elapsed: 0.0002579689025878906
ell 98, elapsed: 0.00024700164794921875
ell 97, elapsed: 0.0002911090850830078
ell 96, elapsed: 0.00025582313537597656
ell 95, elapsed: 0.00024890899658203125
ell 94, elapsed: 0.0002570152282714844
ell 93, elapsed: 0.0002460479736328125
ell 92, elapsed: 0.0002448558807373047
ell 91, elapsed: 0.0002560615539550781
ell 90, elapsed: 0.00024890899658203125
ell 89, elapsed: 0.0002551078796386719
ell 88, elapsed: 0.00025200843811035156
ell 87, elapsed: 0.00024890899658203125
ell 86, elapsed: 0.00031185150146484375
ell 85, elapsed: 0.00035190582275390625
ell 84, elapsed: 0.0002620220184326172
ell 83, elapsed: 0.0002880096435546875
ell 82, elapsed: 0.00025391578674316406
ell 81, elapsed: 0.0002791881561279297
ell 80, elapsed: 0.00025582313537597656
ell 79, elapsed: 0.0002830028533935547
ell 78, elapsed: 0.00025200843811035156
ell 77, elapsed: 0.00024890899658203125
ell 76, elapsed: 0.00025582313537597656
ell 75, elapsed: 0.00024890899658203125
ell 74, elapsed: 0.00026416778564453125
ell 73, elapsed: 0.0002532005310058594
ell 72, elapsed: 0.0002579689025878906
ell 71, elapsed: 0.00025391578674316406
ell 70, elapsed: 0.00025200843811035156
ell 69, elapsed: 0.00026607513427734375
ell 68, elapsed: 0.0002880096435546875
ell 67, elapsed: 0.00026106834411621094
ell 66, elapsed: 0.0002529621124267578
ell 65, elapsed: 0.00025010108947753906
ell 64, elapsed: 0.0002567768096923828
ell 63, elapsed: 0.0002510547637939453
ell 62, elapsed: 0.0002548694610595703
ell 61, elapsed: 0.00024890899658203125
ell 60, elapsed: 0.00025010108947753906
ell 59, elapsed: 0.0002579689025878906
ell 58, elapsed: 0.000247955322265625
ell 57, elapsed: 0.0002551078796386719
ell 56, elapsed: 0.00024890899658203125
ell 55, elapsed: 0.0002491474151611328
ell 54, elapsed: 0.00029587745666503906
ell 53, elapsed: 0.00024890899658203125
ell 52, elapsed: 0.0002701282501220703
ell 51, elapsed: 0.0002498626708984375
ell 50, elapsed: 0.0002532005310058594
ell 49, elapsed: 0.0002551078796386719
ell 48, elapsed: 0.00024700164794921875
ell 47, elapsed: 0.00024890899658203125
ell 46, elapsed: 0.00024509429931640625
ell 45, elapsed: 0.0002460479736328125
ell 44, elapsed: 0.0002498626708984375
ell 43, elapsed: 0.0002429485321044922
ell 42, elapsed: 0.00027108192443847656
ell 41, elapsed: 0.00024890899658203125
ell 40, elapsed: 0.0002529621124267578
ell 39, elapsed: 0.0003540515899658203
ell 38, elapsed: 0.0002529621124267578
ell 37, elapsed: 0.00025391578674316406
ell 36, elapsed: 0.000244140625
ell 35, elapsed: 0.0002498626708984375
ell 34, elapsed: 0.000244140625
ell 33, elapsed: 0.00024700164794921875
ell 32, elapsed: 0.0002498626708984375
ell 31, elapsed: 0.0002448558807373047
ell 30, elapsed: 0.0002510547637939453
ell 29, elapsed: 0.00024700164794921875
ell 28, elapsed: 0.00024700164794921875
ell 27, elapsed: 0.0002541542053222656
ell 26, elapsed: 0.00024700164794921875
ell 25, elapsed: 0.0002560615539550781
ell 24, elapsed: 0.0003840923309326172
ell 23, elapsed: 0.0002608299255371094
ell 22, elapsed: 0.00026106834411621094
ell 21, elapsed: 0.00024700164794921875
ell 20, elapsed: 0.00025010108947753906
ell 19, elapsed: 0.0002532005310058594
ell 18, elapsed: 0.00024509429931640625
ell 17, elapsed: 0.0002510547637939453
ell 16, elapsed: 0.00024580955505371094
ell 15, elapsed: 0.0002510547637939453
ell 14, elapsed: 0.0002429485321044922
ell 13, elapsed: 0.00025200843811035156
ell 12, elapsed: 0.0002410411834716797
ell 11, elapsed: 0.0002498626708984375
ell 10, elapsed: 0.00025010108947753906
ell 9, elapsed: 0.0003910064697265625
ell 8, elapsed: 0.0002529621124267578
ell 7, elapsed: 0.00024509429931640625
ell 6, elapsed: 0.0002460479736328125
ell 5, elapsed: 0.0002532005310058594
ell 4, elapsed: 0.0002510547637939453
ell 3, elapsed: 0.0002529621124267578
ell 2, elapsed: 0.0002429485321044922
ell 1, elapsed: 0.0002410411834716797
ell 0, elapsed: 0.00024890899658203125
  0.359725 seconds (46.03 k allocations: 3.091 MiB, 6.38% compilation time)
elapsed: 0.00029587745666503906
step:          0.045502 sec (0 allocations: 0 byte, 0.0% gc time)
swapping:      0.000299 sec (0 allocations: 0 byte, 0.0% gc time)
calc_Mellell!: 0.004191 sec (0 allocations: 0 byte, 0.0% gc time)
  t0 :  0.001144 sec (0 allocations: 0 byte, 0.0% gc time)
  tm2 : 0.069404 sec (0 allocations: 0 byte, 0.0% gc time)
  tm2s: 0.000667 sec (0 allocations: 0 byte, 0.0% gc time)
  tm4 : 0.139966 sec (0 allocations: 0 byte, 0.0% gc time)
  tp2 : 0.0 sec (0 allocations: 0 byte, 0.0% gc time)
  tp2s: 0.0 sec (0 allocations: 0 byte, 0.0% gc time)
  tp4 : 0.0 sec (0 allocations: 0 byte, 0.0% gc time)
calc_wtdll!:   0.23584 sec (9.9 k allocations: 1.047 MB, 0.0% gc time)
calc_wljj!:    0.014508 sec (689 allocations: 10.766 KB, 0.0% gc time)
mult_prefac!:  0.0 sec (0 allocations: 0 byte, 0.0% gc time)
convert:       0.0 sec (0 allocations: 0 byte, 0.0% gc time)
write:         0.024671 sec (0 allocations: 0 byte, 0.0% gc time)
test_rand_2f1: 0.0 sec (0 allocations: 0 byte, 0.0% gc time)
Closing outfile out/Ml21-cache.bin...   0.000004 seconds
  0.000272 seconds (36 allocations: 27.953 KiB)
make_phi():   0.001105 seconds (8.19 k allocations: 238.078 KiB)
  0.082884 seconds (141.90 k allocations: 3.483 MiB)
tskip:       0.000468 sec (0 allocations: 0 byte, 0.0% gc time)
tread:       0.017 sec (17 allocations: 10.641 KB, 0.0% gc time)
tmultphi:    0.005959 sec (0 allocations: 0 byte, 0.0% gc time)
tbrfft:      0.023539 sec (0 allocations: 0 byte, 0.0% gc time)
tmultprefac: 0.011708 sec (0 allocations: 0 byte, 0.0% gc time)
toutfunc:    0.022033 sec (127.507 k allocations: 2.312 MB, 0.0% gc time)
Testing R=1.0 ... passed
Calculating fmax: 
  dlrec    = 4
  dlrecRg1 = -4
  q=1.1, R=0.9:	  0.228834 seconds (105.72 k allocations: 15.273 MiB)

  0.228994 seconds (105.77 k allocations: 15.307 MiB)
ℓ = 1202
Δℓ = 4
ΔℓRg1 = -4
N = 1600
q = 1.1
kmin = 1.0e-5
kmax = 100000.00000000004
χ0 = 0.023029999999999995
RR = RR.tsv
ℓmax = ℓmax.bin
f21 = f21.bin
kmin = 1.0e-5
kmax = 100000.0
dlrec    = 4
dlrecRg1 = -4
Output size: 5741568 bytes = 0.005347251892089844 GiB
Output size: 51264 bytes = 4.774332046508789e-5 GiB
Reading 'out/F21EllCache'...   0.000777 seconds (197 allocations: 84.203 KiB)
ellmax: 1202
lmaxcache: 1202
fell[:,1,1] = ComplexF64[1.3482014726274674e-57 - 3.302141236118086e-73im, 1.357860004724329e-57 - 3.3257978169518355e-73im]
ell 1202, elapsed: 1.3113021850585938e-5
ell 1201, elapsed: 0.00024890899658203125
ell 1200, elapsed: 0.00023508071899414062
ell 1199, elapsed: 0.0002319812774658203
ell 1198, elapsed: 0.0002300739288330078
ell 1002, elapsed: 0.007816076278686523
ell 1001, elapsed: 0.00023818016052246094
ell 1000, elapsed: 0.0002269744873046875
ell 999, elapsed: 0.0002288818359375
ell 998, elapsed: 0.0002231597900390625
ell 902, elapsed: 0.003932952880859375
ell 901, elapsed: 0.00022792816162109375
ell 900, elapsed: 0.00023317337036132812
ell 899, elapsed: 0.0002200603485107422
ell 898, elapsed: 0.00021982192993164062
ell 802, elapsed: 0.0038390159606933594
ell 801, elapsed: 0.00022220611572265625
ell 800, elapsed: 0.00021791458129882812
ell 799, elapsed: 0.0004010200500488281
ell 798, elapsed: 0.00022602081298828125
ell 702, elapsed: 0.0038099288940429688
ell 701, elapsed: 0.00023293495178222656
ell 700, elapsed: 0.000225067138671875
ell 699, elapsed: 0.0002231597900390625
ell 698, elapsed: 0.00021600723266601562
ell 602, elapsed: 0.003826141357421875
ell 601, elapsed: 0.0002269744873046875
ell 600, elapsed: 0.0002238750457763672
ell 599, elapsed: 0.00022077560424804688
ell 598, elapsed: 0.00022411346435546875
ell 502, elapsed: 0.0038089752197265625
ell 501, elapsed: 0.00023102760314941406
ell 500, elapsed: 0.00022912025451660156
ell 499, elapsed: 0.00022482872009277344
ell 498, elapsed: 0.0002181529998779297
ell 402, elapsed: 0.0038018226623535156
ell 401, elapsed: 0.0002269744873046875
ell 400, elapsed: 0.00023221969604492188
ell 399, elapsed: 0.00022482872009277344
ell 398, elapsed: 0.00021719932556152344
ell 302, elapsed: 0.003831148147583008
ell 301, elapsed: 0.00024509429931640625
ell 300, elapsed: 0.0002410411834716797
ell 299, elapsed: 0.000225067138671875
ell 298, elapsed: 0.0002219676971435547
ell 202, elapsed: 0.003943204879760742
ell 201, elapsed: 0.0002269744873046875
ell 200, elapsed: 0.00022792816162109375
ell 199, elapsed: 0.0002231597900390625
ell 198, elapsed: 0.00021696090698242188
ell 152, elapsed: 0.001934051513671875
ell 151, elapsed: 0.00021600723266601562
ell 150, elapsed: 0.00030112266540527344
ell 149, elapsed: 0.00022983551025390625
ell 148, elapsed: 0.000225067138671875
ell 127, elapsed: 0.0010209083557128906
ell 126, elapsed: 0.00022482872009277344
ell 125, elapsed: 0.00022602081298828125
ell 124, elapsed: 0.00021910667419433594
ell 123, elapsed: 0.00021791458129882812
ell 114, elapsed: 0.0005440711975097656
ell 113, elapsed: 0.0002110004425048828
ell 112, elapsed: 0.0002200603485107422
ell 111, elapsed: 0.0002129077911376953
ell 110, elapsed: 0.00030303001403808594
ell 102, elapsed: 0.0005259513854980469
ell 101, elapsed: 0.0002269744873046875
ell 100, elapsed: 0.000225067138671875
ell 99, elapsed: 0.00022292137145996094
ell 98, elapsed: 0.00022602081298828125
ell 97, elapsed: 0.00026798248291015625
ell 96, elapsed: 0.000247955322265625
ell 95, elapsed: 0.00024890899658203125
ell 94, elapsed: 0.00024199485778808594
ell 93, elapsed: 0.0002491474151611328
ell 92, elapsed: 0.00025391578674316406
ell 91, elapsed: 0.00024890899658203125
ell 90, elapsed: 0.00024509429931640625
ell 89, elapsed: 0.00027298927307128906
ell 88, elapsed: 0.0002779960632324219
ell 87, elapsed: 0.00025200843811035156
ell 86, elapsed: 0.00027108192443847656
ell 85, elapsed: 0.0002529621124267578
ell 84, elapsed: 0.000247955322265625
ell 83, elapsed: 0.0002491474151611328
ell 82, elapsed: 0.0002448558807373047
ell 81, elapsed: 0.00024509429931640625
ell 80, elapsed: 0.0002429485321044922
ell 79, elapsed: 0.00024008750915527344
ell 78, elapsed: 0.00024819374084472656
ell 77, elapsed: 0.00024080276489257812
ell 76, elapsed: 0.00024890899658203125
ell 75, elapsed: 0.00024199485778808594
ell 74, elapsed: 0.00034689903259277344
ell 73, elapsed: 0.0002701282501220703
ell 72, elapsed: 0.000247955322265625
ell 71, elapsed: 0.00024700164794921875
ell 70, elapsed: 0.0002510547637939453
ell 69, elapsed: 0.0002410411834716797
ell 68, elapsed: 0.00025010108947753906
ell 67, elapsed: 0.000247955322265625
ell 66, elapsed: 0.0002510547637939453
ell 65, elapsed: 0.00024580955505371094
ell 64, elapsed: 0.0002429485321044922
ell 63, elapsed: 0.0002510547637939453
ell 62, elapsed: 0.00030493736267089844
ell 61, elapsed: 0.0002639293670654297
ell 60, elapsed: 0.0002548694610595703
ell 59, elapsed: 0.00025582313537597656
ell 58, elapsed: 0.0002589225769042969
ell 57, elapsed: 0.00025200843811035156
ell 56, elapsed: 0.00025391578674316406
ell 55, elapsed: 0.00027108192443847656
ell 54, elapsed: 0.00025081634521484375
ell 53, elapsed: 0.00026297569274902344
ell 52, elapsed: 0.0002510547637939453
ell 51, elapsed: 0.00025582313537597656
ell 50, elapsed: 0.00025081634521484375
ell 49, elapsed: 0.0002510547637939453
ell 48, elapsed: 0.00025200843811035156
ell 47, elapsed: 0.00025200843811035156
ell 46, elapsed: 0.00025391578674316406
ell 45, elapsed: 0.00025010108947753906
ell 44, elapsed: 0.00025200843811035156
ell 43, elapsed: 0.0002739429473876953
ell 42, elapsed: 0.0003669261932373047
ell 41, elapsed: 0.00039887428283691406
ell 40, elapsed: 0.00036907196044921875
ell 39, elapsed: 0.00036907196044921875
ell 38, elapsed: 0.0003631114959716797
ell 37, elapsed: 0.00036597251892089844
ell 36, elapsed: 0.0003681182861328125
ell 35, elapsed: 0.0003650188446044922
ell 34, elapsed: 0.0003647804260253906
ell 33, elapsed: 0.0003628730773925781
ell 32, elapsed: 0.0003650188446044922
ell 31, elapsed: 0.00038909912109375
ell 30, elapsed: 0.0003600120544433594
ell 29, elapsed: 0.0003719329833984375
ell 28, elapsed: 0.0003619194030761719
ell 27, elapsed: 0.0003619194030761719
ell 26, elapsed: 0.00036907196044921875
ell 25, elapsed: 0.0003578662872314453
ell 24, elapsed: 0.00036597251892089844
ell 23, elapsed: 0.0003590583801269531
ell 22, elapsed: 0.0003650188446044922
ell 21, elapsed: 0.00041103363037109375
ell 20, elapsed: 0.0003459453582763672
ell 19, elapsed: 0.000247955322265625
ell 18, elapsed: 0.0002460479736328125
ell 17, elapsed: 0.0002460479736328125
ell 16, elapsed: 0.0002491474151611328
ell 15, elapsed: 0.00024199485778808594
ell 14, elapsed: 0.000247955322265625
ell 13, elapsed: 0.0002460479736328125
ell 12, elapsed: 0.00024700164794921875
ell 11, elapsed: 0.00024580955505371094
ell 10, elapsed: 0.0002460479736328125
ell 9, elapsed: 0.00024819374084472656
ell 8, elapsed: 0.00024509429931640625
ell 7, elapsed: 0.0002448558807373047
ell 6, elapsed: 0.0002658367156982422
ell 5, elapsed: 0.0002429485321044922
ell 4, elapsed: 0.00024819374084472656
ell 3, elapsed: 0.0002429485321044922
ell 2, elapsed: 0.0002448558807373047
ell 1, elapsed: 0.00025200843811035156
ell 0, elapsed: 0.0002460479736328125
  0.089121 seconds (11.51 k allocations: 719.594 KiB)
elapsed: 0.00030303001403808594
step:          0.045073 sec (0 allocations: 0 byte, 0.0% gc time)
swapping:      0.000227 sec (0 allocations: 0 byte, 0.0% gc time)
calc_Mellell!: 0.000602 sec (0 allocations: 0 byte, 0.0% gc time)
  t0 :  0.000195 sec (0 allocations: 0 byte, 0.0% gc time)
  tm2 : 0.010084 sec (0 allocations: 0 byte, 0.0% gc time)
  tm2s: 0.000146 sec (0 allocations: 0 byte, 0.0% gc time)
  tm4 : 0.02066 sec (0 allocations: 0 byte, 0.0% gc time)
  tp2 : 0.0 sec (0 allocations: 0 byte, 0.0% gc time)
  tp2s: 0.0 sec (0 allocations: 0 byte, 0.0% gc time)
  tp4 : 0.0 sec (0 allocations: 0 byte, 0.0% gc time)
calc_wtdll!:   0.03132 sec (1.344 k allocations: 147.0 KB, 0.0% gc time)
calc_wljj!:    0.001414 sec (6 allocations: 96 byte, 0.0% gc time)
mult_prefac!:  0.0 sec (0 allocations: 0 byte, 0.0% gc time)
convert:       0.0 sec (0 allocations: 0 byte, 0.0% gc time)
write:         0.002322 sec (0 allocations: 0 byte, 0.0% gc time)
test_rand_2f1: 0.0 sec (0 allocations: 0 byte, 0.0% gc time)
Closing outfile out/Ml21-cache.bin...   0.000007 seconds
  0.000201 seconds (36 allocations: 27.953 KiB)
make_phi():   0.001005 seconds (8.19 k allocations: 238.078 KiB)
  0.007504 seconds (11.65 k allocations: 308.688 KiB)
tskip:       1.0e-5 sec (0 allocations: 0 byte, 0.0% gc time)
tread:       0.001554 sec (17 allocations: 2.125 KB, 0.0% gc time)
tmultphi:    0.000545 sec (0 allocations: 0 byte, 0.0% gc time)
tbrfft:      0.002114 sec (0 allocations: 0 byte, 0.0% gc time)
tmultprefac: 0.001059 sec (0 allocations: 0 byte, 0.0% gc time)
toutfunc:    0.002099 sec (10.304 k allocations: 196.0 KB, 0.0% gc time)
Testing R=0.9 ... passed
Calculating fmax: 
  dlrec    = 4
  dlrecRg1 = -4
  q=1.1, R=0.8:	  0.185829 seconds (103.21 k allocations: 14.840 MiB, 7.43% gc time)

  0.186052 seconds (103.26 k allocations: 14.874 MiB, 7.42% gc time)
ℓ = 1202
Δℓ = 4
ΔℓRg1 = -4
N = 1600
q = 1.1
kmin = 1.0e-5
kmax = 100000.00000000004
χ0 = 0.023029999999999995
RR = RR.tsv
ℓmax = ℓmax.bin
f21 = f21.bin
kmin = 1.0e-5
kmax = 100000.0
dlrec    = 4
dlrecRg1 = -4
Output size: 5741568 bytes = 0.005347251892089844 GiB
Output size: 51264 bytes = 4.774332046508789e-5 GiB
Reading 'out/F21EllCache'...   0.000647 seconds (197 allocations: 84.203 KiB)
ellmax: 1202
lmaxcache: 1202
fell[:,1,1] = ComplexF64[7.519068145690986e-120 - 1.8416405474382574e-135im, 7.541664537386155e-120 - 1.847175067190611e-135im]
ell 1202, elapsed: 1.3828277587890625e-5
ell 1201, elapsed: 0.00023794174194335938
ell 1200, elapsed: 0.0002219676971435547
ell 1199, elapsed: 0.0002181529998779297
ell 1198, elapsed: 0.00021719932556152344
ell 1002, elapsed: 0.007745027542114258
ell 1001, elapsed: 0.0002510547637939453
ell 1000, elapsed: 0.0002720355987548828
ell 999, elapsed: 0.00022912025451660156
ell 998, elapsed: 0.00022912025451660156
ell 902, elapsed: 0.003922224044799805
ell 901, elapsed: 0.0002269744873046875
ell 900, elapsed: 0.00022292137145996094
ell 899, elapsed: 0.00021600723266601562
ell 898, elapsed: 0.0002238750457763672
ell 802, elapsed: 0.003921031951904297
ell 801, elapsed: 0.00023102760314941406
ell 800, elapsed: 0.00022983551025390625
ell 799, elapsed: 0.0002269744873046875
ell 798, elapsed: 0.00023102760314941406
ell 702, elapsed: 0.0038411617279052734
ell 701, elapsed: 0.000244140625
ell 700, elapsed: 0.0002300739288330078
ell 699, elapsed: 0.00023293495178222656
ell 698, elapsed: 0.00022292137145996094
ell 602, elapsed: 0.0038809776306152344
ell 601, elapsed: 0.00023102760314941406
ell 600, elapsed: 0.0002300739288330078
ell 599, elapsed: 0.0002620220184326172
ell 598, elapsed: 0.00022792816162109375
ell 502, elapsed: 0.0038518905639648438
ell 501, elapsed: 0.0002319812774658203
ell 500, elapsed: 0.00022602081298828125
ell 499, elapsed: 0.0002269744873046875
ell 498, elapsed: 0.00022482872009277344
ell 402, elapsed: 0.0038521289825439453
ell 401, elapsed: 0.00023412704467773438
ell 400, elapsed: 0.00022912025451660156
ell 399, elapsed: 0.0002269744873046875
ell 398, elapsed: 0.0002288818359375
ell 302, elapsed: 0.003857135772705078
ell 301, elapsed: 0.00023484230041503906
ell 300, elapsed: 0.00022912025451660156
ell 299, elapsed: 0.00022792816162109375
ell 298, elapsed: 0.0002269744873046875
ell 202, elapsed: 0.003876924514770508
ell 201, elapsed: 0.0002319812774658203
ell 200, elapsed: 0.00022792816162109375
ell 199, elapsed: 0.00022792816162109375
ell 198, elapsed: 0.0002300739288330078
ell 152, elapsed: 0.0019648075103759766
ell 151, elapsed: 0.00022792816162109375
ell 150, elapsed: 0.00022792816162109375
ell 149, elapsed: 0.00022602081298828125
ell 148, elapsed: 0.00022602081298828125
ell 127, elapsed: 0.0010120868682861328
ell 126, elapsed: 0.00023984909057617188
ell 125, elapsed: 0.00022912025451660156
ell 124, elapsed: 0.00022792816162109375
ell 123, elapsed: 0.00022602081298828125
ell 114, elapsed: 0.0005590915679931641
ell 113, elapsed: 0.0002238750457763672
ell 112, elapsed: 0.00022411346435546875
ell 111, elapsed: 0.0002238750457763672
ell 110, elapsed: 0.0002269744873046875
ell 102, elapsed: 0.0005099773406982422
ell 101, elapsed: 0.00022101402282714844
ell 100, elapsed: 0.0002231597900390625
ell 99, elapsed: 0.0002231597900390625
ell 98, elapsed: 0.0002219676971435547
ell 97, elapsed: 0.0002868175506591797
ell 96, elapsed: 0.0002541542053222656
ell 95, elapsed: 0.0002598762512207031
ell 94, elapsed: 0.00025391578674316406
ell 93, elapsed: 0.0002510547637939453
ell 92, elapsed: 0.00025391578674316406
ell 91, elapsed: 0.00025391578674316406
ell 90, elapsed: 0.0002532005310058594
ell 89, elapsed: 0.0002570152282714844
ell 88, elapsed: 0.0002589225769042969
ell 87, elapsed: 0.00025200843811035156
ell 86, elapsed: 0.0002579689025878906
ell 85, elapsed: 0.00025200843811035156
ell 84, elapsed: 0.0002551078796386719
ell 83, elapsed: 0.00025081634521484375
ell 82, elapsed: 0.0002779960632324219
ell 81, elapsed: 0.0002551078796386719
ell 80, elapsed: 0.00025081634521484375
ell 79, elapsed: 0.0002551078796386719
[...]
ell 612, elapsed: 0.0007419586181640625
ell 611, elapsed: 0.00046896934509277344
ell 610, elapsed: 0.00047087669372558594
ell 609, elapsed: 0.0004889965057373047
ell 608, elapsed: 0.00047397613525390625
ell 602, elapsed: 0.00074005126953125
ell 601, elapsed: 0.0004649162292480469
ell 600, elapsed: 0.00047016143798828125
ell 599, elapsed: 0.0004639625549316406
ell 598, elapsed: 0.0004749298095703125
ell 592, elapsed: 0.0007879734039306641
ell 591, elapsed: 0.0004630088806152344
ell 590, elapsed: 0.0004749298095703125
ell 589, elapsed: 0.00046515464782714844
ell 588, elapsed: 0.0004718303680419922
ell 582, elapsed: 0.0007531642913818359
ell 581, elapsed: 0.0004649162292480469
ell 580, elapsed: 0.0004990100860595703
ell 579, elapsed: 0.0004851818084716797
ell 578, elapsed: 0.00047397613525390625
ell 572, elapsed: 0.0007488727569580078
ell 571, elapsed: 0.0004608631134033203
ell 570, elapsed: 0.0004680156707763672
ell 569, elapsed: 0.0004620552062988281
ell 568, elapsed: 0.00046706199645996094
ell 562, elapsed: 0.0008680820465087891
ell 561, elapsed: 0.0004680156707763672
ell 560, elapsed: 0.00047898292541503906
ell 559, elapsed: 0.0004930496215820312
ell 558, elapsed: 0.00047206878662109375
ell 552, elapsed: 0.00074005126953125
ell 551, elapsed: 0.0004611015319824219
ell 550, elapsed: 0.0005090236663818359
ell 549, elapsed: 0.0004630088806152344
ell 548, elapsed: 0.0004699230194091797
ell 542, elapsed: 0.0007479190826416016
ell 541, elapsed: 0.0004630088806152344
ell 540, elapsed: 0.0004699230194091797
ell 539, elapsed: 0.0004642009735107422
ell 538, elapsed: 0.0005018711090087891
ell 532, elapsed: 0.0007429122924804688
ell 531, elapsed: 0.0004680156707763672
ell 530, elapsed: 0.00046706199645996094
ell 529, elapsed: 0.0004620552062988281
ell 528, elapsed: 0.0004668235778808594
ell 522, elapsed: 0.0007522106170654297
ell 521, elapsed: 0.0004839897155761719
ell 520, elapsed: 0.0004749298095703125
ell 519, elapsed: 0.0004611015319824219
ell 518, elapsed: 0.00046896934509277344
ell 512, elapsed: 0.0007429122924804688
ell 511, elapsed: 0.00045800209045410156
ell 510, elapsed: 0.0004699230194091797
ell 509, elapsed: 0.0004608631134033203
ell 508, elapsed: 0.0005071163177490234
ell 502, elapsed: 0.0007350444793701172
ell 501, elapsed: 0.0004589557647705078
ell 500, elapsed: 0.0004630088806152344
ell 499, elapsed: 0.0004620552062988281
ell 498, elapsed: 0.0004649162292480469
ell 492, elapsed: 0.0007369518280029297
ell 491, elapsed: 0.0004818439483642578
ell 490, elapsed: 0.0004680156707763672
ell 489, elapsed: 0.0004611015319824219
ell 488, elapsed: 0.0004780292510986328
ell 482, elapsed: 0.0007479190826416016
ell 481, elapsed: 0.00045990943908691406
ell 480, elapsed: 0.00047206878662109375
ell 479, elapsed: 0.0004570484161376953
ell 478, elapsed: 0.0005018711090087891
ell 472, elapsed: 0.0007419586181640625
ell 471, elapsed: 0.00047016143798828125
ell 470, elapsed: 0.0004630088806152344
ell 469, elapsed: 0.00045680999755859375
ell 468, elapsed: 0.0004620552062988281
ell 462, elapsed: 0.0007250308990478516
ell 461, elapsed: 0.0004911422729492188
ell 460, elapsed: 0.00047397613525390625
ell 459, elapsed: 0.00045800209045410156
ell 458, elapsed: 0.00046706199645996094
ell 452, elapsed: 0.0007328987121582031
ell 451, elapsed: 0.0004520416259765625
ell 450, elapsed: 0.0004639625549316406
ell 449, elapsed: 0.0004520416259765625
ell 448, elapsed: 0.00048804283142089844
ell 442, elapsed: 0.0007138252258300781
ell 441, elapsed: 0.0004570484161376953
ell 440, elapsed: 0.00045800209045410156
ell 439, elapsed: 0.0004570484161376953
ell 438, elapsed: 0.0004620552062988281
ell 432, elapsed: 0.0007259845733642578
ell 431, elapsed: 0.0004968643188476562
ell 430, elapsed: 0.0004742145538330078
ell 429, elapsed: 0.0004642009735107422
ell 428, elapsed: 0.00047206878662109375
ell 422, elapsed: 0.0007359981536865234
ell 421, elapsed: 0.000453948974609375
ell 420, elapsed: 0.0004718303680419922
ell 419, elapsed: 0.0004620552062988281
ell 418, elapsed: 0.0004940032958984375
ell 412, elapsed: 0.0007319450378417969
ell 411, elapsed: 0.000453948974609375
ell 410, elapsed: 0.0004591941833496094
ell 409, elapsed: 0.00045680999755859375
ell 408, elapsed: 0.00046515464782714844
ell 402, elapsed: 0.0007441043853759766
ell 401, elapsed: 0.0004909038543701172
ell 400, elapsed: 0.00046706199645996094
ell 399, elapsed: 0.00045609474182128906
ell 398, elapsed: 0.0004668235778808594
ell 392, elapsed: 0.0007390975952148438
ell 391, elapsed: 0.00045990943908691406
ell 390, elapsed: 0.0004661083221435547
ell 389, elapsed: 0.0004940032958984375
ell 388, elapsed: 0.0004649162292480469
ell 382, elapsed: 0.0007519721984863281
ell 381, elapsed: 0.000457763671875
ell 380, elapsed: 0.0004680156707763672
ell 379, elapsed: 0.0004611015319824219
ell 378, elapsed: 0.00046896934509277344
ell 372, elapsed: 0.0007381439208984375
ell 371, elapsed: 0.0005171298980712891
ell 370, elapsed: 0.0005109310150146484
ell 369, elapsed: 0.0005259513854980469
ell 368, elapsed: 0.0004608631134033203
ell 362, elapsed: 0.0007419586181640625
ell 361, elapsed: 0.0004591941833496094
ell 360, elapsed: 0.000476837158203125
ell 359, elapsed: 0.0006101131439208984
ell 358, elapsed: 0.00046896934509277344
ell 352, elapsed: 0.0007560253143310547
ell 351, elapsed: 0.0004601478576660156
ell 350, elapsed: 0.0004699230194091797
ell 349, elapsed: 0.0004661083221435547
ell 348, elapsed: 0.0004730224609375
ell 342, elapsed: 0.0007770061492919922
ell 341, elapsed: 0.0004570484161376953
ell 340, elapsed: 0.00046896934509277344
ell 339, elapsed: 0.0004589557647705078
ell 338, elapsed: 0.00047206878662109375
ell 332, elapsed: 0.0007290840148925781
ell 331, elapsed: 0.00045609474182128906
ell 330, elapsed: 0.0004630088806152344
ell 329, elapsed: 0.0005550384521484375
ell 328, elapsed: 0.0004699230194091797
ell 322, elapsed: 0.0008141994476318359
ell 321, elapsed: 0.0005259513854980469
ell 320, elapsed: 0.0005548000335693359
ell 319, elapsed: 0.0005550384521484375
ell 318, elapsed: 0.0005879402160644531
ell 312, elapsed: 0.004133939743041992
ell 311, elapsed: 0.0004930496215820312
ell 310, elapsed: 0.0005059242248535156
ell 309, elapsed: 0.003609895706176758
ell 308, elapsed: 0.0008311271667480469
ell 302, elapsed: 0.0013270378112792969
ell 301, elapsed: 0.0009200572967529297
ell 300, elapsed: 0.0008220672607421875
ell 299, elapsed: 0.0008111000061035156
ell 298, elapsed: 0.0008258819580078125
ell 292, elapsed: 0.0011420249938964844
ell 291, elapsed: 0.0007131099700927734
ell 290, elapsed: 0.0006990432739257812
ell 289, elapsed: 0.0006821155548095703
ell 288, elapsed: 0.0007219314575195312
ell 282, elapsed: 0.001085042953491211
ell 281, elapsed: 0.0007929801940917969
ell 280, elapsed: 0.0007009506225585938
ell 279, elapsed: 0.0006780624389648438
ell 278, elapsed: 0.0006871223449707031
ell 272, elapsed: 0.0010650157928466797
ell 271, elapsed: 0.0005891323089599609
ell 270, elapsed: 0.0004668235778808594
ell 269, elapsed: 0.0004570484161376953
ell 268, elapsed: 0.00046515464782714844
ell 262, elapsed: 0.0007410049438476562
ell 261, elapsed: 0.0004489421844482422
ell 260, elapsed: 0.0004649162292480469
ell 259, elapsed: 0.00047087669372558594
ell 258, elapsed: 0.0004680156707763672
ell 252, elapsed: 0.0007491111755371094
ell 251, elapsed: 0.0004570484161376953
ell 250, elapsed: 0.00046706199645996094
ell 249, elapsed: 0.0004589557647705078
ell 248, elapsed: 0.0004630088806152344
ell 242, elapsed: 0.0008120536804199219
ell 241, elapsed: 0.0004658699035644531
ell 240, elapsed: 0.0004680156707763672
ell 239, elapsed: 0.00045299530029296875
ell 238, elapsed: 0.00046706199645996094
ell 232, elapsed: 0.0007779598236083984
ell 231, elapsed: 0.00045990943908691406
ell 230, elapsed: 0.0004661083221435547
ell 229, elapsed: 0.0004999637603759766
ell 228, elapsed: 0.0004630088806152344
ell 222, elapsed: 0.000782012939453125
ell 221, elapsed: 0.00045299530029296875
ell 220, elapsed: 0.0004601478576660156
ell 219, elapsed: 0.000453948974609375
ell 218, elapsed: 0.0004680156707763672
ell 212, elapsed: 0.0008399486541748047
ell 211, elapsed: 0.0004611015319824219
ell 210, elapsed: 0.0004658699035644531
ell 209, elapsed: 0.00045490264892578125
ell 208, elapsed: 0.0004680156707763672
ell 202, elapsed: 0.000759124755859375
ell 201, elapsed: 0.0004520416259765625
ell 200, elapsed: 0.0005090236663818359
ell 199, elapsed: 0.00046181678771972656
ell 198, elapsed: 0.000469207763671875
ell 192, elapsed: 0.0007781982421875
ell 191, elapsed: 0.0004589557647705078
ell 190, elapsed: 0.00046706199645996094
ell 189, elapsed: 0.0004570484161376953
ell 188, elapsed: 0.00046896934509277344
ell 182, elapsed: 0.0008070468902587891
ell 181, elapsed: 0.0004589557647705078
ell 180, elapsed: 0.0004680156707763672
ell 179, elapsed: 0.00045800209045410156
ell 178, elapsed: 0.0004699230194091797
ell 172, elapsed: 0.0007650852203369141
ell 171, elapsed: 0.00045490264892578125
ell 170, elapsed: 0.0005021095275878906
ell 169, elapsed: 0.0004570484161376953
ell 168, elapsed: 0.00046181678771972656
ell 162, elapsed: 0.0007739067077636719
ell 161, elapsed: 0.0004570484161376953
ell 160, elapsed: 0.0004630088806152344
ell 159, elapsed: 0.00045609474182128906
ell 158, elapsed: 0.0004630088806152344
ell 152, elapsed: 0.0008118152618408203
ell 151, elapsed: 0.00045990943908691406
ell 150, elapsed: 0.0004649162292480469
ell 149, elapsed: 0.00045800209045410156
ell 148, elapsed: 0.00046706199645996094
ell 142, elapsed: 0.0007848739624023438
ell 141, elapsed: 0.0004570484161376953
ell 140, elapsed: 0.0005011558532714844
ell 139, elapsed: 0.0004630088806152344
ell 138, elapsed: 0.0004658699035644531
ell 132, elapsed: 0.0007719993591308594
ell 131, elapsed: 0.000453948974609375
ell 130, elapsed: 0.0004589557647705078
ell 129, elapsed: 0.00045108795166015625
ell 128, elapsed: 0.0005099773406982422
ell 122, elapsed: 0.000782012939453125
ell 121, elapsed: 0.00045490264892578125
ell 120, elapsed: 0.0004520416259765625
ell 119, elapsed: 0.0004520416259765625
ell 118, elapsed: 0.0004611015319824219
ell 112, elapsed: 0.0007681846618652344
ell 111, elapsed: 0.00047206878662109375
ell 110, elapsed: 0.00045990943908691406
ell 109, elapsed: 0.00045299530029296875
ell 108, elapsed: 0.00045490264892578125
ell 102, elapsed: 0.0007801055908203125
ell 101, elapsed: 0.0020139217376708984
ell 100, elapsed: 0.0019729137420654297
ell 99, elapsed: 0.001990795135498047
ell 98, elapsed: 0.0019769668579101562
ell 92, elapsed: 0.003941059112548828
ell 91, elapsed: 0.0020990371704101562
ell 90, elapsed: 0.002007007598876953
ell 89, elapsed: 0.002028942108154297
ell 88, elapsed: 0.0020241737365722656
ell 82, elapsed: 0.003957986831665039
ell 81, elapsed: 0.002034902572631836
ell 80, elapsed: 0.001995086669921875
ell 79, elapsed: 0.0020198822021484375
ell 78, elapsed: 0.0020139217376708984
ell 72, elapsed: 0.0039789676666259766
ell 71, elapsed: 0.0020520687103271484
ell 70, elapsed: 0.0019991397857666016
ell 69, elapsed: 0.002026081085205078
ell 68, elapsed: 0.0019979476928710938
ell 62, elapsed: 0.003983020782470703
ell 61, elapsed: 0.002054929733276367
ell 60, elapsed: 0.0020189285278320312
ell 59, elapsed: 0.0020380020141601562
ell 58, elapsed: 0.0020041465759277344
ell 52, elapsed: 0.00397491455078125
ell 51, elapsed: 0.0020678043365478516
ell 50, elapsed: 0.0020241737365722656
ell 49, elapsed: 0.002028942108154297
ell 48, elapsed: 0.002000093460083008
ell 42, elapsed: 0.003962993621826172
ell 41, elapsed: 0.002007007598876953
ell 40, elapsed: 0.002000093460083008
ell 39, elapsed: 0.0020329952239990234
ell 38, elapsed: 0.0020020008087158203
ell 32, elapsed: 0.003981828689575195
ell 31, elapsed: 0.0020389556884765625
ell 30, elapsed: 0.0020051002502441406
ell 29, elapsed: 0.0020241737365722656
ell 28, elapsed: 0.002026081085205078
ell 22, elapsed: 0.004141092300415039
ell 21, elapsed: 0.002087831497192383
ell 20, elapsed: 0.0020079612731933594
ell 19, elapsed: 0.0020380020141601562
ell 18, elapsed: 0.0020089149475097656
ell 12, elapsed: 0.0040400028228759766
ell 11, elapsed: 0.0020110607147216797
ell 10, elapsed: 0.002012968063354492
ell 9, elapsed: 0.001984119415283203
ell 8, elapsed: 0.0020051002502441406
  0.441173 seconds (68.56 k allocations: 12.176 MiB, 2.08% gc time)
elapsed: 0.0025119781494140625
step:          0.037722 sec (0 allocations: 0 byte, 0.0% gc time)
swapping:      0.000262 sec (0 allocations: 0 byte, 0.0% gc time)
calc_Mellell!: 0.014149 sec (0 allocations: 0 byte, 0.0% gc time)
  t0 :  0.005017 sec (0 allocations: 0 byte, 0.0% gc time)
  tm2 : 0.044149 sec (0 allocations: 0 byte, 0.0% gc time)
  tm2s: 0.004339 sec (0 allocations: 0 byte, 0.0% gc time)
  tm4 : 0.088331 sec (0 allocations: 0 byte, 0.0% gc time)
  tp2 : 0.0 sec (0 allocations: 0 byte, 0.0% gc time)
  tp2s: 0.0 sec (0 allocations: 0 byte, 0.0% gc time)
  tp4 : 0.0 sec (0 allocations: 0 byte, 0.0% gc time)
calc_wtdll!:   0.332827 sec (48.6 k allocations: 11.096 MB, 2.75% gc time)
calc_wljj!:    0.013904 sec (69 allocations: 1.078 KB, 0.0% gc time)
mult_prefac!:  0.0 sec (0 allocations: 0 byte, 0.0% gc time)
convert:       0.0 sec (0 allocations: 0 byte, 0.0% gc time)
write:         0.017473 sec (0 allocations: 0 byte, 0.0% gc time)
test_rand_2f1: 0.0 sec (0 allocations: 0 byte, 0.0% gc time)
Closing outfile out/MlCache/MlCache.bin...   0.000007 seconds
xi, l=0, nu=0:   0.222807 seconds (615.19 k allocations: 34.065 MiB, 99.38% compilation time)
xi, l=0, nu=-2:  0.001067 seconds (114 allocations: 148.969 KiB)
Created 'out/xi.tsv'.
  q=1.1, R=0.6:	  0.362694 seconds (264.58 k allocations: 38.109 MiB, 4.68% gc time)
  q=1.1, R=0.7:	  0.413931 seconds (276.43 k allocations: 40.113 MiB, 2.44% gc time)
  q=1.1, R=0.8:	  0.431204 seconds (271.87 k allocations: 39.334 MiB, 1.45% gc time)
  q=1.1, R=0.9:	  0.479618 seconds (266.68 k allocations: 38.464 MiB, 1.33% gc time)
  q=1.1, R=0.998:	  9.984711 seconds (114.96 k allocations: 7.588 MiB)
  q=1.1, R=1.0:	  0.002173 seconds (8.20 k allocations: 704.344 KiB)

ℓ = 1000
Δℓ = 4
ΔℓRg1 = -4
N = 4096
q = 1.1
kmin = 1.0e-5
kmax = 1000.0
χ0 = 0.001
RR = RR.tsv
ℓmax = ℓmax.bin
f21 = f21.bin
kmin = 1.0e-5
kmax = 1000.0
dlrec    = 4
dlrecRg1 = -4
Output size: 1573632 bytes = 0.0014655590057373047 GiB
Output size: 786816 bytes = 0.0007327795028686523 GiB
Reading 'out/F21EllCache'...   0.000846 seconds (198 allocations: 533.078 KiB)
ellmax: 1002
lmaxcache: 1000
fell[:,1,1] = ComplexF64[1.726292812820208e-224 - 4.2281979352226965e-240im, 1.7282693092099638e-224 - 4.233038955177178e-240im]
ell 1002, elapsed: 1.7881393432617188e-5
ell 1001, elapsed: 0.0003361701965332031
ell 1000, elapsed: 0.00032401084899902344
ell 999, elapsed: 0.003284931182861328
ell 998, elapsed: 0.003353118896484375
ell 44, elapsed: 0.5487170219421387
ell 43, elapsed: 0.0034241676330566406
ell 42, elapsed: 0.003378152847290039
ell 41, elapsed: 0.0032529830932617188
ell 40, elapsed: 0.003258943557739258
  0.573402 seconds (4.59 k allocations: 322.266 KiB)
elapsed: 0.003962993621826172
step:          0.548376 sec (0 allocations: 0 byte, 0.0% gc time)
swapping:      0.000229 sec (0 allocations: 0 byte, 0.0% gc time)
calc_Mellell!: 0.000477 sec (0 allocations: 0 byte, 0.0% gc time)
  t0 :  0.00018 sec (0 allocations: 0 byte, 0.0% gc time)
  tm2 : 0.007016 sec (0 allocations: 0 byte, 0.0% gc time)
  tm2s: 0.00016 sec (0 allocations: 0 byte, 0.0% gc time)
  tm4 : 0.014438 sec (0 allocations: 0 byte, 0.0% gc time)
  tp2 : 0.0 sec (0 allocations: 0 byte, 0.0% gc time)
  tp2s: 0.0 sec (0 allocations: 0 byte, 0.0% gc time)
  tp4 : 0.0 sec (0 allocations: 0 byte, 0.0% gc time)
calc_wtdll!:   0.021858 sec (480 allocations: 52.5 KB, 0.0% gc time)
calc_wljj!:    0.000468 sec (1 allocations: 16 byte, 0.0% gc time)
mult_prefac!:  0.0 sec (0 allocations: 0 byte, 0.0% gc time)
convert:       0.0 sec (0 allocations: 0 byte, 0.0% gc time)
write:         0.000605 sec (0 allocations: 0 byte, 0.0% gc time)
test_rand_2f1: 0.0 sec (0 allocations: 0 byte, 0.0% gc time)
Closing outfile out/MlCache/MlCache.bin...   0.000007 seconds
  0.312239 seconds (38 allocations: 66.859 KiB)
make_phi():   0.004577 seconds (65 allocations: 275.984 KiB)
  0.032000 seconds (11.83 k allocations: 740.085 KiB, 92.33% compilation time)
tskip:       0.0 sec (0 allocations: 0 byte, 0.0% gc time)
tread:       0.000489 sec (17 allocations: 1.266 KB, 0.0% gc time)
tmultphi:    0.000155 sec (0 allocations: 0 byte, 0.0% gc time)
tbrfft:      0.000715 sec (0 allocations: 0 byte, 0.0% gc time)
tmultprefac: 0.000309 sec (0 allocations: 0 byte, 0.0% gc time)
toutfunc:    6.2e-5 sec (0 allocations: 0 byte, 0.0% gc time)
Created 'out/wl42_jj00.tsv'.
Created 'out/wl42_jj02.tsv'.
     Testing TwoFAST tests passed 

PkgEval succeeded


################################################################################
# PkgEval teardown: 2020-10-29T04:36:20.019
CPU usage: 117.75s (112.72s user, 5.32s kernel)

Network usage:
- eth0: 24.009 MiB received, 368.180 KiB sent

Raw statistics: {"blkio_stats":{"io_queue_recursive":[],"io_serviced_recursive":[{"major":259,"value":0,"op":"Read","minor":0},{"major":259,"value":13,"op":"Write","minor":0},{"major":259,"value":0,"op":"Sync","minor":0},{"major":259,"value":13,"op":"Async","minor":0},{"major":259,"value":13,"op":"Total","minor":0},{"major":253,"value":0,"op":"Read","minor":2},{"major":253,"value":13,"op":"Write","minor":2},{"major":253,"value":0,"op":"Sync","minor":2},{"major":253,"value":13,"op":"Async","minor":2},{"major":253,"value":13,"op":"Total","minor":2}],"io_time_recursive":[],"sectors_recursive":[],"io_service_bytes_recursive":[{"major":259,"value":0,"op":"Read","minor":0},{"major":259,"value":61440,"op":"Write","minor":0},{"major":259,"value":0,"op":"Sync","minor":0},{"major":259,"value":61440,"op":"Async","minor":0},{"major":259,"value":61440,"op":"Total","minor":0},{"major":253,"value":0,"op":"Read","minor":2},{"major":253,"value":61440,"op":"Write","minor":2},{"major":253,"value":0,"op":"Sync","minor":2},{"major":253,"value":61440,"op":"Async","minor":2},{"major":253,"value":61440,"op":"Total","minor":2}],"io_wait_time_recursive":[],"io_merged_recursive":[],"io_service_time_recursive":[]},"memory_stats":{"usage":316022784,"max_usage":924930048,"stats":{"hierarchical_memory_limit":9223372036854771712,"pgmajfault":0,"total_rss":203632640,"inactive_file":8192,"inactive_anon":49627136,"total_pgfault":1674922,"total_cache":105607168,"total_rss_huge":0,"total_active_anon":259596288,"total_pgmajfault":0,"pgpgin":1053832,"rss_huge":0,"mapped_file":0,"total_inactive_file":8192,"dirty":0,"total_unevictable":0,"total_dirty":0,"writeback":0,"pgpgout":978334,"hierarchical_memsw_limit":0,"cache":105607168,"active_file":0,"pgfault":1674922,"total_mapped_file":0,"total_pgpgout":978334,"total_writeback":0,"rss":203632640,"unevictable":0,"total_inactive_anon":49627136,"total_pgpgin":1053832,"active_anon":259596288,"total_active_file":0},"limit":540972998656},"name":"/TwoFAST-xc2YsW61","networks":{"eth0":{"rx_bytes":25175429,"rx_packets":10606,"tx_packets":5674,"tx_bytes":377016,"tx_dropped":0,"rx_dropped":3,"tx_errors":0,"rx_errors":0}},"id":"c08dc65e4a8557901cc5dea13313c44100d228ef8cf503f4e82ef962f1be8843","preread":"0001-01-01T00:00:00Z","storage_stats":{},"precpu_stats":{"throttling_data":{"throttled_periods":0,"throttled_time":0,"periods":0},"cpu_usage":{"usage_in_usermode":0,"usage_in_kernelmode":0,"total_usage":0}},"pids_stats":{"current":38},"num_procs":0,"cpu_stats":{"throttling_data":{"throttled_periods":0,"throttled_time":0,"periods":0},"system_cpu_usage":101866913540000000,"online_cpus":128,"cpu_usage":{"usage_in_usermode":112720000000,"usage_in_kernelmode":5320000000,"total_usage":117751936615,"percpu_usage":[0,0,0,0,0,0,0,0,0,0,0,0,0,0,0,0,0,0,0,0,0,0,0,0,0,0,0,0,0,0,0,0,0,0,0,0,0,0,0,0,0,0,0,0,0,117748374974,0,0,0,0,0,0,0,0,0,0,0,0,0,0,0,0,0,0,0,0,0,0,0,0,0,0,0,0,0,0,0,0,0,0,0,0,0,0,0,0,0,0,0,0,0,0,0,0,0,0,0,0,0,0,0,0,0,0,0,0,0,0,0,3561641,0,0,0,0,0,0,0,0,0,0,0,0,0,0,0,0,0,0]}},"read":"2020-10-29T04:36:20.115685067Z"}