Julia Version 1.6.0-DEV.1166
Commit 5f9098a15c (2020-10-09 07:39 UTC)
Platform Info:
  OS: Linux (x86_64-linux-gnu)
  CPU: AMD EPYC 7502 32-Core Processor
  WORD_SIZE: 64
  LIBM: libopenlibm
  LLVM: libLLVM-10.0.1 (ORCJIT, znver2)
Environment:
  JULIA_DEPOT_PATH = ::/usr/local/share/julia
  JULIA_NUM_THREADS = 2
  JULIA_MAX_NUM_PRECOMPILE_FILES = 9223372036854775807

  Resolving package versions...
  Installed IntelOpenMP_jll ────────────── v2018.0.3+0
  Installed OpenSpecFun_jll ────────────── v0.5.3+3
  Installed MKL_jll ────────────────────── v2020.2.254+0
  Installed GenericSVD ─────────────────── v0.3.0
  Installed SpecialFunctions ───────────── v0.10.3
  Installed FFTW ───────────────────────── v1.2.4
  Installed GenericSchur ───────────────── v0.4.0
  Installed AbstractFFTs ───────────────── v0.5.0
  Installed Reexport ───────────────────── v0.2.0
  Installed FFTW_jll ───────────────────── v3.3.9+5
  Installed TwoFAST ────────────────────── v0.1.3
  Installed CompilerSupportLibraries_jll ─ v0.3.3+0
  Installed Readables ──────────────────── v0.3.3
  Installed BinaryProvider ─────────────── v0.5.10
  Installed ArbNumerics ────────────────── v1.2.1
Updating `~/.julia/environments/v1.6/Project.toml`
  [0dd23c3e] + TwoFAST v0.1.3
Updating `~/.julia/environments/v1.6/Manifest.toml`
  [621f4979] + AbstractFFTs v0.5.0
  [7e558dbc] + ArbNumerics v1.2.1
  [b99e7846] + BinaryProvider v0.5.10
  [e66e0078] + CompilerSupportLibraries_jll v0.3.3+0
  [7a1cc6ca] + FFTW v1.2.4
  [f5851436] + FFTW_jll v3.3.9+5
  [01680d73] + GenericSVD v0.3.0
  [c145ed77] + GenericSchur v0.4.0
  [1d5cc7b8] + IntelOpenMP_jll v2018.0.3+0
  [856f044c] + MKL_jll v2020.2.254+0
  [efe28fd5] + OpenSpecFun_jll v0.5.3+3
  [0d4725de] + Readables v0.3.3
  [189a3867] + Reexport v0.2.0
  [276daf66] + SpecialFunctions v0.10.3
  [0dd23c3e] + TwoFAST v0.1.3
  [56f22d72] + Artifacts
  [2a0f44e3] + Base64
  [ade2ca70] + Dates
  [8bb1440f] + DelimitedFiles
  [b77e0a4c] + InteractiveUtils
  [76f85450] + LibGit2
  [8f399da3] + Libdl
  [37e2e46d] + LinearAlgebra
  [56ddb016] + Logging
  [d6f4376e] + Markdown
  [a63ad114] + Mmap
  [44cfe95a] + Pkg
  [de0858da] + Printf
  [3fa0cd96] + REPL
  [9a3f8284] + Random
  [ea8e919c] + SHA
  [9e88b42a] + Serialization
  [6462fe0b] + Sockets
  [fa267f1f] + TOML
  [8dfed614] + Test
  [cf7118a7] + UUIDs
  [4ec0a83e] + Unicode
   Building FFTW ───────→ `~/.julia/scratchspaces/44cfe95a-1eb2-52ea-b672-e2afdf69b78f/8b7c16b56936047ca41bf25effa137ae0b381ae8/build.log`
   Building ArbNumerics → `~/.julia/scratchspaces/44cfe95a-1eb2-52ea-b672-e2afdf69b78f/329a81d67c64e3a51c176a243b6424fbe39213d0/build.log`
    Testing TwoFAST
Status `/tmp/jl_uUbsc0/Project.toml`
  [7e558dbc] ArbNumerics v1.2.1
  [39dd38d3] Dierckx v0.5.0
  [7a1cc6ca] FFTW v1.2.4
  [276daf66] SpecialFunctions v0.10.3
  [0dd23c3e] TwoFAST v0.1.3
  [8bb1440f] DelimitedFiles
  [37e2e46d] LinearAlgebra
  [56ddb016] Logging
  [8dfed614] Test
Status `/tmp/jl_uUbsc0/Manifest.toml`
  [621f4979] AbstractFFTs v0.5.0
  [7e558dbc] ArbNumerics v1.2.1
  [b99e7846] BinaryProvider v0.5.10
  [e66e0078] CompilerSupportLibraries_jll v0.3.3+0
  [39dd38d3] Dierckx v0.5.0
  [cd4c43a9] Dierckx_jll v0.0.1+0
  [7a1cc6ca] FFTW v1.2.4
  [f5851436] FFTW_jll v3.3.9+5
  [01680d73] GenericSVD v0.3.0
  [c145ed77] GenericSchur v0.4.0
  [1d5cc7b8] IntelOpenMP_jll v2018.0.3+0
  [856f044c] MKL_jll v2020.2.254+0
  [efe28fd5] OpenSpecFun_jll v0.5.3+3
  [0d4725de] Readables v0.3.3
  [189a3867] Reexport v0.2.0
  [276daf66] SpecialFunctions v0.10.3
  [0dd23c3e] TwoFAST v0.1.3
  [56f22d72] Artifacts
  [2a0f44e3] Base64
  [ade2ca70] Dates
  [8bb1440f] DelimitedFiles
  [b77e0a4c] InteractiveUtils
  [76f85450] LibGit2
  [8f399da3] Libdl
  [37e2e46d] LinearAlgebra
  [56ddb016] Logging
  [d6f4376e] Markdown
  [a63ad114] Mmap
  [44cfe95a] Pkg
  [de0858da] Printf
  [3fa0cd96] REPL
  [9a3f8284] Random
  [ea8e919c] SHA
  [9e88b42a] Serialization
  [6462fe0b] Sockets
  [fa267f1f] TOML
  [8dfed614] Test
  [cf7118a7] UUIDs
  [4ec0a83e] Unicode
    Testing Running tests...
WARNING: could not import Printf.ini_hex into ArbNumerics
WARNING: could not import Printf.ini_HEX into ArbNumerics
t = 0.0 sec (0 allocations: 0 byte, 0.0% gc time)
typeof(t) = NamedTuple{(:value, :time, :bytes, :gctime, :gcstats), Tuple{DataType, Float64, Int64, Float64, Base.GC_Diff}}
TwoFAST.PerformanceStats.TimedType = Union{NamedTuple{(:value, :time, :bytes, :gctime, :gcstats), Tuple{T, Float64, Int64, Float64, Base.GC_Diff}}, Tuple{Any, Float64, Int64, Float64, Base.GC_Diff}} where T
t = 0.0 sec (0 allocations: 0 byte, 0.0% gc time)
t: 0.0 sec (0 allocations: 0 byte, 0.0% gc time)
Testing ξ(r), ℓ=0, ν=-1 ... passed
Testing ξ(r), ℓ=0, ν=0 ... passed
Testing ξ(r), ℓ=0, ν=1 ... passed
Testing ξ(r), ℓ=0, ν=2 ... passed
Testing ξ(r), ℓ=0, ν=3 ... passed
Testing ξ(r), ℓ=1, ν=0 ... passed
Testing ξ(r), ℓ=1, ν=1 ... passed
Testing ξ(r), ℓ=1, ν=2 ... passed
Testing ξ(r), ℓ=1, ν=3 ... passed
Testing ξ(r), ℓ=2, ν=-1 ... passed
Testing ξ(r), ℓ=2, ν=0 ... passed
Testing ξ(r), ℓ=2, ν=1 ... passed
Testing ξ(r), ℓ=2, ν=2 ... passed
Testing ξ(r), ℓ=2, ν=3 ... passed
Testing ξ(r), ℓ=3, ν=-1 ... passed
Testing ξ(r), ℓ=3, ν=0 ... passed
Testing ξ(r), ℓ=3, ν=1 ... passed
Testing ξ(r), ℓ=3, ν=2 ... passed
Testing ξ(r), ℓ=3, ν=3 ... passed
Testing ξ(r), ℓ=4, ν=-1 ... passed
Testing ξ(r), ℓ=4, ν=0 ... passed
Testing ξ(r), ℓ=4, ν=1 ... passed
Testing ξ(r), ℓ=4, ν=2 ... passed
Testing ξ(r), ℓ=4, ν=3 ... passed
Testing ξ(r) ... passed
Testing ξ′(r) ... passed
Testing ξ″(r) ... passed
Calculating fmax: 
  dlrec    = 4
  dlrecRg1 = -4
  q=1.1, R=1.1:	  3.515576 seconds (843.97 k allocations: 53.961 MiB, 2.05% gc time, 89.83% compilation time)

  3.519364 seconds (844.03 k allocations: 53.996 MiB, 2.05% gc time, 89.73% compilation time)
ℓ = 1202
Δℓ = 4
ΔℓRg1 = -4
N = 1600
q = 1.1
kmin = 1.0e-5
kmax = 100000.00000000004
χ0 = 0.023029999999999995
RR = RR.tsv
ℓmax = ℓmax.bin
f21 = f21.bin
kmin = 1.0e-5
kmax = 100000.0
dlrec    = 4
dlrecRg1 = -4
Output size: 5741568 bytes = 0.005347251892089844 GiB
Output size: 51264 bytes = 4.774332046508789e-5 GiB
Reading 'out/F21EllCache'...   0.835479 seconds (426.50 k allocations: 24.993 MiB, 95.87% compilation time)
ellmax: 1202
lmaxcache: 1202
fell[:,1,1] = ComplexF64[3.9583795592771634e-52 - 9.695233714158177e-68im, 3.990121772925759e-52 - 9.772979714843386e-68im]
ell 1202, elapsed: 3.3855438232421875e-5
ell 1201, elapsed: 1.4546840190887451
ell 1200, elapsed: 0.0005230903625488281
ell 1199, elapsed: 0.0003769397735595703
ell 1198, elapsed: 0.00039386749267578125
ell 1002, elapsed: 0.007944822311401367
ell 1001, elapsed: 0.0003979206085205078
ell 1000, elapsed: 0.0003719329833984375
ell 999, elapsed: 0.0003838539123535156
ell 998, elapsed: 0.00038504600524902344
ell 902, elapsed: 0.004230022430419922
ell 901, elapsed: 0.0004069805145263672
ell 900, elapsed: 0.00038123130798339844
ell 899, elapsed: 0.0003788471221923828
ell 898, elapsed: 0.0003838539123535156
ell 802, elapsed: 0.004190921783447266
ell 801, elapsed: 0.0003809928894042969
ell 800, elapsed: 0.0003809928894042969
ell 799, elapsed: 0.0003790855407714844
ell 798, elapsed: 0.00038504600524902344
ell 702, elapsed: 0.004141092300415039
ell 701, elapsed: 0.00037407875061035156
ell 700, elapsed: 0.00039005279541015625
ell 699, elapsed: 0.00037789344787597656
ell 698, elapsed: 0.00037288665771484375
ell 602, elapsed: 0.004239082336425781
ell 601, elapsed: 0.0003879070281982422
ell 600, elapsed: 0.0003800392150878906
ell 599, elapsed: 0.0003800392150878906
ell 598, elapsed: 0.0003719329833984375
ell 502, elapsed: 0.003988981246948242
ell 501, elapsed: 0.0003559589385986328
ell 500, elapsed: 0.00035190582275390625
ell 499, elapsed: 0.0003490447998046875
ell 498, elapsed: 0.00042891502380371094
ell 402, elapsed: 0.008107900619506836
ell 401, elapsed: 0.0004451274871826172
ell 400, elapsed: 0.0003859996795654297
ell 399, elapsed: 0.0003848075866699219
ell 398, elapsed: 0.0003829002380371094
ell 302, elapsed: 0.0044591426849365234
ell 301, elapsed: 0.0003979206085205078
ell 300, elapsed: 0.0003859996795654297
ell 299, elapsed: 0.0003859996795654297
ell 298, elapsed: 0.0005478858947753906
ell 202, elapsed: 0.004518032073974609
ell 201, elapsed: 0.0003941059112548828
ell 200, elapsed: 0.0003800392150878906
ell 199, elapsed: 0.0003829002380371094
ell 198, elapsed: 0.00038313865661621094
ell 152, elapsed: 0.0023200511932373047
ell 151, elapsed: 0.0003681182861328125
ell 150, elapsed: 0.0003600120544433594
ell 149, elapsed: 0.0003609657287597656
ell 148, elapsed: 0.00035881996154785156
ell 127, elapsed: 0.0011870861053466797
ell 126, elapsed: 0.0004940032958984375
ell 125, elapsed: 0.0003600120544433594
ell 124, elapsed: 0.00035691261291503906
ell 123, elapsed: 0.0003559589385986328
ell 114, elapsed: 0.0007150173187255859
ell 113, elapsed: 0.0003719329833984375
ell 112, elapsed: 0.0003619194030761719
ell 111, elapsed: 0.00036787986755371094
ell 110, elapsed: 0.0003628730773925781
ell 102, elapsed: 0.0007879734039306641
ell 101, elapsed: 0.00038909912109375
ell 100, elapsed: 0.0003809928894042969
ell 99, elapsed: 0.0003800392150878906
ell 98, elapsed: 0.0003809928894042969
ell 97, elapsed: 0.0004420280456542969
ell 96, elapsed: 0.0004210472106933594
ell 95, elapsed: 0.0004420280456542969
ell 94, elapsed: 0.0004239082336425781
ell 93, elapsed: 0.0004429817199707031
ell 92, elapsed: 0.0004260540008544922
ell 91, elapsed: 0.0004181861877441406
ell 90, elapsed: 0.0004220008850097656
ell 89, elapsed: 0.0004229545593261719
ell 88, elapsed: 0.0004220008850097656
ell 87, elapsed: 0.0004220008850097656
ell 86, elapsed: 0.00041985511779785156
ell 85, elapsed: 0.0004189014434814453
ell 84, elapsed: 0.0004420280456542969
ell 83, elapsed: 0.00041794776916503906
ell 82, elapsed: 0.00045013427734375
ell 81, elapsed: 0.0004191398620605469
ell 80, elapsed: 0.00041794776916503906
ell 79, elapsed: 0.0004229545593261719
ell 78, elapsed: 0.000415802001953125
ell 77, elapsed: 0.005163908004760742
ell 76, elapsed: 0.0004451274871826172
ell 75, elapsed: 0.00041103363037109375
ell 74, elapsed: 0.0004138946533203125
ell 73, elapsed: 0.0004038810729980469
ell 72, elapsed: 0.0004119873046875
ell 71, elapsed: 0.0004029273986816406
ell 70, elapsed: 0.0004100799560546875
ell 69, elapsed: 0.0003979206085205078
ell 68, elapsed: 0.0004329681396484375
ell 67, elapsed: 0.00039696693420410156
ell 66, elapsed: 0.0003979206085205078
ell 65, elapsed: 0.00039196014404296875
ell 64, elapsed: 0.00039887428283691406
ell 63, elapsed: 0.0003981590270996094
ell 62, elapsed: 0.000392913818359375
ell 61, elapsed: 0.0004100799560546875
ell 60, elapsed: 0.0003979206085205078
ell 59, elapsed: 0.0004279613494873047
ell 58, elapsed: 0.00039315223693847656
ell 57, elapsed: 0.00039696693420410156
ell 56, elapsed: 0.00038886070251464844
ell 55, elapsed: 0.00039696693420410156
ell 54, elapsed: 0.00039696693420410156
ell 53, elapsed: 0.00039005279541015625
ell 52, elapsed: 0.0003960132598876953
ell 51, elapsed: 0.00039196014404296875
ell 50, elapsed: 0.00039505958557128906
ell 49, elapsed: 0.00044798851013183594
ell 48, elapsed: 0.00039505958557128906
ell 47, elapsed: 0.0003960132598876953
ell 46, elapsed: 0.0004000663757324219
ell 45, elapsed: 0.00039696693420410156
ell 44, elapsed: 0.0004010200500488281
ell 43, elapsed: 0.0004010200500488281
ell 42, elapsed: 0.0004010200500488281
ell 41, elapsed: 0.00039386749267578125
ell 40, elapsed: 0.0003960132598876953
ell 39, elapsed: 0.00043320655822753906
ell 38, elapsed: 0.0003910064697265625
ell 37, elapsed: 0.0003991127014160156
ell 36, elapsed: 0.00039196014404296875
ell 35, elapsed: 0.00041103363037109375
ell 34, elapsed: 0.000408172607421875
ell 33, elapsed: 0.0004010200500488281
ell 32, elapsed: 0.00041604042053222656
ell 31, elapsed: 0.0004010200500488281
ell 30, elapsed: 0.0004267692565917969
ell 29, elapsed: 0.00041413307189941406
ell 28, elapsed: 0.00040984153747558594
ell 27, elapsed: 0.00041103363037109375
ell 26, elapsed: 0.0004088878631591797
ell 25, elapsed: 0.0004029273986816406
ell 24, elapsed: 0.0004100799560546875
ell 23, elapsed: 0.00040793418884277344
ell 22, elapsed: 0.0004119873046875
ell 21, elapsed: 0.0004417896270751953
ell 20, elapsed: 0.00041794776916503906
ell 19, elapsed: 0.0004069805145263672
ell 18, elapsed: 0.00040912628173828125
ell 17, elapsed: 0.00040721893310546875
ell 16, elapsed: 0.0004050731658935547
ell 15, elapsed: 0.00040411949157714844
ell 14, elapsed: 0.0004010200500488281
ell 13, elapsed: 0.00040912628173828125
ell 12, elapsed: 0.0004119873046875
ell 11, elapsed: 0.0004420280456542969
ell 10, elapsed: 0.0004019737243652344
ell 9, elapsed: 0.0004069805145263672
ell 8, elapsed: 0.00041294097900390625
ell 7, elapsed: 0.0004069805145263672
ell 6, elapsed: 0.0004169940948486328
ell 5, elapsed: 0.0004200935363769531
ell 4, elapsed: 0.00042510032653808594
ell 3, elapsed: 0.00041103363037109375
ell 2, elapsed: 0.0004699230194091797
ell 1, elapsed: 0.00040602684020996094
ell 0, elapsed: 0.0004088878631591797
  1.989752 seconds (1.38 M allocations: 74.546 MiB, 2.92% gc time, 93.71% compilation time)
elapsed: 0.0025339126586914062
step:          0.512961 sec (311.151 k allocations: 16.967 MB, 11.33% gc time)
swapping:      0.000309 sec (0 allocations: 0 byte, 0.0% gc time)
calc_Mellell!: 0.137291 sec (135.746 k allocations: 7.434 MB, 0.0% gc time)
  t0 :  0.0 sec (0 allocations: 0 byte, 0.0% gc time)
  tm2 : 0.0 sec (0 allocations: 0 byte, 0.0% gc time)
  tm2s: 0.0 sec (0 allocations: 0 byte, 0.0% gc time)
  tm4 : 0.0 sec (0 allocations: 0 byte, 0.0% gc time)
  tp2 : 0.0 sec (0 allocations: 0 byte, 0.0% gc time)
  tp2s: 0.0 sec (0 allocations: 0 byte, 0.0% gc time)
  tp4 : 0.0 sec (0 allocations: 0 byte, 0.0% gc time)
calc_wtdll!:   0.909627 sec (509.624 k allocations: 28.198 MB, 0.0% gc time)
calc_wljj!:    0.002012 sec (6 allocations: 96 byte, 0.0% gc time)
mult_prefac!:  0.0 sec (0 allocations: 0 byte, 0.0% gc time)
convert:       0.0 sec (0 allocations: 0 byte, 0.0% gc time)
write:         0.002849 sec (0 allocations: 0 byte, 0.0% gc time)
test_rand_2f1: 0.0 sec (0 allocations: 0 byte, 0.0% gc time)
Closing outfile out/Ml21-cache.bin...   0.000010 seconds
  0.932685 seconds (246.41 k allocations: 14.224 MiB, 41.95% compilation time)
make_phi():   0.007794 seconds (8.18 k allocations: 237.844 KiB)
  0.268185 seconds (87.57 k allocations: 4.749 MiB, 96.37% compilation time)
tskip:       1.2e-5 sec (0 allocations: 0 byte, 0.0% gc time)
tread:       0.001769 sec (17 allocations: 2.125 KB, 0.0% gc time)
tmultphi:    0.04974 sec (21.425 k allocations: 1.287 MB, 0.0% gc time)
tbrfft:      0.00235 sec (0 allocations: 0 byte, 0.0% gc time)
tmultprefac: 0.001121 sec (0 allocations: 0 byte, 0.0% gc time)
toutfunc:    0.182081 sec (64.483 k allocations: 3.33 MB, 0.0% gc time)
Testing R=1.1 ... passed
Calculating fmax: 
  dlrec    = 4
  dlrecRg1 = -4
  q=1.1, R=1.0:	  0.000842 seconds (3.20 k allocations: 275.344 KiB)

  0.000961 seconds (3.25 k allocations: 309.922 KiB)
ℓ = 1202
Δℓ = 4
ΔℓRg1 = -4
N = 1600
q = 1.1
kmin = 1.0e-5
kmax = 100000.00000000004
χ0 = 0.023029999999999995
RR = RR.tsv
ℓmax = ℓmax.bin
f21 = f21.bin
kmin = 1.0e-5
kmax = 100000.0
dlrec    = 4
dlrecRg1 = -4
Output size: 61465536 bytes = 0.05724424123764038 GiB
Output size: 51264 bytes = 4.774332046508789e-5 GiB
Reading 'out/F21EllCache'...   0.000528 seconds (197 allocations: 84.203 KiB)
ellmax: 1202
lmaxcache: 1202
fell[:,1,1] = ComplexF64[809.6031528389767 - 1.9829558194077161e-13im, 0.0 + 0.0im]
ell 1202, elapsed: 1.9073486328125e-5
ell 1201, elapsed: 0.010301828384399414
ell 1200, elapsed: 0.011787891387939453
ell 1199, elapsed: 0.00026297569274902344
ell 1198, elapsed: 0.00026297569274902344
ell 1197, elapsed: 0.0003478527069091797
ell 1196, elapsed: 0.0003578662872314453
ell 1195, elapsed: 0.0003159046173095703
ell 1194, elapsed: 0.0002989768981933594
ell 1193, elapsed: 0.0002949237823486328
ell 1192, elapsed: 0.0003101825714111328
ell 1191, elapsed: 0.0002968311309814453
ell 1190, elapsed: 0.0002739429473876953
ell 1189, elapsed: 0.0002589225769042969
ell 1188, elapsed: 0.0002739429473876953
ell 1187, elapsed: 0.000270843505859375
ell 1186, elapsed: 0.0002789497375488281
ell 1185, elapsed: 0.0002720355987548828
ell 1184, elapsed: 0.00025916099548339844
ell 1183, elapsed: 0.00026297569274902344
ell 1182, elapsed: 0.00025391578674316406
ell 1181, elapsed: 0.0002460479736328125
ell 1180, elapsed: 0.0002541542053222656
ell 1179, elapsed: 0.00024890899658203125
ell 1178, elapsed: 0.00024390220642089844
ell 1177, elapsed: 0.0002570152282714844
ell 1176, elapsed: 0.00024890899658203125
ell 1175, elapsed: 0.0002529621124267578
ell 1174, elapsed: 0.0002460479736328125
ell 1173, elapsed: 0.00025200843811035156
ell 1172, elapsed: 0.0002498626708984375
ell 1171, elapsed: 0.00024700164794921875
ell 1170, elapsed: 0.00025200843811035156
ell 1169, elapsed: 0.0002689361572265625
ell 1168, elapsed: 0.00026488304138183594
ell 1167, elapsed: 0.00024819374084472656
ell 1166, elapsed: 0.0002491474151611328
ell 1165, elapsed: 0.00025177001953125
ell 1164, elapsed: 0.0002460479736328125
ell 1163, elapsed: 0.00027298927307128906
ell 1162, elapsed: 0.00025010108947753906
ell 1161, elapsed: 0.0002448558807373047
ell 1160, elapsed: 0.00026297569274902344
ell 1159, elapsed: 0.00024509429931640625
ell 1158, elapsed: 0.00029206275939941406
ell 1157, elapsed: 0.0002868175506591797
ell 1156, elapsed: 0.00029087066650390625
ell 1155, elapsed: 0.0002639293670654297
ell 1154, elapsed: 0.0002970695495605469
ell 1153, elapsed: 0.00025582313537597656
ell 1152, elapsed: 0.0002529621124267578
ell 1151, elapsed: 0.00026488304138183594
ell 1150, elapsed: 0.0002639293670654297
ell 1149, elapsed: 0.0002498626708984375
ell 1148, elapsed: 0.00026106834411621094
ell 1147, elapsed: 0.000247955322265625
ell 1146, elapsed: 0.000247955322265625
ell 1145, elapsed: 0.0002570152282714844
ell 1144, elapsed: 0.00025081634521484375
ell 1143, elapsed: 0.00025200843811035156
ell 1142, elapsed: 0.00025010108947753906
ell 1141, elapsed: 0.00024700164794921875
ell 1140, elapsed: 0.00025200843811035156
ell 1139, elapsed: 0.0002999305725097656
ell 1138, elapsed: 0.0003590583801269531
ell 1137, elapsed: 0.0003230571746826172
ell 1136, elapsed: 0.00033092498779296875
ell 1135, elapsed: 0.0003209114074707031
ell 1134, elapsed: 0.0003139972686767578
ell 1133, elapsed: 0.0003151893615722656
ell 1132, elapsed: 0.000308990478515625
ell 1131, elapsed: 0.00030994415283203125
ell 1130, elapsed: 0.00031685829162597656
ell 1129, elapsed: 0.00030493736267089844
ell 1128, elapsed: 0.0003268718719482422
ell 1127, elapsed: 0.00030422210693359375
ell 1126, elapsed: 0.0003077983856201172
ell 1125, elapsed: 0.0003170967102050781
ell 1124, elapsed: 0.00030684471130371094
ell 1123, elapsed: 0.00031113624572753906
ell 1122, elapsed: 0.0003070831298828125
ell 1121, elapsed: 0.0003230571746826172
ell 1120, elapsed: 0.00030493736267089844
ell 1119, elapsed: 0.0003101825714111328
ell 1118, elapsed: 0.00032591819763183594
ell 1117, elapsed: 0.0003139972686767578
ell 1116, elapsed: 0.0003540515899658203
ell 1115, elapsed: 0.00031304359436035156
ell 1114, elapsed: 0.0003108978271484375
ell 1113, elapsed: 0.0003249645233154297
ell 1112, elapsed: 0.000308990478515625
ell 1111, elapsed: 0.0003230571746826172
ell 1110, elapsed: 0.0004189014434814453
ell 1109, elapsed: 0.0003600120544433594
ell 1108, elapsed: 0.0003268718719482422
ell 1107, elapsed: 0.00031304359436035156
ell 1106, elapsed: 0.0004220008850097656
ell 1105, elapsed: 0.0003440380096435547
ell 1104, elapsed: 0.0003800392150878906
ell 1103, elapsed: 0.0003249645233154297
ell 1102, elapsed: 0.0003039836883544922
ell 1101, elapsed: 0.0003139972686767578
ell 1100, elapsed: 0.00031495094299316406
ell 1099, elapsed: 0.00030803680419921875
ell 1098, elapsed: 0.0003199577331542969
ell 1097, elapsed: 0.00031304359436035156
ell 1096, elapsed: 0.00031876564025878906
ell 1095, elapsed: 0.0004000663757324219
ell 1094, elapsed: 0.00031495094299316406
ell 1093, elapsed: 0.00031495094299316406
ell 1092, elapsed: 0.00030803680419921875
ell 1091, elapsed: 0.0003108978271484375
ell 1090, elapsed: 0.0003101825714111328
ell 1089, elapsed: 0.0003070831298828125
ell 1088, elapsed: 0.00031495094299316406
ell 1087, elapsed: 0.000308990478515625
ell 1086, elapsed: 0.0003139972686767578
ell 1085, elapsed: 0.00030803680419921875
ell 1084, elapsed: 0.0003628730773925781
ell 1083, elapsed: 0.00032019615173339844
ell 1082, elapsed: 0.00030994415283203125
ell 1081, elapsed: 0.00031113624572753906
ell 1080, elapsed: 0.00030994415283203125
ell 1079, elapsed: 0.00030612945556640625
ell 1078, elapsed: 0.00031304359436035156
ell 1077, elapsed: 0.0003120899200439453
ell 1076, elapsed: 0.00031495094299316406
ell 1075, elapsed: 0.00030803680419921875
ell 1074, elapsed: 0.0003120899200439453
ell 1073, elapsed: 0.00031113624572753906
ell 1072, elapsed: 0.00037789344787597656
ell 1071, elapsed: 0.0003409385681152344
ell 1070, elapsed: 0.0003120899200439453
ell 1069, elapsed: 0.00031185150146484375
ell 1068, elapsed: 0.00032401084899902344
ell 1067, elapsed: 0.0003120899200439453
ell 1066, elapsed: 0.00032806396484375
ell 1065, elapsed: 0.0003159046173095703
ell 1064, elapsed: 0.0003230571746826172
ell 1063, elapsed: 0.00031304359436035156
ell 1062, elapsed: 0.0003190040588378906
ell 1061, elapsed: 0.0003180503845214844
ell 1060, elapsed: 0.00041484832763671875
ell 1059, elapsed: 0.00032591819763183594
ell 1058, elapsed: 0.00031280517578125
ell 1057, elapsed: 0.0003139972686767578
ell 1056, elapsed: 0.0003230571746826172
ell 1055, elapsed: 0.0003159046173095703
ell 1054, elapsed: 0.0003190040588378906
ell 1053, elapsed: 0.000308990478515625
ell 1052, elapsed: 0.0003190040588378906
ell 1051, elapsed: 0.00032401084899902344
ell 1050, elapsed: 0.00031304359436035156
ell 1049, elapsed: 0.00031495094299316406
ell 1048, elapsed: 0.00038313865661621094
ell 1047, elapsed: 0.0003020763397216797
ell 1046, elapsed: 0.0002880096435546875
ell 1045, elapsed: 0.0003199577331542969
ell 1044, elapsed: 0.00037288665771484375
ell 1043, elapsed: 0.0003509521484375
ell 1042, elapsed: 0.00035190582275390625
ell 1041, elapsed: 0.000331878662109375
ell 1040, elapsed: 0.0003120899200439453
ell 1039, elapsed: 0.0003218650817871094
ell 1038, elapsed: 0.0003058910369873047
ell 1037, elapsed: 0.0003509521484375
ell 1036, elapsed: 0.0003161430358886719
ell 1035, elapsed: 0.0003058910369873047
ell 1034, elapsed: 0.000308990478515625
ell 1033, elapsed: 0.0002999305725097656
ell 1032, elapsed: 0.0003008842468261719
ell 1031, elapsed: 0.0003039836883544922
ell 1030, elapsed: 0.00029587745666503906
ell 1029, elapsed: 0.0002999305725097656
ell 1028, elapsed: 0.0003428459167480469
ell 1027, elapsed: 0.00029397010803222656
ell 1026, elapsed: 0.00029397010803222656
ell 1025, elapsed: 0.0003311634063720703
ell 1024, elapsed: 0.00036406517028808594
ell 1023, elapsed: 0.00030803680419921875
ell 1022, elapsed: 0.0003058910369873047
ell 1021, elapsed: 0.0003631114959716797
ell 1020, elapsed: 0.0003437995910644531
ell 1019, elapsed: 0.0002930164337158203
ell 1018, elapsed: 0.00028896331787109375
ell 1017, elapsed: 0.00029206275939941406
ell 1016, elapsed: 0.0003008842468261719
ell 1015, elapsed: 0.0002989768981933594
ell 1014, elapsed: 0.00030803680419921875
ell 1013, elapsed: 0.0003399848937988281
ell 1012, elapsed: 0.0002970695495605469
ell 1011, elapsed: 0.0002930164337158203
ell 1010, elapsed: 0.0002880096435546875
ell 1009, elapsed: 0.0002970695495605469
ell 1008, elapsed: 0.002627849578857422
ell 1007, elapsed: 0.00031495094299316406
ell 1006, elapsed: 0.00028896331787109375
ell 1005, elapsed: 0.0002849102020263672
ell 1004, elapsed: 0.0003020763397216797
ell 1003, elapsed: 0.00029087066650390625
ell 1002, elapsed: 0.00029015541076660156
ell 1001, elapsed: 0.0002849102020263672
ell 1000, elapsed: 0.00028586387634277344
ell 999, elapsed: 0.00029015541076660156
ell 998, elapsed: 0.00028586387634277344
ell 997, elapsed: 0.0002892017364501953
ell 996, elapsed: 0.00028586387634277344
ell 995, elapsed: 0.00030493736267089844
ell 994, elapsed: 0.0002892017364501953
ell 993, elapsed: 0.0002808570861816406
ell 992, elapsed: 0.0002830028533935547
ell 991, elapsed: 0.00028395652770996094
ell 990, elapsed: 0.0002791881561279297
ell 989, elapsed: 0.0002949237823486328
ell 988, elapsed: 0.0002830028533935547
ell 987, elapsed: 0.0002968311309814453
ell 986, elapsed: 0.0002758502960205078
ell 985, elapsed: 0.00028014183044433594
ell 984, elapsed: 0.00028395652770996094
ell 983, elapsed: 0.0002789497375488281
ell 982, elapsed: 0.00028705596923828125
ell 981, elapsed: 0.00030112266540527344
ell 980, elapsed: 0.0002799034118652344
ell 979, elapsed: 0.000286102294921875
ell 978, elapsed: 0.00023603439331054688
ell 977, elapsed: 0.00024700164794921875
ell 976, elapsed: 0.00023794174194335938
ell 975, elapsed: 0.00023484230041503906
ell 974, elapsed: 0.000244140625
ell 973, elapsed: 0.00023889541625976562
ell 972, elapsed: 0.00023794174194335938
ell 971, elapsed: 0.00023818016052246094
ell 970, elapsed: 0.00023412704467773438
ell 969, elapsed: 0.0002491474151611328
ell 968, elapsed: 0.00023603439331054688
ell 967, elapsed: 0.00023794174194335938
ell 966, elapsed: 0.00026988983154296875
ell 965, elapsed: 0.0002357959747314453
ell 964, elapsed: 0.00023984909057617188
ell 963, elapsed: 0.00023603439331054688
ell 962, elapsed: 0.00024318695068359375
ell 961, elapsed: 0.00023603439331054688
ell 960, elapsed: 0.00024008750915527344
ell 959, elapsed: 0.00023508071899414062
ell 958, elapsed: 0.0002410411834716797
ell 957, elapsed: 0.0002391338348388672
ell 956, elapsed: 0.00023603439331054688
ell 955, elapsed: 0.00023794174194335938
ell 954, elapsed: 0.00024008750915527344
ell 953, elapsed: 0.00024008750915527344
ell 952, elapsed: 0.00024008750915527344
ell 951, elapsed: 0.00023508071899414062
ell 950, elapsed: 0.0002532005310058594
ell 949, elapsed: 0.00028705596923828125
ell 948, elapsed: 0.0002918243408203125
ell 947, elapsed: 0.00029277801513671875
ell 946, elapsed: 0.0002911090850830078
ell 945, elapsed: 0.0002911090850830078
ell 944, elapsed: 0.00029206275939941406
ell 943, elapsed: 0.0002849102020263672
ell 942, elapsed: 0.0002970695495605469
ell 941, elapsed: 0.0002849102020263672
ell 940, elapsed: 0.0003008842468261719
ell 939, elapsed: 0.00028204917907714844
ell 938, elapsed: 0.00027489662170410156
ell 937, elapsed: 0.0003228187561035156
ell 936, elapsed: 0.000286102294921875
ell 935, elapsed: 0.0002911090850830078
ell 934, elapsed: 0.000286102294921875
ell 933, elapsed: 0.00028586387634277344
ell 932, elapsed: 0.00023698806762695312
ell 931, elapsed: 0.00023221969604492188
ell 930, elapsed: 0.00023412704467773438
ell 929, elapsed: 0.00022983551025390625
ell 928, elapsed: 0.00022983551025390625
ell 927, elapsed: 0.0002529621124267578
ell 926, elapsed: 0.00023698806762695312
ell 925, elapsed: 0.00023508071899414062
ell 924, elapsed: 0.00024199485778808594
ell 923, elapsed: 0.00023317337036132812
ell 922, elapsed: 0.00025010108947753906
ell 921, elapsed: 0.00023603439331054688
ell 920, elapsed: 0.00025010108947753906
ell 919, elapsed: 0.00024199485778808594
ell 918, elapsed: 0.0002429485321044922
ell 917, elapsed: 0.00024509429931640625
ell 916, elapsed: 0.00024509429931640625
ell 915, elapsed: 0.0002410411834716797
ell 914, elapsed: 0.00023293495178222656
ell 913, elapsed: 0.00023698806762695312
ell 912, elapsed: 0.0002288818359375
ell 911, elapsed: 0.00022912025451660156
ell 910, elapsed: 0.00023603439331054688
ell 909, elapsed: 0.00023794174194335938
ell 908, elapsed: 0.0002300739288330078
ell 907, elapsed: 0.0002429485321044922
ell 906, elapsed: 0.0002570152282714844
ell 905, elapsed: 0.00023412704467773438
ell 904, elapsed: 0.00022983551025390625
ell 903, elapsed: 0.00023794174194335938
ell 902, elapsed: 0.0002300739288330078
ell 901, elapsed: 0.00023603439331054688
ell 900, elapsed: 0.0002410411834716797
ell 899, elapsed: 0.0002269744873046875
ell 898, elapsed: 0.00022983551025390625
ell 897, elapsed: 0.00023293495178222656
ell 896, elapsed: 0.0002357959747314453
ell 895, elapsed: 0.0002307891845703125
ell 894, elapsed: 0.00022602081298828125
ell 893, elapsed: 0.00023317337036132812
ell 892, elapsed: 0.00023412704467773438
ell 891, elapsed: 0.0002338886260986328
ell 890, elapsed: 0.00025916099548339844
ell 889, elapsed: 0.00023484230041503906
ell 888, elapsed: 0.0002498626708984375
ell 887, elapsed: 0.00022912025451660156
ell 886, elapsed: 0.00024008750915527344
ell 885, elapsed: 0.00024008750915527344
ell 884, elapsed: 0.00022602081298828125
ell 883, elapsed: 0.00023698806762695312
ell 882, elapsed: 0.00022411346435546875
ell 881, elapsed: 0.00022602081298828125
ell 880, elapsed: 0.0002288818359375
ell 879, elapsed: 0.00023508071899414062
ell 878, elapsed: 0.0002338886260986328
ell 877, elapsed: 0.0002338886260986328
ell 876, elapsed: 0.00022912025451660156
ell 875, elapsed: 0.00023698806762695312
ell 874, elapsed: 0.00023698806762695312
ell 873, elapsed: 0.00022602081298828125
ell 872, elapsed: 0.00022101402282714844
ell 871, elapsed: 0.0002219676971435547
ell 870, elapsed: 0.00024199485778808594
ell 869, elapsed: 0.000225067138671875
ell 868, elapsed: 0.00023508071899414062
ell 867, elapsed: 0.0002269744873046875
ell 866, elapsed: 0.00022792816162109375
ell 865, elapsed: 0.00023508071899414062
ell 864, elapsed: 0.0002281665802001953
ell 863, elapsed: 0.00022411346435546875
ell 862, elapsed: 0.00021886825561523438
ell 861, elapsed: 0.00022602081298828125
ell 860, elapsed: 0.0002300739288330078
ell 859, elapsed: 0.00021600723266601562
ell 858, elapsed: 0.00022292137145996094
ell 857, elapsed: 0.0002701282501220703
ell 856, elapsed: 0.00022411346435546875
ell 855, elapsed: 0.00021886825561523438
ell 854, elapsed: 0.00021314620971679688
ell 853, elapsed: 0.00021696090698242188
ell 852, elapsed: 0.00021600723266601562
ell 851, elapsed: 0.00021505355834960938
ell 850, elapsed: 0.0002110004425048828
ell 849, elapsed: 0.00021314620971679688
ell 848, elapsed: 0.0002148151397705078
ell 847, elapsed: 0.0002181529998779297
ell 846, elapsed: 0.0002129077911376953
ell 845, elapsed: 0.00021886825561523438
ell 844, elapsed: 0.00021505355834960938
ell 843, elapsed: 0.00022912025451660156
ell 842, elapsed: 0.00021505355834960938
ell 841, elapsed: 0.0002269744873046875
ell 840, elapsed: 0.00023102760314941406
ell 839, elapsed: 0.00022411346435546875
ell 838, elapsed: 0.00021409988403320312
ell 837, elapsed: 0.00021791458129882812
ell 836, elapsed: 0.0002269744873046875
ell 835, elapsed: 0.00021600723266601562
ell 834, elapsed: 0.00021314620971679688
ell 833, elapsed: 0.00022101402282714844
ell 832, elapsed: 0.0002129077911376953
ell 831, elapsed: 0.00021505355834960938
ell 830, elapsed: 0.0002288818359375
ell 829, elapsed: 0.00021505355834960938
ell 828, elapsed: 0.00021409988403320312
ell 827, elapsed: 0.0002238750457763672
ell 826, elapsed: 0.00022912025451660156
ell 825, elapsed: 0.00021886825561523438
ell 824, elapsed: 0.00021886825561523438
ell 823, elapsed: 0.00021409988403320312
ell 822, elapsed: 0.00022792816162109375
ell 821, elapsed: 0.000225067138671875
ell 820, elapsed: 0.00022602081298828125
ell 819, elapsed: 0.0002110004425048828
ell 818, elapsed: 0.00021409988403320312
ell 817, elapsed: 0.00021886825561523438
ell 816, elapsed: 0.0002319812774658203
ell 815, elapsed: 0.00022912025451660156
ell 814, elapsed: 0.00022983551025390625
ell 813, elapsed: 0.00024700164794921875
ell 812, elapsed: 0.00023889541625976562
ell 811, elapsed: 0.00023698806762695312
ell 810, elapsed: 0.00021314620971679688
ell 809, elapsed: 0.00021195411682128906
ell 808, elapsed: 0.00021600723266601562
ell 807, elapsed: 0.0002110004425048828
ell 806, elapsed: 0.0002460479736328125
ell 805, elapsed: 0.0002760887145996094
ell 804, elapsed: 0.0002808570861816406
ell 803, elapsed: 0.0003001689910888672
ell 802, elapsed: 0.0002739429473876953
ell 801, elapsed: 0.00028896331787109375
ell 800, elapsed: 0.0002720355987548828
ell 799, elapsed: 0.0002791881561279297
ell 798, elapsed: 0.00027298927307128906
ell 797, elapsed: 0.00027298927307128906
ell 796, elapsed: 0.0002720355987548828
ell 795, elapsed: 0.00029397010803222656
ell 794, elapsed: 0.0002779960632324219
ell 793, elapsed: 0.0002741813659667969
ell 792, elapsed: 0.0002760887145996094
ell 791, elapsed: 0.0002741813659667969
ell 790, elapsed: 0.0002789497375488281
ell 789, elapsed: 0.0002818107604980469
ell 788, elapsed: 0.0002701282501220703
ell 787, elapsed: 0.0002739429473876953
ell 786, elapsed: 0.00028705596923828125
ell 785, elapsed: 0.00026988983154296875
ell 784, elapsed: 0.0002810955047607422
ell 783, elapsed: 0.0002810955047607422
ell 782, elapsed: 0.0002720355987548828
ell 781, elapsed: 0.0002779960632324219
ell 780, elapsed: 0.00027108192443847656
ell 779, elapsed: 0.00032019615173339844
ell 778, elapsed: 0.0002739429473876953
ell 777, elapsed: 0.00026679039001464844
ell 776, elapsed: 0.0002758502960205078
ell 775, elapsed: 0.000270843505859375
ell 774, elapsed: 0.0002808570861816406
ell 773, elapsed: 0.0002760887145996094
ell 772, elapsed: 0.0002720355987548828
ell 771, elapsed: 0.00028395652770996094
ell 770, elapsed: 0.00026488304138183594
ell 769, elapsed: 0.00027108192443847656
ell 768, elapsed: 0.00026798248291015625
ell 767, elapsed: 0.0002689361572265625
ell 766, elapsed: 0.0002779960632324219
ell 765, elapsed: 0.00030112266540527344
ell 764, elapsed: 0.00028514862060546875
ell 763, elapsed: 0.0002799034118652344
ell 762, elapsed: 0.0002739429473876953
ell 761, elapsed: 0.00028896331787109375
ell 760, elapsed: 0.0002770423889160156
ell 759, elapsed: 0.00028896331787109375
ell 758, elapsed: 0.0002841949462890625
ell 757, elapsed: 0.0002880096435546875
ell 756, elapsed: 0.00028705596923828125
ell 755, elapsed: 0.0002751350402832031
ell 754, elapsed: 0.0002789497375488281
ell 753, elapsed: 0.00026702880859375
ell 752, elapsed: 0.00030803680419921875
ell 751, elapsed: 0.00026988983154296875
ell 750, elapsed: 0.00026988983154296875
ell 749, elapsed: 0.0002899169921875
ell 748, elapsed: 0.00028705596923828125
ell 747, elapsed: 0.00027680397033691406
ell 746, elapsed: 0.0002689361572265625
ell 745, elapsed: 0.0002741813659667969
ell 744, elapsed: 0.0002980232238769531
ell 743, elapsed: 0.00028204917907714844
ell 742, elapsed: 0.0002970695495605469
ell 741, elapsed: 0.00029397010803222656
ell 740, elapsed: 0.0002810955047607422
ell 739, elapsed: 0.0003509521484375
ell 738, elapsed: 0.0002949237823486328
ell 737, elapsed: 0.0003001689910888672
ell 736, elapsed: 0.0002779960632324219
ell 735, elapsed: 0.0002868175506591797
ell 734, elapsed: 0.000286102294921875
ell 733, elapsed: 0.0002880096435546875
ell 732, elapsed: 0.0002999305725097656
ell 731, elapsed: 0.0002810955047607422
ell 730, elapsed: 0.00029015541076660156
ell 729, elapsed: 0.0002989768981933594
ell 728, elapsed: 0.0003018379211425781
ell 727, elapsed: 0.0003249645233154297
ell 726, elapsed: 0.0003178119659423828
ell 725, elapsed: 0.0002989768981933594
ell 724, elapsed: 0.0003020763397216797
ell 723, elapsed: 0.0002930164337158203
ell 722, elapsed: 0.00030493736267089844
ell 721, elapsed: 0.0002930164337158203
ell 720, elapsed: 0.0002970695495605469
ell 719, elapsed: 0.0002999305725097656
ell 718, elapsed: 0.00029397010803222656
ell 717, elapsed: 0.00030493736267089844
ell 716, elapsed: 0.00030303001403808594
ell 715, elapsed: 0.0003190040588378906
ell 714, elapsed: 0.00034999847412109375
ell 713, elapsed: 0.00030112266540527344
ell 712, elapsed: 0.0003058910369873047
ell 711, elapsed: 0.00030112266540527344
ell 710, elapsed: 0.0003151893615722656
ell 709, elapsed: 0.00029277801513671875
ell 708, elapsed: 0.0003001689910888672
ell 707, elapsed: 0.00030803680419921875
ell 706, elapsed: 0.0002989768981933594
ell 705, elapsed: 0.00030493736267089844
ell 704, elapsed: 0.00030112266540527344
ell 703, elapsed: 0.0002970695495605469
ell 702, elapsed: 0.0003101825714111328
ell 701, elapsed: 0.0003249645233154297
ell 700, elapsed: 0.000308990478515625
ell 699, elapsed: 0.0002961158752441406
ell 698, elapsed: 0.0002880096435546875
ell 697, elapsed: 0.00030112266540527344
ell 696, elapsed: 0.0002949237823486328
ell 695, elapsed: 0.00031280517578125
ell 694, elapsed: 0.0002999305725097656
ell 693, elapsed: 0.0003020763397216797
ell 692, elapsed: 0.0003070831298828125
ell 691, elapsed: 0.0002930164337158203
ell 690, elapsed: 0.0003139972686767578
ell 689, elapsed: 0.00032591819763183594
ell 688, elapsed: 0.0003001689910888672
ell 687, elapsed: 0.0003120899200439453
ell 686, elapsed: 0.00030303001403808594
ell 685, elapsed: 0.0003108978271484375
ell 684, elapsed: 0.00029015541076660156
ell 683, elapsed: 0.00030684471130371094
ell 682, elapsed: 0.0003070831298828125
ell 681, elapsed: 0.00029397010803222656
ell 680, elapsed: 0.00032401084899902344
ell 679, elapsed: 0.0002899169921875
ell 678, elapsed: 0.00030303001403808594
ell 677, elapsed: 0.00035309791564941406
ell 676, elapsed: 0.0003001689910888672
ell 675, elapsed: 0.0002999305725097656
ell 674, elapsed: 0.00029587745666503906
ell 673, elapsed: 0.00030612945556640625
ell 672, elapsed: 0.00029397010803222656
ell 671, elapsed: 0.0002970695495605469
ell 670, elapsed: 0.000308990478515625
ell 669, elapsed: 0.00029587745666503906
ell 668, elapsed: 0.0003120899200439453
ell 667, elapsed: 0.0002949237823486328
ell 666, elapsed: 0.0002949237823486328
ell 665, elapsed: 0.0002970695495605469
ell 664, elapsed: 0.0003299713134765625
ell 663, elapsed: 0.00029921531677246094
ell 662, elapsed: 0.0002942085266113281
ell 661, elapsed: 0.0003020763397216797
ell 660, elapsed: 0.000347137451171875
ell 659, elapsed: 0.0003020763397216797
ell 658, elapsed: 0.0003018379211425781
ell 657, elapsed: 0.0002980232238769531
ell 656, elapsed: 0.00037407875061035156
ell 655, elapsed: 0.0002980232238769531
ell 654, elapsed: 0.0003027915954589844
ell 653, elapsed: 0.0003027915954589844
ell 652, elapsed: 0.0003159046173095703
ell 651, elapsed: 0.00030303001403808594
ell 650, elapsed: 0.0002949237823486328
ell 649, elapsed: 0.0002989768981933594
ell 648, elapsed: 0.0002980232238769531
ell 647, elapsed: 0.0002949237823486328
ell 646, elapsed: 0.0002970695495605469
ell 645, elapsed: 0.00029397010803222656
ell 644, elapsed: 0.0002949237823486328
ell 643, elapsed: 0.0003139972686767578
ell 642, elapsed: 0.00030112266540527344
ell 641, elapsed: 0.0002899169921875
ell 640, elapsed: 0.00026702880859375
ell 639, elapsed: 0.00030303001403808594
ell 638, elapsed: 0.0002551078796386719
ell 637, elapsed: 0.00030684471130371094
ell 636, elapsed: 0.0002810955047607422
ell 635, elapsed: 0.000247955322265625
ell 634, elapsed: 0.0002460479736328125
ell 633, elapsed: 0.00025200843811035156
ell 632, elapsed: 0.00025081634521484375
ell 631, elapsed: 0.000247955322265625
ell 630, elapsed: 0.0002448558807373047
ell 629, elapsed: 0.00024580955505371094
ell 628, elapsed: 0.00025391578674316406
ell 627, elapsed: 0.0002930164337158203
ell 626, elapsed: 0.00032401084899902344
ell 625, elapsed: 0.0002720355987548828
ell 624, elapsed: 0.0002639293670654297
ell 623, elapsed: 0.0002620220184326172
ell 622, elapsed: 0.0002620220184326172
ell 621, elapsed: 0.00027489662170410156
ell 620, elapsed: 0.00024199485778808594
ell 619, elapsed: 0.0002391338348388672
ell 618, elapsed: 0.0002429485321044922
ell 617, elapsed: 0.00023603439331054688
ell 616, elapsed: 0.00023818016052246094
ell 615, elapsed: 0.00023293495178222656
ell 614, elapsed: 0.00024199485778808594
ell 613, elapsed: 0.00025200843811035156
ell 612, elapsed: 0.0002319812774658203
ell 611, elapsed: 0.0002639293670654297
ell 610, elapsed: 0.0002319812774658203
ell 609, elapsed: 0.00023102760314941406
ell 608, elapsed: 0.0002219676971435547
ell 607, elapsed: 0.000225067138671875
ell 606, elapsed: 0.00023293495178222656
ell 605, elapsed: 0.00022912025451660156
ell 604, elapsed: 0.00022602081298828125
ell 603, elapsed: 0.0002219676971435547
ell 602, elapsed: 0.0002200603485107422
ell 601, elapsed: 0.0002529621124267578
ell 600, elapsed: 0.0002129077911376953
ell 599, elapsed: 0.00021886825561523438
ell 598, elapsed: 0.00021409988403320312
ell 597, elapsed: 0.00022101402282714844
ell 596, elapsed: 0.00021696090698242188
ell 595, elapsed: 0.00021195411682128906
ell 594, elapsed: 0.00026702880859375
ell 593, elapsed: 0.0002589225769042969
ell 592, elapsed: 0.0002510547637939453
ell 591, elapsed: 0.00034689903259277344
ell 590, elapsed: 0.000270843505859375
ell 589, elapsed: 0.00026702880859375
ell 588, elapsed: 0.00024700164794921875
ell 587, elapsed: 0.0002529621124267578
ell 586, elapsed: 0.00024700164794921875
ell 585, elapsed: 0.00024580955505371094
ell 584, elapsed: 0.00025200843811035156
ell 583, elapsed: 0.00025010108947753906
ell 582, elapsed: 0.0002491474151611328
ell 581, elapsed: 0.0002491474151611328
ell 580, elapsed: 0.00024700164794921875
ell 579, elapsed: 0.00027108192443847656
ell 578, elapsed: 0.00025200843811035156
ell 577, elapsed: 0.00025010108947753906
ell 576, elapsed: 0.00024509429931640625
ell 575, elapsed: 0.0002429485321044922
ell 574, elapsed: 0.0002529621124267578
ell 573, elapsed: 0.0002410411834716797
ell 572, elapsed: 0.0002429485321044922
ell 571, elapsed: 0.0002410411834716797
ell 570, elapsed: 0.000244140625
ell 569, elapsed: 0.0002219676971435547
ell 568, elapsed: 0.00021910667419433594
ell 567, elapsed: 0.00023603439331054688
ell 566, elapsed: 0.00022602081298828125
ell 565, elapsed: 0.00023293495178222656
ell 564, elapsed: 0.00021982192993164062
ell 563, elapsed: 0.00022792816162109375
ell 562, elapsed: 0.00023412704467773438
ell 561, elapsed: 0.0002200603485107422
ell 560, elapsed: 0.00023484230041503906
ell 559, elapsed: 0.00021314620971679688
ell 558, elapsed: 0.00021791458129882812
ell 557, elapsed: 0.00023508071899414062
ell 556, elapsed: 0.00022292137145996094
ell 555, elapsed: 0.0002307891845703125
ell 554, elapsed: 0.00021791458129882812
ell 553, elapsed: 0.00021505355834960938
ell 552, elapsed: 0.00023508071899414062
ell 551, elapsed: 0.00021791458129882812
ell 550, elapsed: 0.00021600723266601562
ell 549, elapsed: 0.00021719932556152344
ell 548, elapsed: 0.000225067138671875
ell 547, elapsed: 0.00024509429931640625
ell 546, elapsed: 0.00021600723266601562
ell 545, elapsed: 0.0002269744873046875
ell 544, elapsed: 0.00022602081298828125
ell 543, elapsed: 0.00022101402282714844
ell 542, elapsed: 0.0002129077911376953
ell 541, elapsed: 0.0002288818359375
ell 540, elapsed: 0.00022411346435546875
ell 539, elapsed: 0.0002129077911376953
ell 538, elapsed: 0.00021409988403320312
ell 537, elapsed: 0.00021195411682128906
ell 536, elapsed: 0.000225067138671875
ell 535, elapsed: 0.0002300739288330078
ell 534, elapsed: 0.00023102760314941406
ell 533, elapsed: 0.00022721290588378906
ell 532, elapsed: 0.0002269744873046875
ell 531, elapsed: 0.0002288818359375
ell 530, elapsed: 0.0002601146697998047
ell 529, elapsed: 0.0002570152282714844
ell 528, elapsed: 0.00023984909057617188
ell 527, elapsed: 0.00026607513427734375
ell 526, elapsed: 0.0003020763397216797
ell 525, elapsed: 0.00024080276489257812
ell 524, elapsed: 0.0002231597900390625
ell 523, elapsed: 0.00023412704467773438
ell 522, elapsed: 0.00021696090698242188
ell 521, elapsed: 0.00022602081298828125
ell 520, elapsed: 0.0002269744873046875
ell 519, elapsed: 0.0002231597900390625
ell 518, elapsed: 0.00022912025451660156
ell 517, elapsed: 0.0002200603485107422
ell 516, elapsed: 0.00021314620971679688
ell 515, elapsed: 0.0002129077911376953
ell 514, elapsed: 0.0002231597900390625
ell 513, elapsed: 0.0002281665802001953
ell 512, elapsed: 0.00024080276489257812
ell 511, elapsed: 0.00021600723266601562
ell 510, elapsed: 0.00021386146545410156
ell 509, elapsed: 0.00021386146545410156
ell 508, elapsed: 0.00021696090698242188
ell 507, elapsed: 0.00021409988403320312
ell 506, elapsed: 0.00021791458129882812
ell 505, elapsed: 0.0002129077911376953
ell 504, elapsed: 0.00021409988403320312
ell 503, elapsed: 0.00021696090698242188
ell 502, elapsed: 0.00021505355834960938
ell 501, elapsed: 0.00021600723266601562
ell 500, elapsed: 0.00021505355834960938
ell 499, elapsed: 0.00021505355834960938
ell 498, elapsed: 0.0002238750457763672
ell 497, elapsed: 0.00021600723266601562
ell 496, elapsed: 0.00023508071899414062
ell 495, elapsed: 0.00021386146545410156
ell 494, elapsed: 0.00021409988403320312
ell 493, elapsed: 0.00021600723266601562
ell 492, elapsed: 0.00021409988403320312
ell 491, elapsed: 0.00021505355834960938
ell 490, elapsed: 0.0002148151397705078
ell 489, elapsed: 0.0002148151397705078
ell 488, elapsed: 0.00021600723266601562
ell 487, elapsed: 0.00021386146545410156
ell 486, elapsed: 0.0002200603485107422
ell 485, elapsed: 0.0002129077911376953
ell 484, elapsed: 0.00021386146545410156
ell 483, elapsed: 0.00021505355834960938
ell 482, elapsed: 0.00021314620971679688
ell 481, elapsed: 0.0003631114959716797
ell 480, elapsed: 0.0002129077911376953
ell 479, elapsed: 0.00022220611572265625
ell 478, elapsed: 0.0002129077911376953
ell 477, elapsed: 0.0002148151397705078
ell 476, elapsed: 0.0002148151397705078
ell 475, elapsed: 0.0002148151397705078
ell 474, elapsed: 0.00021505355834960938
ell 473, elapsed: 0.0003781318664550781
ell 472, elapsed: 0.00021386146545410156
ell 471, elapsed: 0.00021719932556152344
ell 470, elapsed: 0.0002129077911376953
ell 469, elapsed: 0.00025582313537597656
ell 468, elapsed: 0.0002760887145996094
ell 467, elapsed: 0.0002300739288330078
ell 466, elapsed: 0.00021600723266601562
ell 465, elapsed: 0.00021505355834960938
ell 464, elapsed: 0.00021696090698242188
ell 463, elapsed: 0.00023484230041503906
ell 462, elapsed: 0.00021505355834960938
ell 461, elapsed: 0.00039005279541015625
ell 460, elapsed: 0.00021409988403320312
ell 459, elapsed: 0.00021600723266601562
ell 458, elapsed: 0.0002148151397705078
ell 457, elapsed: 0.00021505355834960938
ell 456, elapsed: 0.00021576881408691406
ell 455, elapsed: 0.00021409988403320312
ell 454, elapsed: 0.00021696090698242188
ell 453, elapsed: 0.0002148151397705078
ell 452, elapsed: 0.00021719932556152344
ell 451, elapsed: 0.00021386146545410156
ell 450, elapsed: 0.00021409988403320312
ell 449, elapsed: 0.00022101402282714844
ell 448, elapsed: 0.0002129077911376953
ell 447, elapsed: 0.00021505355834960938
ell 446, elapsed: 0.0002429485321044922
ell 445, elapsed: 0.00025391578674316406
ell 444, elapsed: 0.00025010108947753906
ell 443, elapsed: 0.00024700164794921875
ell 442, elapsed: 0.00027298927307128906
ell 441, elapsed: 0.00026106834411621094
ell 440, elapsed: 0.0002601146697998047
ell 439, elapsed: 0.0002570152282714844
ell 438, elapsed: 0.0002620220184326172
ell 437, elapsed: 0.00045800209045410156
ell 436, elapsed: 0.0002608299255371094
ell 435, elapsed: 0.0002639293670654297
ell 434, elapsed: 0.0004439353942871094
ell 433, elapsed: 0.00030112266540527344
ell 432, elapsed: 0.00026297569274902344
ell 431, elapsed: 0.0002620220184326172
ell 430, elapsed: 0.00026106834411621094
ell 429, elapsed: 0.0002601146697998047
ell 428, elapsed: 0.00025010108947753906
ell 427, elapsed: 0.00026488304138183594
ell 426, elapsed: 0.00025916099548339844
ell 425, elapsed: 0.0002582073211669922
ell 424, elapsed: 0.00027298927307128906
ell 423, elapsed: 0.0002639293670654297
ell 422, elapsed: 0.00027489662170410156
ell 421, elapsed: 0.00026702880859375
ell 420, elapsed: 0.00027108192443847656
ell 419, elapsed: 0.0002951622009277344
ell 418, elapsed: 0.00026702880859375
ell 417, elapsed: 0.0002739429473876953
ell 416, elapsed: 0.00026607513427734375
ell 415, elapsed: 0.0002701282501220703
ell 414, elapsed: 0.00026798248291015625
ell 413, elapsed: 0.0002779960632324219
ell 412, elapsed: 0.0002779960632324219
ell 411, elapsed: 0.00026798248291015625
ell 410, elapsed: 0.00026798248291015625
ell 409, elapsed: 0.0002620220184326172
ell 408, elapsed: 0.0002608299255371094
ell 407, elapsed: 0.00026798248291015625
ell 406, elapsed: 0.0002598762512207031
ell 405, elapsed: 0.0002970695495605469
ell 404, elapsed: 0.00026702880859375
ell 403, elapsed: 0.00026297569274902344
ell 402, elapsed: 0.00026297569274902344
ell 401, elapsed: 0.0002651214599609375
ell 400, elapsed: 0.0002791881561279297
ell 399, elapsed: 0.00026607513427734375
ell 398, elapsed: 0.0002598762512207031
ell 397, elapsed: 0.00026798248291015625
ell 396, elapsed: 0.00026607513427734375
ell 395, elapsed: 0.00026988983154296875
ell 394, elapsed: 0.00026488304138183594
ell 393, elapsed: 0.00026702880859375
ell 392, elapsed: 0.00026702880859375
ell 391, elapsed: 0.00038695335388183594
ell 390, elapsed: 0.0003180503845214844
ell 389, elapsed: 0.000270843505859375
ell 388, elapsed: 0.00028204917907714844
ell 387, elapsed: 0.00028204917907714844
ell 386, elapsed: 0.0002779960632324219
ell 385, elapsed: 0.00027680397033691406
ell 384, elapsed: 0.00028395652770996094
ell 383, elapsed: 0.00028705596923828125
ell 382, elapsed: 0.000286102294921875
ell 381, elapsed: 0.0002808570861816406
ell 380, elapsed: 0.00029015541076660156
ell 379, elapsed: 0.0002830028533935547
ell 378, elapsed: 0.00031495094299316406
ell 377, elapsed: 0.00028705596923828125
ell 376, elapsed: 0.00028395652770996094
ell 375, elapsed: 0.00029397010803222656
ell 374, elapsed: 0.0002942085266113281
ell 373, elapsed: 0.00028705596923828125
ell 372, elapsed: 0.00028514862060546875
ell 371, elapsed: 0.0002949237823486328
ell 370, elapsed: 0.0002949237823486328
ell 369, elapsed: 0.00029206275939941406
ell 368, elapsed: 0.00029087066650390625
ell 367, elapsed: 0.00028395652770996094
ell 366, elapsed: 0.00029206275939941406
ell 365, elapsed: 0.000347137451171875
ell 364, elapsed: 0.00029206275939941406
ell 363, elapsed: 0.00029587745666503906
ell 362, elapsed: 0.0002918243408203125
ell 361, elapsed: 0.00029397010803222656
ell 360, elapsed: 0.0002868175506591797
ell 359, elapsed: 0.00030994415283203125
ell 358, elapsed: 0.00029587745666503906
ell 357, elapsed: 0.0002930164337158203
ell 356, elapsed: 0.0003018379211425781
ell 355, elapsed: 0.0002961158752441406
ell 354, elapsed: 0.0002949237823486328
ell 353, elapsed: 0.0003399848937988281
ell 352, elapsed: 0.0002980232238769531
ell 351, elapsed: 0.0003058910369873047
ell 350, elapsed: 0.0002999305725097656
ell 349, elapsed: 0.0002999305725097656
ell 348, elapsed: 0.0003058910369873047
ell 347, elapsed: 0.0002989768981933594
ell 346, elapsed: 0.0003020763397216797
ell 345, elapsed: 0.00029087066650390625
ell 344, elapsed: 0.0002918243408203125
ell 343, elapsed: 0.00030303001403808594
ell 342, elapsed: 0.0002918243408203125
ell 341, elapsed: 0.00030493736267089844
ell 340, elapsed: 0.0003228187561035156
ell 339, elapsed: 0.0002970695495605469
ell 338, elapsed: 0.0003018379211425781
ell 337, elapsed: 0.0002949237823486328
ell 336, elapsed: 0.0002968311309814453
ell 335, elapsed: 0.0002961158752441406
ell 334, elapsed: 0.0002918243408203125
ell 333, elapsed: 0.0003199577331542969
ell 332, elapsed: 0.0002999305725097656
ell 331, elapsed: 0.0003020763397216797
ell 330, elapsed: 0.00029587745666503906
ell 329, elapsed: 0.00030493736267089844
ell 328, elapsed: 0.00032901763916015625
ell 327, elapsed: 0.00030493736267089844
ell 326, elapsed: 0.0003008842468261719
ell 325, elapsed: 0.00029921531677246094
ell 324, elapsed: 0.00031304359436035156
ell 323, elapsed: 0.0002999305725097656
ell 322, elapsed: 0.00030303001403808594
ell 321, elapsed: 0.00030922889709472656
ell 320, elapsed: 0.0002989768981933594
ell 319, elapsed: 0.00030994415283203125
ell 318, elapsed: 0.00030303001403808594
ell 317, elapsed: 0.00029206275939941406
ell 316, elapsed: 0.00033283233642578125
ell 315, elapsed: 0.00029206275939941406
ell 314, elapsed: 0.0003070831298828125
ell 313, elapsed: 0.00029587745666503906
ell 312, elapsed: 0.0002949237823486328
ell 311, elapsed: 0.0002989768981933594
ell 310, elapsed: 0.0003001689910888672
ell 309, elapsed: 0.0002970695495605469
ell 308, elapsed: 0.0002980232238769531
ell 307, elapsed: 0.0002930164337158203
ell 306, elapsed: 0.00030803680419921875
ell 305, elapsed: 0.00030493736267089844
ell 304, elapsed: 0.00032806396484375
ell 303, elapsed: 0.0003490447998046875
ell 302, elapsed: 0.00032711029052734375
ell 301, elapsed: 0.0003039836883544922
ell 300, elapsed: 0.00030803680419921875
ell 299, elapsed: 0.0003159046173095703
ell 298, elapsed: 0.00030994415283203125
ell 297, elapsed: 0.000308990478515625
ell 296, elapsed: 0.0003058910369873047
ell 295, elapsed: 0.0003039836883544922
ell 294, elapsed: 0.0003108978271484375
ell 293, elapsed: 0.00030303001403808594
ell 292, elapsed: 0.0003180503845214844
ell 291, elapsed: 0.000331878662109375
ell 290, elapsed: 0.0005970001220703125
ell 289, elapsed: 0.005218029022216797
ell 288, elapsed: 0.0004899501800537109
ell 287, elapsed: 0.00043487548828125
ell 286, elapsed: 0.00043511390686035156
ell 285, elapsed: 0.048599958419799805
ell 284, elapsed: 0.0004210472106933594
ell 283, elapsed: 0.000370025634765625
ell 282, elapsed: 0.000370025634765625
ell 281, elapsed: 0.0003719329833984375
ell 280, elapsed: 0.00036907196044921875
ell 279, elapsed: 0.0005619525909423828
ell 278, elapsed: 0.0003600120544433594
ell 277, elapsed: 0.0003631114959716797
ell 276, elapsed: 0.0003631114959716797
ell 275, elapsed: 0.0004038810729980469
ell 274, elapsed: 0.00036406517028808594
ell 273, elapsed: 0.0003628730773925781
ell 272, elapsed: 0.0003631114959716797
ell 271, elapsed: 0.0003681182861328125
ell 270, elapsed: 0.0003600120544433594
ell 269, elapsed: 0.0003612041473388672
ell 268, elapsed: 0.0003578662872314453
ell 267, elapsed: 0.00035500526428222656
ell 266, elapsed: 0.0003571510314941406
ell 265, elapsed: 0.00037598609924316406
ell 264, elapsed: 0.00036406517028808594
ell 263, elapsed: 0.017393112182617188
ell 262, elapsed: 0.0003800392150878906
ell 261, elapsed: 0.00031113624572753906
ell 260, elapsed: 0.00030493736267089844
ell 259, elapsed: 0.00030803680419921875
ell 258, elapsed: 0.00029397010803222656
ell 257, elapsed: 0.0004260540008544922
ell 256, elapsed: 0.000308990478515625
ell 255, elapsed: 0.0002880096435546875
ell 254, elapsed: 0.00029397010803222656
ell 253, elapsed: 0.00029087066650390625
ell 252, elapsed: 0.0002999305725097656
ell 251, elapsed: 0.0003020763397216797
ell 250, elapsed: 0.0002980232238769531
ell 249, elapsed: 0.0002949237823486328
ell 248, elapsed: 0.0002999305725097656
ell 247, elapsed: 0.00029397010803222656
ell 246, elapsed: 0.00028896331787109375
ell 245, elapsed: 0.00028896331787109375
ell 244, elapsed: 0.00033783912658691406
ell 243, elapsed: 0.0002980232238769531
ell 242, elapsed: 0.0002970695495605469
ell 241, elapsed: 0.0002930164337158203
ell 240, elapsed: 0.0002970695495605469
ell 239, elapsed: 0.0002970695495605469
ell 238, elapsed: 0.00027108192443847656
ell 237, elapsed: 0.00030112266540527344
ell 236, elapsed: 0.0003020763397216797
ell 235, elapsed: 0.00026679039001464844
ell 234, elapsed: 0.00029397010803222656
ell 233, elapsed: 0.00028395652770996094
ell 232, elapsed: 0.0002510547637939453
ell 231, elapsed: 0.00029206275939941406
ell 230, elapsed: 0.00030612945556640625
ell 229, elapsed: 0.0002930164337158203
ell 228, elapsed: 0.00029087066650390625
ell 227, elapsed: 0.00030112266540527344
ell 226, elapsed: 0.0002429485321044922
ell 225, elapsed: 0.00025081634521484375
ell 224, elapsed: 0.0002739429473876953
ell 223, elapsed: 0.0002880096435546875
ell 222, elapsed: 0.00023889541625976562
ell 221, elapsed: 0.00023794174194335938
ell 220, elapsed: 0.0002720355987548828
ell 219, elapsed: 0.0002880096435546875
ell 218, elapsed: 0.00023603439331054688
ell 217, elapsed: 0.00030303001403808594
ell 216, elapsed: 0.00029397010803222656
ell 215, elapsed: 0.000244140625
ell 214, elapsed: 0.0002541542053222656
ell 213, elapsed: 0.00024199485778808594
ell 212, elapsed: 0.00028705596923828125
ell 211, elapsed: 0.00029015541076660156
ell 210, elapsed: 0.0002930164337158203
ell 209, elapsed: 0.00029087066650390625
ell 208, elapsed: 0.00029087066650390625
ell 207, elapsed: 0.00028896331787109375
ell 206, elapsed: 0.00028705596923828125
ell 205, elapsed: 0.0002899169921875
ell 204, elapsed: 0.00030493736267089844
ell 203, elapsed: 0.00028395652770996094
ell 202, elapsed: 0.0003070831298828125
ell 201, elapsed: 0.0002930164337158203
ell 200, elapsed: 0.00028896331787109375
ell 199, elapsed: 0.0002899169921875
ell 198, elapsed: 0.0002911090850830078
ell 197, elapsed: 0.0002970695495605469
ell 196, elapsed: 0.00028204917907714844
ell 195, elapsed: 0.0002789497375488281
ell 194, elapsed: 0.0002372264862060547
ell 193, elapsed: 0.0002391338348388672
ell 192, elapsed: 0.00028705596923828125
ell 191, elapsed: 0.00028395652770996094
ell 190, elapsed: 0.0002639293670654297
ell 189, elapsed: 0.00027680397033691406
ell 188, elapsed: 0.0002770423889160156
ell 187, elapsed: 0.0002319812774658203
ell 186, elapsed: 0.00024700164794921875
ell 185, elapsed: 0.0002880096435546875
ell 184, elapsed: 0.00026702880859375
ell 183, elapsed: 0.00023603439331054688
ell 182, elapsed: 0.0002410411834716797
ell 181, elapsed: 0.0002789497375488281
ell 180, elapsed: 0.00024199485778808594
ell 179, elapsed: 0.00023484230041503906
ell 178, elapsed: 0.00026297569274902344
ell 177, elapsed: 0.00023484230041503906
ell 176, elapsed: 0.0002579689025878906
ell 175, elapsed: 0.00023698806762695312
ell 174, elapsed: 0.00023102760314941406
ell 173, elapsed: 0.00023508071899414062
ell 172, elapsed: 0.00023889541625976562
ell 171, elapsed: 0.0002429485321044922
ell 170, elapsed: 0.00024008750915527344
ell 169, elapsed: 0.0002300739288330078
ell 168, elapsed: 0.0002307891845703125
ell 167, elapsed: 0.0002810955047607422
ell 166, elapsed: 0.0002779960632324219
ell 165, elapsed: 0.0002598762512207031
ell 164, elapsed: 0.00023293495178222656
ell 163, elapsed: 0.00024509429931640625
ell 162, elapsed: 0.0002830028533935547
ell 161, elapsed: 0.0003170967102050781
ell 160, elapsed: 0.00028896331787109375
ell 159, elapsed: 0.0002391338348388672
ell 158, elapsed: 0.0002448558807373047
ell 157, elapsed: 0.0002410411834716797
ell 156, elapsed: 0.00023698806762695312
ell 155, elapsed: 0.0002841949462890625
ell 154, elapsed: 0.0002830028533935547
ell 153, elapsed: 0.00028586387634277344
ell 152, elapsed: 0.00028395652770996094
ell 151, elapsed: 0.0002911090850830078
ell 150, elapsed: 0.00028204917907714844
ell 149, elapsed: 0.00028395652770996094
ell 148, elapsed: 0.0002551078796386719
ell 147, elapsed: 0.0002989768981933594
ell 146, elapsed: 0.0002541542053222656
ell 145, elapsed: 0.00024700164794921875
ell 144, elapsed: 0.00024390220642089844
ell 143, elapsed: 0.0002448558807373047
ell 142, elapsed: 0.00024318695068359375
ell 141, elapsed: 0.00023698806762695312
ell 140, elapsed: 0.0002288818359375
ell 139, elapsed: 0.00024390220642089844
ell 138, elapsed: 0.0002357959747314453
ell 137, elapsed: 0.0002288818359375
ell 136, elapsed: 0.00023508071899414062
ell 135, elapsed: 0.0002880096435546875
ell 134, elapsed: 0.0002720355987548828
ell 133, elapsed: 0.0002868175506591797
ell 132, elapsed: 0.0003199577331542969
ell 131, elapsed: 0.00029206275939941406
ell 130, elapsed: 0.0002880096435546875
ell 129, elapsed: 0.00028514862060546875
ell 128, elapsed: 0.00028514862060546875
ell 127, elapsed: 0.0002830028533935547
ell 126, elapsed: 0.0002868175506591797
ell 125, elapsed: 0.00028586387634277344
ell 124, elapsed: 0.0002970695495605469
ell 123, elapsed: 0.00028395652770996094
ell 122, elapsed: 0.00028395652770996094
ell 121, elapsed: 0.0002779960632324219
ell 120, elapsed: 0.00023484230041503906
ell 119, elapsed: 0.0002830028533935547
ell 118, elapsed: 0.00027179718017578125
ell 117, elapsed: 0.00026416778564453125
ell 116, elapsed: 0.00026106834411621094
ell 115, elapsed: 0.0002460479736328125
ell 114, elapsed: 0.00028395652770996094
ell 113, elapsed: 0.000247955322265625
ell 112, elapsed: 0.0002410411834716797
ell 111, elapsed: 0.00023698806762695312
ell 110, elapsed: 0.00026607513427734375
ell 109, elapsed: 0.00023508071899414062
ell 108, elapsed: 0.00023484230041503906
ell 107, elapsed: 0.0002300739288330078
ell 106, elapsed: 0.00023794174194335938
ell 105, elapsed: 0.0002579689025878906
ell 104, elapsed: 0.00026607513427734375
ell 103, elapsed: 0.0002589225769042969
ell 102, elapsed: 0.00023889541625976562
ell 101, elapsed: 0.00023603439331054688
ell 100, elapsed: 0.00023603439331054688
ell 99, elapsed: 0.00024700164794921875
ell 98, elapsed: 0.00024199485778808594
ell 97, elapsed: 0.00023889541625976562
ell 96, elapsed: 0.00023412704467773438
ell 95, elapsed: 0.00023794174194335938
ell 94, elapsed: 0.0002930164337158203
ell 93, elapsed: 0.00028395652770996094
ell 92, elapsed: 0.0002789497375488281
ell 91, elapsed: 0.0002808570861816406
ell 90, elapsed: 0.00023794174194335938
ell 89, elapsed: 0.00026917457580566406
ell 88, elapsed: 0.00023293495178222656
ell 87, elapsed: 0.00023603439331054688
ell 86, elapsed: 0.00026488304138183594
ell 85, elapsed: 0.00025200843811035156
ell 84, elapsed: 0.00023698806762695312
ell 83, elapsed: 0.00023102760314941406
ell 82, elapsed: 0.0002338886260986328
ell 81, elapsed: 0.0002448558807373047
ell 80, elapsed: 0.0002529621124267578
ell 79, elapsed: 0.0002739429473876953
ell 78, elapsed: 0.00024080276489257812
ell 77, elapsed: 0.00023603439331054688
ell 76, elapsed: 0.00028586387634277344
ell 75, elapsed: 0.0002741813659667969
ell 74, elapsed: 0.00030303001403808594
ell 73, elapsed: 0.0002980232238769531
ell 72, elapsed: 0.0002789497375488281
ell 71, elapsed: 0.00028204917907714844
ell 70, elapsed: 0.00029397010803222656
ell 69, elapsed: 0.0002818107604980469
ell 68, elapsed: 0.000286102294921875
ell 67, elapsed: 0.00028514862060546875
ell 66, elapsed: 0.00028586387634277344
ell 65, elapsed: 0.0002849102020263672
ell 64, elapsed: 0.00028395652770996094
ell 63, elapsed: 0.0002448558807373047
ell 62, elapsed: 0.00025081634521484375
ell 61, elapsed: 0.0002579689025878906
ell 60, elapsed: 0.0003650188446044922
ell 59, elapsed: 0.0002989768981933594
ell 58, elapsed: 0.0002579689025878906
ell 57, elapsed: 0.0003101825714111328
ell 56, elapsed: 0.0002970695495605469
ell 55, elapsed: 0.0002980232238769531
ell 54, elapsed: 0.00025200843811035156
ell 53, elapsed: 0.00024509429931640625
ell 52, elapsed: 0.0002617835998535156
ell 51, elapsed: 0.00026702880859375
ell 50, elapsed: 0.0003268718719482422
ell 49, elapsed: 0.0002930164337158203
ell 48, elapsed: 0.00031113624572753906
ell 47, elapsed: 0.0002548694610595703
ell 46, elapsed: 0.0002410411834716797
ell 45, elapsed: 0.00024890899658203125
ell 44, elapsed: 0.00024509429931640625
ell 43, elapsed: 0.0002570152282714844
ell 42, elapsed: 0.00025391578674316406
ell 41, elapsed: 0.0002429485321044922
ell 40, elapsed: 0.0002758502960205078
ell 39, elapsed: 0.0002491474151611328
ell 38, elapsed: 0.00026917457580566406
ell 37, elapsed: 0.0002930164337158203
ell 36, elapsed: 0.0002620220184326172
ell 35, elapsed: 0.00024008750915527344
ell 34, elapsed: 0.0002961158752441406
ell 33, elapsed: 0.0002949237823486328
ell 32, elapsed: 0.0002319812774658203
ell 31, elapsed: 0.0002880096435546875
ell 30, elapsed: 0.0002491474151611328
ell 29, elapsed: 0.00025081634521484375
ell 28, elapsed: 0.0003020763397216797
ell 27, elapsed: 0.00025010108947753906
ell 26, elapsed: 0.00027489662170410156
ell 25, elapsed: 0.0002810955047607422
ell 24, elapsed: 0.0002770423889160156
ell 23, elapsed: 0.00028705596923828125
ell 22, elapsed: 0.00023794174194335938
ell 21, elapsed: 0.00026488304138183594
ell 20, elapsed: 0.0002751350402832031
ell 19, elapsed: 0.0002808570861816406
ell 18, elapsed: 0.0002949237823486328
ell 17, elapsed: 0.0002911090850830078
ell 16, elapsed: 0.00028896331787109375
ell 15, elapsed: 0.00029397010803222656
ell 14, elapsed: 0.0002880096435546875
ell 13, elapsed: 0.00033092498779296875
ell 12, elapsed: 0.0002830028533935547
ell 11, elapsed: 0.00028514862060546875
ell 10, elapsed: 0.0002701282501220703
ell 9, elapsed: 0.00029206275939941406
ell 8, elapsed: 0.0003008842468261719
ell 7, elapsed: 0.00029087066650390625
ell 6, elapsed: 0.001641988754272461
ell 5, elapsed: 0.0002980232238769531
ell 4, elapsed: 0.0002739429473876953
ell 3, elapsed: 0.0002930164337158203
ell 2, elapsed: 0.00028514862060546875
ell 1, elapsed: 0.00028586387634277344
ell 0, elapsed: 0.0002789497375488281
  0.446897 seconds (46.03 k allocations: 3.091 MiB, 4.78% compilation time)
elapsed: 0.0003631114959716797
step:          0.044292 sec (0 allocations: 0 byte, 0.0% gc time)
swapping:      0.000378 sec (0 allocations: 0 byte, 0.0% gc time)
calc_Mellell!: 0.004826 sec (0 allocations: 0 byte, 0.0% gc time)
  t0 :  0.001231 sec (0 allocations: 0 byte, 0.0% gc time)
  tm2 : 0.066221 sec (0 allocations: 0 byte, 0.0% gc time)
  tm2s: 0.00076 sec (0 allocations: 0 byte, 0.0% gc time)
  tm4 : 0.150292 sec (0 allocations: 0 byte, 0.0% gc time)
  tp2 : 0.0 sec (0 allocations: 0 byte, 0.0% gc time)
  tp2s: 0.0 sec (0 allocations: 0 byte, 0.0% gc time)
  tp4 : 0.0 sec (0 allocations: 0 byte, 0.0% gc time)
calc_wtdll!:   0.242091 sec (9.9 k allocations: 1.047 MB, 0.0% gc time)
calc_wljj!:    0.018699 sec (689 allocations: 10.766 KB, 0.0% gc time)
mult_prefac!:  0.0 sec (0 allocations: 0 byte, 0.0% gc time)
convert:       0.0 sec (0 allocations: 0 byte, 0.0% gc time)
write:         0.026124 sec (0 allocations: 0 byte, 0.0% gc time)
test_rand_2f1: 0.0 sec (0 allocations: 0 byte, 0.0% gc time)
Closing outfile out/Ml21-cache.bin...   0.000009 seconds
  0.000394 seconds (36 allocations: 27.953 KiB)
make_phi():   0.001450 seconds (8.18 k allocations: 237.844 KiB)
  0.104209 seconds (141.90 k allocations: 3.483 MiB)
tskip:       0.000801 sec (0 allocations: 0 byte, 0.0% gc time)
tread:       0.017887 sec (17 allocations: 10.641 KB, 0.0% gc time)
tmultphi:    0.007802 sec (0 allocations: 0 byte, 0.0% gc time)
tbrfft:      0.030445 sec (0 allocations: 0 byte, 0.0% gc time)
tmultprefac: 0.014523 sec (0 allocations: 0 byte, 0.0% gc time)
toutfunc:    0.02985 sec (127.507 k allocations: 2.312 MB, 0.0% gc time)
Testing R=1.0 ... passed
Calculating fmax: 
  dlrec    = 4
  dlrecRg1 = -4
  q=1.1, R=0.9:	  0.243290 seconds (105.72 k allocations: 15.273 MiB, 6.01% gc time)

  0.243428 seconds (105.78 k allocations: 15.307 MiB, 6.00% gc time)
ℓ = 1202
Δℓ = 4
ΔℓRg1 = -4
N = 1600
q = 1.1
kmin = 1.0e-5
kmax = 100000.00000000004
χ0 = 0.023029999999999995
RR = RR.tsv
ℓmax = ℓmax.bin
f21 = f21.bin
kmin = 1.0e-5
kmax = 100000.0
dlrec    = 4
dlrecRg1 = -4
Output size: 5741568 bytes = 0.005347251892089844 GiB
Output size: 51264 bytes = 4.774332046508789e-5 GiB
Reading 'out/F21EllCache'...   0.000969 seconds (197 allocations: 84.203 KiB)
ellmax: 1202
lmaxcache: 1202
fell[:,1,1] = ComplexF64[1.3482014726274674e-57 - 3.302141236118086e-73im, 1.357860004724329e-57 - 3.3257978169518355e-73im]
ell 1202, elapsed: 1.811981201171875e-5
ell 1201, elapsed: 0.0002529621124267578
ell 1200, elapsed: 0.0002391338348388672
ell 1199, elapsed: 0.00023698806762695312
ell 1198, elapsed: 0.0002429485321044922
ell 1002, elapsed: 0.007894039154052734
ell 1001, elapsed: 0.0002770423889160156
ell 1000, elapsed: 0.0002589225769042969
ell 999, elapsed: 0.0002579689025878906
ell 998, elapsed: 0.00026488304138183594
ell 902, elapsed: 0.004218101501464844
ell 901, elapsed: 0.0002951622009277344
ell 900, elapsed: 0.0002808570861816406
ell 899, elapsed: 0.00026297569274902344
ell 898, elapsed: 0.0002567768096923828
ell 802, elapsed: 0.0040340423583984375
ell 801, elapsed: 0.00026297569274902344
ell 800, elapsed: 0.00025391578674316406
ell 799, elapsed: 0.0002510547637939453
ell 798, elapsed: 0.00026488304138183594
ell 702, elapsed: 0.004028797149658203
ell 701, elapsed: 0.0002658367156982422
ell 700, elapsed: 0.0002560615539550781
ell 699, elapsed: 0.0002589225769042969
ell 698, elapsed: 0.0002541542053222656
ell 602, elapsed: 0.0040111541748046875
ell 601, elapsed: 0.0002689361572265625
ell 600, elapsed: 0.0002651214599609375
ell 599, elapsed: 0.00028395652770996094
ell 598, elapsed: 0.00026106834411621094
ell 502, elapsed: 0.004239797592163086
ell 501, elapsed: 0.0002720355987548828
ell 500, elapsed: 0.00026702880859375
ell 499, elapsed: 0.00026297569274902344
ell 498, elapsed: 0.0002532005310058594
ell 402, elapsed: 0.004031181335449219
ell 401, elapsed: 0.0002548694610595703
ell 400, elapsed: 0.00025010108947753906
ell 399, elapsed: 0.0002448558807373047
ell 398, elapsed: 0.00024509429931640625
ell 302, elapsed: 0.003964900970458984
ell 301, elapsed: 0.0002682209014892578
ell 300, elapsed: 0.0002498626708984375
ell 299, elapsed: 0.0002429485321044922
ell 298, elapsed: 0.000247955322265625
ell 202, elapsed: 0.003997087478637695
ell 201, elapsed: 0.0002589225769042969
ell 200, elapsed: 0.000247955322265625
ell 199, elapsed: 0.00024390220642089844
ell 198, elapsed: 0.0002448558807373047
ell 152, elapsed: 0.0020210742950439453
ell 151, elapsed: 0.0002491474151611328
ell 150, elapsed: 0.00024390220642089844
ell 149, elapsed: 0.0002410411834716797
ell 148, elapsed: 0.0002639293670654297
ell 127, elapsed: 0.0010480880737304688
ell 126, elapsed: 0.0002510547637939453
ell 125, elapsed: 0.00024318695068359375
ell 124, elapsed: 0.00024318695068359375
ell 123, elapsed: 0.00023698806762695312
ell 114, elapsed: 0.0005979537963867188
ell 113, elapsed: 0.0002429485321044922
ell 112, elapsed: 0.0002429485321044922
ell 111, elapsed: 0.00024008750915527344
ell 110, elapsed: 0.00024390220642089844
ell 102, elapsed: 0.0006000995635986328
ell 101, elapsed: 0.0002410411834716797
ell 100, elapsed: 0.00024700164794921875
ell 99, elapsed: 0.00023794174194335938
ell 98, elapsed: 0.00023984909057617188
ell 97, elapsed: 0.0002911090850830078
ell 96, elapsed: 0.0002980232238769531
ell 95, elapsed: 0.00029087066650390625
ell 94, elapsed: 0.00029206275939941406
ell 93, elapsed: 0.00028586387634277344
ell 92, elapsed: 0.00028514862060546875
ell 91, elapsed: 0.0002830028533935547
ell 90, elapsed: 0.0002880096435546875
ell 89, elapsed: 0.00031495094299316406
ell 88, elapsed: 0.0002830028533935547
ell 87, elapsed: 0.0002789497375488281
ell 86, elapsed: 0.00030803680419921875
ell 85, elapsed: 0.0002770423889160156
ell 84, elapsed: 0.00029397010803222656
ell 83, elapsed: 0.0002779960632324219
ell 82, elapsed: 0.0002880096435546875
ell 81, elapsed: 0.00028586387634277344
ell 80, elapsed: 0.0002789497375488281
ell 79, elapsed: 0.0002498626708984375
ell 78, elapsed: 0.0002300739288330078
ell 77, elapsed: 0.00022602081298828125
ell 76, elapsed: 0.0003170967102050781
ell 75, elapsed: 0.00023102760314941406
ell 74, elapsed: 0.00026798248291015625
ell 73, elapsed: 0.0002269744873046875
ell 72, elapsed: 0.00028514862060546875
ell 71, elapsed: 0.00022602081298828125
ell 70, elapsed: 0.00023794174194335938
ell 69, elapsed: 0.00023508071899414062
ell 68, elapsed: 0.0002739429473876953
ell 67, elapsed: 0.00028395652770996094
ell 66, elapsed: 0.00026798248291015625
ell 65, elapsed: 0.000270843505859375
ell 64, elapsed: 0.0002779960632324219
ell 63, elapsed: 0.0002751350402832031
ell 62, elapsed: 0.0002789497375488281
ell 61, elapsed: 0.00029587745666503906
ell 60, elapsed: 0.00027489662170410156
ell 59, elapsed: 0.00027680397033691406
ell 58, elapsed: 0.00026607513427734375
ell 57, elapsed: 0.0002779960632324219
ell 56, elapsed: 0.0002701282501220703
ell 55, elapsed: 0.00026798248291015625
ell 54, elapsed: 0.00027489662170410156
ell 53, elapsed: 0.0002810955047607422
ell 52, elapsed: 0.0002930164337158203
ell 51, elapsed: 0.00027298927307128906
ell 50, elapsed: 0.00028204917907714844
ell 49, elapsed: 0.0002930164337158203
ell 48, elapsed: 0.00026988983154296875
ell 47, elapsed: 0.0003209114074707031
ell 46, elapsed: 0.00027298927307128906
ell 45, elapsed: 0.0002760887145996094
ell 44, elapsed: 0.0002789497375488281
ell 43, elapsed: 0.0002739429473876953
ell 42, elapsed: 0.0002739429473876953
ell 41, elapsed: 0.00023508071899414062
ell 40, elapsed: 0.00022602081298828125
ell 39, elapsed: 0.0002682209014892578
ell 38, elapsed: 0.0002281665802001953
ell 37, elapsed: 0.00026702880859375
ell 36, elapsed: 0.0002601146697998047
ell 35, elapsed: 0.0002491474151611328
ell 34, elapsed: 0.00025010108947753906
ell 33, elapsed: 0.00027298927307128906
ell 32, elapsed: 0.00024700164794921875
ell 31, elapsed: 0.0002372264862060547
ell 30, elapsed: 0.00025391578674316406
ell 29, elapsed: 0.0002732276916503906
ell 28, elapsed: 0.0002701282501220703
ell 27, elapsed: 0.00028204917907714844
ell 26, elapsed: 0.0002689361572265625
ell 25, elapsed: 0.0002529621124267578
ell 24, elapsed: 0.0002770423889160156
ell 23, elapsed: 0.00027108192443847656
ell 22, elapsed: 0.00028204917907714844
ell 21, elapsed: 0.00026988983154296875
ell 20, elapsed: 0.00026988983154296875
ell 19, elapsed: 0.00029206275939941406
ell 18, elapsed: 0.0002779960632324219
ell 17, elapsed: 0.000270843505859375
ell 16, elapsed: 0.00026798248291015625
ell 15, elapsed: 0.0002779960632324219
ell 14, elapsed: 0.0002880096435546875
ell 13, elapsed: 0.00027680397033691406
ell 12, elapsed: 0.00028204917907714844
ell 11, elapsed: 0.0002701282501220703
ell 10, elapsed: 0.00028395652770996094
ell 9, elapsed: 0.0002760887145996094
ell 8, elapsed: 0.00027489662170410156
ell 7, elapsed: 0.0002830028533935547
ell 6, elapsed: 0.00027298927307128906
ell 5, elapsed: 0.00038504600524902344
ell 4, elapsed: 0.0002639293670654297
ell 3, elapsed: 0.00025200843811035156
ell 2, elapsed: 0.00026297569274902344
ell 1, elapsed: 0.0002560615539550781
ell 0, elapsed: 0.0002579689025878906
  0.088584 seconds (11.51 k allocations: 719.594 KiB)
elapsed: 0.00031113624572753906
step:          0.0452 sec (0 allocations: 0 byte, 0.0% gc time)
swapping:      0.000288 sec (0 allocations: 0 byte, 0.0% gc time)
calc_Mellell!: 0.000758 sec (0 allocations: 0 byte, 0.0% gc time)
  t0 :  0.000211 sec (0 allocations: 0 byte, 0.0% gc time)
  tm2 : 0.009066 sec (0 allocations: 0 byte, 0.0% gc time)
  tm2s: 0.000156 sec (0 allocations: 0 byte, 0.0% gc time)
  tm4 : 0.021629 sec (0 allocations: 0 byte, 0.0% gc time)
  tp2 : 0.0 sec (0 allocations: 0 byte, 0.0% gc time)
  tp2s: 0.0 sec (0 allocations: 0 byte, 0.0% gc time)
  tp4 : 0.0 sec (0 allocations: 0 byte, 0.0% gc time)
calc_wtdll!:   0.031429 sec (1.344 k allocations: 147.0 KB, 0.0% gc time)
calc_wljj!:    0.001842 sec (6 allocations: 96 byte, 0.0% gc time)
mult_prefac!:  0.0 sec (0 allocations: 0 byte, 0.0% gc time)
convert:       0.0 sec (0 allocations: 0 byte, 0.0% gc time)
write:         0.002914 sec (0 allocations: 0 byte, 0.0% gc time)
test_rand_2f1: 0.0 sec (0 allocations: 0 byte, 0.0% gc time)
Closing outfile out/Ml21-cache.bin...   0.000008 seconds
  0.000351 seconds (36 allocations: 27.953 KiB)
make_phi():   0.001383 seconds (8.18 k allocations: 237.844 KiB)
  0.010302 seconds (11.65 k allocations: 308.688 KiB)
tskip:       1.6e-5 sec (0 allocations: 0 byte, 0.0% gc time)
tread:       0.001932 sec (17 allocations: 2.125 KB, 0.0% gc time)
tmultphi:    0.000792 sec (0 allocations: 0 byte, 0.0% gc time)
tbrfft:      0.002778 sec (0 allocations: 0 byte, 0.0% gc time)
tmultprefac: 0.001541 sec (0 allocations: 0 byte, 0.0% gc time)
toutfunc:    0.002975 sec (10.304 k allocations: 196.0 KB, 0.0% gc time)
Testing R=0.9 ... passed
Calculating fmax: 
  dlrec    = 4
  dlrecRg1 = -4
  q=1.1, R=0.8:	  0.244485 seconds (103.21 k allocations: 14.840 MiB)

  0.244630 seconds (103.26 k allocations: 14.874 MiB)
ℓ = 1202
Δℓ = 4
ΔℓRg1 = -4
N = 1600
q = 1.1
kmin = 1.0e-5
kmax = 100000.00000000004
χ0 = 0.023029999999999995
RR = RR.tsv
ℓmax = ℓmax.bin
f21 = f21.bin
kmin = 1.0e-5
kmax = 100000.0
dlrec    = 4
dlrecRg1 = -4
Output size: 5741568 bytes = 0.005347251892089844 GiB
Output size: 51264 bytes = 4.774332046508789e-5 GiB
Reading 'out/F21EllCache'...   0.000824 seconds (197 allocations: 84.203 KiB)
ellmax: 1202
lmaxcache: 1202
fell[:,1,1] = ComplexF64[7.519068145690986e-120 - 1.8416405474382574e-135im, 7.541664537386155e-120 - 1.847175067190611e-135im]
ell 1202, elapsed: 2.6941299438476562e-5
ell 1201, elapsed: 0.0003161430358886719
ell 1200, elapsed: 0.00025200843811035156
ell 1199, elapsed: 0.00023794174194335938
ell 1198, elapsed: 0.00028204917907714844
ell 1002, elapsed: 0.007787942886352539
ell 1001, elapsed: 0.00030994415283203125
ell 1000, elapsed: 0.0002551078796386719
ell 999, elapsed: 0.0002551078796386719
ell 998, elapsed: 0.00025391578674316406
ell 902, elapsed: 0.003904104232788086
ell 901, elapsed: 0.00022101402282714844
ell 900, elapsed: 0.00022101402282714844
ell 899, elapsed: 0.00025916099548339844
ell 898, elapsed: 0.00024008750915527344
ell 802, elapsed: 0.003934144973754883
ell 801, elapsed: 0.0002231597900390625
ell 800, elapsed: 0.00021696090698242188
ell 799, elapsed: 0.00021696090698242188
ell 798, elapsed: 0.00023698806762695312
ell 702, elapsed: 0.003991127014160156
ell 701, elapsed: 0.0002758502960205078
ell 700, elapsed: 0.000270843505859375
ell 699, elapsed: 0.000263214111328125
ell 698, elapsed: 0.0002808570861816406
ell 602, elapsed: 0.0039010047912597656
ell 601, elapsed: 0.003208160400390625
ell 600, elapsed: 0.0002570152282714844
ell 599, elapsed: 0.0002567768096923828
ell 598, elapsed: 0.0002810955047607422
ell 502, elapsed: 0.003930091857910156
ell 501, elapsed: 0.00024509429931640625
ell 500, elapsed: 0.0002529621124267578
ell 499, elapsed: 0.0002429485321044922
ell 498, elapsed: 0.00024318695068359375
ell 402, elapsed: 0.0039520263671875
ell 401, elapsed: 0.00023889541625976562
ell 400, elapsed: 0.0002391338348388672
ell 399, elapsed: 0.00023603439331054688
ell 398, elapsed: 0.0002372264862060547
ell 302, elapsed: 0.0039031505584716797
ell 301, elapsed: 0.0002529621124267578
ell 300, elapsed: 0.00025391578674316406
ell 299, elapsed: 0.0002410411834716797
ell 298, elapsed: 0.00023794174194335938
ell 202, elapsed: 0.003958940505981445
ell 201, elapsed: 0.000247955322265625
ell 200, elapsed: 0.00025391578674316406
ell 199, elapsed: 0.000247955322265625
ell 198, elapsed: 0.00029206275939941406
ell 152, elapsed: 0.0020830631256103516
ell 151, elapsed: 0.0002608299255371094
ell 150, elapsed: 0.0002570152282714844
ell 149, elapsed: 0.00027489662170410156
ell 148, elapsed: 0.0002510547637939453
ell 127, elapsed: 0.0011229515075683594
ell 126, elapsed: 0.00025200843811035156
ell 125, elapsed: 0.00025200843811035156
ell 124, elapsed: 0.00025010108947753906
ell 123, elapsed: 0.0002491474151611328
ell 114, elapsed: 0.0006258487701416016
ell 113, elapsed: 0.00025200843811035156
ell 112, elapsed: 0.0002510547637939453
ell 111, elapsed: 0.00024890899658203125
ell 110, elapsed: 0.000247955322265625
ell 102, elapsed: 0.0005710124969482422
ell 101, elapsed: 0.00027108192443847656
ell 100, elapsed: 0.0002491474151611328
ell 99, elapsed: 0.00025200843811035156
ell 98, elapsed: 0.00024890899658203125
ell 97, elapsed: 0.0003020763397216797
ell 96, elapsed: 0.0002930164337158203
ell 95, elapsed: 0.00029277801513671875
ell 94, elapsed: 0.0002949237823486328
ell 93, elapsed: 0.000286102294921875
ell 92, elapsed: 0.0003020763397216797
ell 91, elapsed: 0.000286102294921875
ell 90, elapsed: 0.00029087066650390625
ell 89, elapsed: 0.0003001689910888672
ell 88, elapsed: 0.00028586387634277344
ell 87, elapsed: 0.0003848075866699219
ell 86, elapsed: 0.0003039836883544922
ell 85, elapsed: 0.0002930164337158203
ell 84, elapsed: 0.0003101825714111328
ell 83, elapsed: 0.0002930164337158203
ell 82, elapsed: 0.00029778480529785156
ell 81, elapsed: 0.0003368854522705078
ell 80, elapsed: 0.0002899169921875
ell 79, elapsed: 0.00029587745666503906
ell 78, elapsed: 0.0002911090850830078
ell 77, elapsed: 0.0002808570861816406
ell 76, elapsed: 0.00027108192443847656
ell 75, elapsed: 0.0002961158752441406
ell 74, elapsed: 0.0002810955047607422
ell 73, elapsed: 0.000247955322265625
ell 72, elapsed: 0.0002589225769042969
ell 71, elapsed: 0.0002841949462890625
ell 70, elapsed: 0.0002980232238769531
ell 69, elapsed: 0.0002949237823486328
ell 68, elapsed: 0.00030994415283203125
ell 67, elapsed: 0.000308990478515625
ell 66, elapsed: 0.0002880096435546875
ell 65, elapsed: 0.0002849102020263672
ell 64, elapsed: 0.00029921531677246094
ell 63, elapsed: 0.00028705596923828125
ell 62, elapsed: 0.0002739429473876953
[...]
ell 782, elapsed: 0.0008511543273925781
ell 781, elapsed: 0.00046706199645996094
ell 780, elapsed: 0.00047516822814941406
ell 779, elapsed: 0.00055694580078125
ell 778, elapsed: 0.0005331039428710938
ell 772, elapsed: 0.0009508132934570312
ell 771, elapsed: 0.0005280971527099609
ell 770, elapsed: 0.0005350112915039062
ell 769, elapsed: 0.0005209445953369141
ell 768, elapsed: 0.0005490779876708984
ell 762, elapsed: 0.0009570121765136719
ell 761, elapsed: 0.0004930496215820312
ell 760, elapsed: 0.000476837158203125
ell 759, elapsed: 0.00045680999755859375
ell 758, elapsed: 0.0005090236663818359
ell 752, elapsed: 0.0008161067962646484
ell 751, elapsed: 0.00047397613525390625
ell 750, elapsed: 0.00045490264892578125
ell 749, elapsed: 0.0004448890686035156
ell 748, elapsed: 0.00045013427734375
ell 742, elapsed: 0.0008020401000976562
ell 741, elapsed: 0.0004451274871826172
ell 740, elapsed: 0.0004451274871826172
ell 739, elapsed: 0.0004429817199707031
ell 738, elapsed: 0.00047016143798828125
ell 732, elapsed: 0.0006921291351318359
ell 731, elapsed: 0.0004379749298095703
ell 730, elapsed: 0.00042510032653808594
ell 729, elapsed: 0.0004229545593261719
ell 728, elapsed: 0.0004329681396484375
ell 722, elapsed: 0.0007290840148925781
ell 721, elapsed: 0.00043201446533203125
ell 720, elapsed: 0.00048804283142089844
ell 719, elapsed: 0.0004680156707763672
ell 718, elapsed: 0.0004799365997314453
ell 712, elapsed: 0.0008230209350585938
ell 711, elapsed: 0.0004589557647705078
ell 710, elapsed: 0.0004730224609375
ell 709, elapsed: 0.0004711151123046875
ell 708, elapsed: 0.0005381107330322266
ell 702, elapsed: 0.0007688999176025391
ell 701, elapsed: 0.00044989585876464844
ell 700, elapsed: 0.0004558563232421875
ell 699, elapsed: 0.0004630088806152344
ell 698, elapsed: 0.0004589557647705078
ell 692, elapsed: 0.0007600784301757812
ell 691, elapsed: 0.0005099773406982422
ell 690, elapsed: 0.0005300045013427734
ell 689, elapsed: 0.000514984130859375
ell 688, elapsed: 0.0005309581756591797
ell 682, elapsed: 0.0009710788726806641
ell 681, elapsed: 0.0005328655242919922
ell 680, elapsed: 0.0005381107330322266
ell 679, elapsed: 0.0005939006805419922
ell 678, elapsed: 0.0005431175231933594
ell 672, elapsed: 0.0009608268737792969
ell 671, elapsed: 0.0005290508270263672
ell 670, elapsed: 0.0005619525909423828
ell 669, elapsed: 0.0005431175231933594
ell 668, elapsed: 0.0005829334259033203
ell 662, elapsed: 0.0009729862213134766
ell 661, elapsed: 0.0005331039428710938
ell 660, elapsed: 0.0005540847778320312
ell 659, elapsed: 0.0005450248718261719
ell 658, elapsed: 0.0005509853363037109
ell 652, elapsed: 0.0010027885437011719
ell 651, elapsed: 0.0005528926849365234
ell 650, elapsed: 0.0005581378936767578
ell 649, elapsed: 0.0005421638488769531
ell 648, elapsed: 0.0005459785461425781
ell 642, elapsed: 0.0009770393371582031
ell 641, elapsed: 0.0005979537963867188
ell 640, elapsed: 0.0005490779876708984
ell 639, elapsed: 0.0005419254302978516
ell 638, elapsed: 0.000553131103515625
ell 632, elapsed: 0.0009710788726806641
ell 631, elapsed: 0.0005459785461425781
ell 630, elapsed: 0.0005731582641601562
ell 629, elapsed: 0.0005428791046142578
ell 628, elapsed: 0.0005559921264648438
ell 622, elapsed: 0.0009829998016357422
ell 621, elapsed: 0.0005471706390380859
ell 620, elapsed: 0.00055694580078125
ell 619, elapsed: 0.0005729198455810547
ell 618, elapsed: 0.0005679130554199219
ell 612, elapsed: 0.001001119613647461
ell 611, elapsed: 0.0005548000335693359
ell 610, elapsed: 0.0005679130554199219
ell 609, elapsed: 0.0005691051483154297
ell 608, elapsed: 0.0006210803985595703
ell 602, elapsed: 0.0010268688201904297
ell 601, elapsed: 0.0005779266357421875
ell 600, elapsed: 0.0005421638488769531
ell 599, elapsed: 0.0005309581756591797
ell 598, elapsed: 0.0005400180816650391
ell 592, elapsed: 0.0010378360748291016
ell 591, elapsed: 0.0005409717559814453
ell 590, elapsed: 0.0005640983581542969
ell 589, elapsed: 0.00055694580078125
ell 588, elapsed: 0.0005600452423095703
ell 582, elapsed: 0.0010080337524414062
ell 581, elapsed: 0.0006270408630371094
ell 580, elapsed: 0.0005598068237304688
ell 579, elapsed: 0.0004930496215820312
ell 578, elapsed: 0.0004630088806152344
ell 572, elapsed: 0.0007920265197753906
ell 571, elapsed: 0.0004489421844482422
ell 570, elapsed: 0.0004680156707763672
ell 569, elapsed: 0.0005059242248535156
ell 568, elapsed: 0.00047206878662109375
ell 562, elapsed: 0.0008189678192138672
ell 561, elapsed: 0.0004870891571044922
ell 560, elapsed: 0.00048089027404785156
ell 559, elapsed: 0.0005459785461425781
ell 558, elapsed: 0.0005350112915039062
ell 552, elapsed: 0.0010058879852294922
ell 551, elapsed: 0.0005309581756591797
ell 550, elapsed: 0.0005540847778320312
ell 549, elapsed: 0.0005390644073486328
ell 548, elapsed: 0.0005528926849365234
ell 542, elapsed: 0.0009860992431640625
ell 541, elapsed: 0.0006170272827148438
ell 540, elapsed: 0.0005581378936767578
ell 539, elapsed: 0.0005500316619873047
ell 538, elapsed: 0.0005528926849365234
ell 532, elapsed: 0.0009739398956298828
ell 531, elapsed: 0.000537872314453125
ell 530, elapsed: 0.0005879402160644531
ell 529, elapsed: 0.0005438327789306641
ell 528, elapsed: 0.0005540847778320312
ell 522, elapsed: 0.0009949207305908203
ell 521, elapsed: 0.0005371570587158203
ell 520, elapsed: 0.0005559921264648438
ell 519, elapsed: 0.0005650520324707031
ell 518, elapsed: 0.0005369186401367188
ell 512, elapsed: 0.0009729862213134766
ell 511, elapsed: 0.0005409717559814453
ell 510, elapsed: 0.000553131103515625
ell 509, elapsed: 0.0005578994750976562
ell 508, elapsed: 0.0006299018859863281
ell 502, elapsed: 0.0009999275207519531
ell 501, elapsed: 0.0005440711975097656
ell 500, elapsed: 0.0005619525909423828
ell 499, elapsed: 0.0005500316619873047
ell 498, elapsed: 0.0005459785461425781
ell 492, elapsed: 0.0010221004486083984
ell 491, elapsed: 0.0005390644073486328
ell 490, elapsed: 0.0005440711975097656
ell 489, elapsed: 0.000537872314453125
ell 488, elapsed: 0.0005488395690917969
ell 482, elapsed: 0.000982046127319336
ell 481, elapsed: 0.0005919933319091797
ell 480, elapsed: 0.0005450248718261719
ell 479, elapsed: 0.0005459785461425781
ell 478, elapsed: 0.0005469322204589844
ell 472, elapsed: 0.0009999275207519531
ell 471, elapsed: 0.0005371570587158203
ell 470, elapsed: 0.000579833984375
ell 469, elapsed: 0.0005478858947753906
ell 468, elapsed: 0.0005500316619873047
ell 462, elapsed: 0.0009930133819580078
ell 461, elapsed: 0.0005497932434082031
ell 460, elapsed: 0.0005419254302978516
ell 459, elapsed: 0.0006189346313476562
ell 458, elapsed: 0.0005278587341308594
ell 452, elapsed: 0.0009529590606689453
ell 451, elapsed: 0.0005130767822265625
ell 450, elapsed: 0.0005218982696533203
ell 449, elapsed: 0.0005009174346923828
ell 448, elapsed: 0.0005109310150146484
ell 442, elapsed: 0.0008728504180908203
ell 441, elapsed: 0.0004661083221435547
ell 440, elapsed: 0.0004801750183105469
ell 439, elapsed: 0.0004711151123046875
ell 438, elapsed: 0.0004780292510986328
ell 432, elapsed: 0.0008261203765869141
ell 431, elapsed: 0.00045609474182128906
ell 430, elapsed: 0.0005190372467041016
ell 429, elapsed: 0.00045800209045410156
ell 428, elapsed: 0.0004811286926269531
ell 422, elapsed: 0.0008401870727539062
ell 421, elapsed: 0.00046515464782714844
ell 420, elapsed: 0.0004749298095703125
ell 419, elapsed: 0.0004639625549316406
ell 418, elapsed: 0.0006070137023925781
ell 412, elapsed: 0.0009849071502685547
ell 411, elapsed: 0.0005350112915039062
ell 410, elapsed: 0.0005581378936767578
ell 409, elapsed: 0.0005478858947753906
ell 408, elapsed: 0.0005629062652587891
ell 402, elapsed: 0.001027822494506836
ell 401, elapsed: 0.0005440711975097656
ell 400, elapsed: 0.0005509853363037109
ell 399, elapsed: 0.0005428791046142578
ell 398, elapsed: 0.000553131103515625
ell 392, elapsed: 0.0009930133819580078
ell 391, elapsed: 0.0006010532379150391
ell 390, elapsed: 0.0005559921264648438
ell 389, elapsed: 0.0005538463592529297
ell 388, elapsed: 0.000553131103515625
ell 382, elapsed: 0.0010020732879638672
ell 381, elapsed: 0.0005400180816650391
ell 380, elapsed: 0.0005991458892822266
ell 379, elapsed: 0.0005519390106201172
ell 378, elapsed: 0.0005640983581542969
ell 372, elapsed: 0.0010030269622802734
ell 371, elapsed: 0.0005488395690917969
ell 370, elapsed: 0.0005528926849365234
ell 369, elapsed: 0.0005998611450195312
ell 368, elapsed: 0.0005509853363037109
ell 362, elapsed: 0.0010039806365966797
ell 361, elapsed: 0.0005509853363037109
ell 360, elapsed: 0.0005578994750976562
ell 359, elapsed: 0.0005490779876708984
ell 358, elapsed: 0.0006549358367919922
ell 352, elapsed: 0.000993967056274414
ell 351, elapsed: 0.0005300045013427734
ell 350, elapsed: 0.0005459785461425781
ell 349, elapsed: 0.0005369186401367188
ell 348, elapsed: 0.0005578994750976562
ell 342, elapsed: 0.0010180473327636719
ell 341, elapsed: 0.0005369186401367188
ell 340, elapsed: 0.0005428791046142578
ell 339, elapsed: 0.0005400180816650391
ell 338, elapsed: 0.0005400180816650391
ell 332, elapsed: 0.0009810924530029297
ell 331, elapsed: 0.0005960464477539062
ell 330, elapsed: 0.0005469322204589844
ell 329, elapsed: 0.0005369186401367188
ell 328, elapsed: 0.0005428791046142578
ell 322, elapsed: 0.000988006591796875
ell 321, elapsed: 0.0005369186401367188
ell 320, elapsed: 0.0005869865417480469
ell 319, elapsed: 0.0005421638488769531
ell 318, elapsed: 0.0005478858947753906
ell 312, elapsed: 0.0009889602661132812
ell 311, elapsed: 0.0005390644073486328
ell 310, elapsed: 0.0005559921264648438
ell 309, elapsed: 0.0005831718444824219
ell 308, elapsed: 0.0005497932434082031
ell 302, elapsed: 0.0009889602661132812
ell 301, elapsed: 0.0005350112915039062
ell 300, elapsed: 0.0005462169647216797
ell 299, elapsed: 0.0005478858947753906
ell 298, elapsed: 0.0006020069122314453
ell 292, elapsed: 0.0009989738464355469
ell 291, elapsed: 0.0005409717559814453
ell 290, elapsed: 0.0005488395690917969
ell 289, elapsed: 0.0005559921264648438
ell 288, elapsed: 0.0005540847778320312
ell 282, elapsed: 0.0010330677032470703
ell 281, elapsed: 0.0005409717559814453
ell 280, elapsed: 0.0005490779876708984
ell 279, elapsed: 0.0005369186401367188
ell 278, elapsed: 0.0005540847778320312
ell 272, elapsed: 0.0009670257568359375
ell 271, elapsed: 0.0005500316619873047
ell 270, elapsed: 0.000492095947265625
ell 269, elapsed: 0.000476837158203125
ell 268, elapsed: 0.0004849433898925781
ell 262, elapsed: 0.0008380413055419922
ell 261, elapsed: 0.0004680156707763672
ell 260, elapsed: 0.0004940032958984375
ell 259, elapsed: 0.0005271434783935547
ell 258, elapsed: 0.0005321502685546875
ell 252, elapsed: 0.0009579658508300781
ell 251, elapsed: 0.0005178451538085938
ell 250, elapsed: 0.0005428791046142578
ell 249, elapsed: 0.0005331039428710938
ell 248, elapsed: 0.0005331039428710938
ell 242, elapsed: 0.0010418891906738281
ell 241, elapsed: 0.0005271434783935547
ell 240, elapsed: 0.0005462169647216797
ell 239, elapsed: 0.0005390644073486328
ell 238, elapsed: 0.0005428791046142578
ell 232, elapsed: 0.0010628700256347656
ell 231, elapsed: 0.0005478858947753906
ell 230, elapsed: 0.0005559921264648438
ell 229, elapsed: 0.0005440711975097656
ell 228, elapsed: 0.0005469322204589844
ell 222, elapsed: 0.0009829998016357422
ell 221, elapsed: 0.0005688667297363281
ell 220, elapsed: 0.0005438327789306641
ell 219, elapsed: 0.0005521774291992188
ell 218, elapsed: 0.0005640983581542969
ell 212, elapsed: 0.0009949207305908203
ell 211, elapsed: 0.0005462169647216797
ell 210, elapsed: 0.0006411075592041016
ell 209, elapsed: 0.0005419254302978516
ell 208, elapsed: 0.0005550384521484375
ell 202, elapsed: 0.0009860992431640625
ell 201, elapsed: 0.0005359649658203125
ell 200, elapsed: 0.0005481243133544922
ell 199, elapsed: 0.0005278587341308594
ell 198, elapsed: 0.0005719661712646484
ell 192, elapsed: 0.0009620189666748047
ell 191, elapsed: 0.0005350112915039062
ell 190, elapsed: 0.0005428791046142578
ell 189, elapsed: 0.0005419254302978516
ell 188, elapsed: 0.0005609989166259766
ell 182, elapsed: 0.0010609626770019531
ell 181, elapsed: 0.0005359649658203125
ell 180, elapsed: 0.0005500316619873047
ell 179, elapsed: 0.0005910396575927734
ell 178, elapsed: 0.0005538463592529297
ell 172, elapsed: 0.0009629726409912109
ell 171, elapsed: 0.0005688667297363281
ell 170, elapsed: 0.0005230903625488281
ell 169, elapsed: 0.0004839897155761719
ell 168, elapsed: 0.0004839897155761719
ell 162, elapsed: 0.0008728504180908203
ell 161, elapsed: 0.00047087669372558594
ell 160, elapsed: 0.0004820823669433594
ell 159, elapsed: 0.0004818439483642578
ell 158, elapsed: 0.0005280971527099609
ell 152, elapsed: 0.0009610652923583984
ell 151, elapsed: 0.0005140304565429688
ell 150, elapsed: 0.0005199909210205078
ell 149, elapsed: 0.000537872314453125
ell 148, elapsed: 0.0005459785461425781
ell 142, elapsed: 0.0010509490966796875
ell 141, elapsed: 0.0005300045013427734
ell 140, elapsed: 0.0005362033843994141
ell 139, elapsed: 0.0005288124084472656
ell 138, elapsed: 0.0005319118499755859
ell 132, elapsed: 0.0009291172027587891
ell 131, elapsed: 0.0005600452423095703
ell 130, elapsed: 0.0004868507385253906
ell 129, elapsed: 0.0004611015319824219
ell 128, elapsed: 0.0004830360412597656
ell 122, elapsed: 0.0008749961853027344
ell 121, elapsed: 0.0004699230194091797
ell 120, elapsed: 0.0005030632019042969
ell 119, elapsed: 0.0005400180816650391
ell 118, elapsed: 0.0005600452423095703
ell 112, elapsed: 0.00102996826171875
ell 111, elapsed: 0.000553131103515625
ell 110, elapsed: 0.0005180835723876953
ell 109, elapsed: 0.0004849433898925781
ell 108, elapsed: 0.0005278587341308594
ell 102, elapsed: 0.0009410381317138672
ell 101, elapsed: 0.0021829605102539062
ell 100, elapsed: 0.002257823944091797
ell 99, elapsed: 0.002178192138671875
ell 98, elapsed: 0.002153158187866211
ell 92, elapsed: 0.003968954086303711
ell 91, elapsed: 0.0021619796752929688
ell 90, elapsed: 0.0023241043090820312
ell 89, elapsed: 0.0023870468139648438
ell 88, elapsed: 0.0023491382598876953
ell 82, elapsed: 0.004513978958129883
ell 81, elapsed: 0.002332925796508789
ell 80, elapsed: 0.002370119094848633
ell 79, elapsed: 0.0022699832916259766
ell 78, elapsed: 0.002240896224975586
ell 72, elapsed: 0.004429817199707031
ell 71, elapsed: 0.0023031234741210938
ell 70, elapsed: 0.0022430419921875
ell 69, elapsed: 0.002296924591064453
ell 68, elapsed: 0.0022780895233154297
ell 62, elapsed: 0.004416942596435547
ell 61, elapsed: 0.002317190170288086
ell 60, elapsed: 0.002295970916748047
ell 59, elapsed: 0.002279043197631836
ell 58, elapsed: 0.002312898635864258
ell 52, elapsed: 0.004439115524291992
ell 51, elapsed: 0.0022809505462646484
ell 50, elapsed: 0.0023009777069091797
ell 49, elapsed: 0.002318859100341797
ell 48, elapsed: 0.0022749900817871094
ell 42, elapsed: 0.004420042037963867
ell 41, elapsed: 0.0022401809692382812
ell 40, elapsed: 0.002173185348510742
ell 39, elapsed: 0.002260923385620117
ell 38, elapsed: 0.002321958541870117
ell 32, elapsed: 0.0043179988861083984
ell 31, elapsed: 0.0022330284118652344
ell 30, elapsed: 0.002256155014038086
ell 29, elapsed: 0.0021300315856933594
ell 28, elapsed: 0.003618001937866211
ell 22, elapsed: 0.004273891448974609
ell 21, elapsed: 0.0021758079528808594
ell 20, elapsed: 0.002250194549560547
ell 19, elapsed: 0.002310037612915039
ell 18, elapsed: 0.002338886260986328
ell 12, elapsed: 0.004354953765869141
ell 11, elapsed: 0.0022628307342529297
ell 10, elapsed: 0.0023109912872314453
ell 9, elapsed: 0.0022759437561035156
ell 8, elapsed: 0.0023131370544433594
  0.498837 seconds (68.56 k allocations: 12.176 MiB)
elapsed: 0.0027229785919189453
step:          0.041631 sec (0 allocations: 0 byte, 0.0% gc time)
swapping:      0.000397 sec (0 allocations: 0 byte, 0.0% gc time)
calc_Mellell!: 0.019035 sec (0 allocations: 0 byte, 0.0% gc time)
  t0 :  0.006965 sec (0 allocations: 0 byte, 0.0% gc time)
  tm2 : 0.048975 sec (0 allocations: 0 byte, 0.0% gc time)
  tm2s: 0.005964 sec (0 allocations: 0 byte, 0.0% gc time)
  tm4 : 0.113002 sec (0 allocations: 0 byte, 0.0% gc time)
  tp2 : 0.0 sec (0 allocations: 0 byte, 0.0% gc time)
  tp2s: 0.0 sec (0 allocations: 0 byte, 0.0% gc time)
  tp4 : 0.0 sec (0 allocations: 0 byte, 0.0% gc time)
calc_wtdll!:   0.35885 sec (48.6 k allocations: 11.096 MB, 0.0% gc time)
calc_wljj!:    0.02098 sec (69 allocations: 1.078 KB, 0.0% gc time)
mult_prefac!:  0.0 sec (0 allocations: 0 byte, 0.0% gc time)
convert:       0.0 sec (0 allocations: 0 byte, 0.0% gc time)
write:         0.023593 sec (0 allocations: 0 byte, 0.0% gc time)
test_rand_2f1: 0.0 sec (0 allocations: 0 byte, 0.0% gc time)
Closing outfile out/MlCache/MlCache.bin...   0.000007 seconds
xi, l=0, nu=0:   0.331293 seconds (603.08 k allocations: 32.983 MiB, 99.48% compilation time)
xi, l=0, nu=-2:  0.001475 seconds (114 allocations: 148.969 KiB)
Created 'out/xi.tsv'.
  q=1.1, R=0.6:	  0.401877 seconds (264.58 k allocations: 38.109 MiB, 5.30% gc time)
  q=1.1, R=0.7:	  0.465600 seconds (276.43 k allocations: 40.113 MiB, 3.80% gc time)
  q=1.1, R=0.8:	  0.447825 seconds (271.87 k allocations: 39.334 MiB, 1.37% gc time)
  q=1.1, R=0.9:	  0.573342 seconds (266.68 k allocations: 38.464 MiB, 0.93% gc time)
  q=1.1, R=0.998:	 13.193810 seconds (114.96 k allocations: 7.588 MiB)
  q=1.1, R=1.0:	  0.003058 seconds (8.20 k allocations: 704.344 KiB)

ℓ = 1000
Δℓ = 4
ΔℓRg1 = -4
N = 4096
q = 1.1
kmin = 1.0e-5
kmax = 1000.0
χ0 = 0.001
RR = RR.tsv
ℓmax = ℓmax.bin
f21 = f21.bin
kmin = 1.0e-5
kmax = 1000.0
dlrec    = 4
dlrecRg1 = -4
Output size: 1573632 bytes = 0.0014655590057373047 GiB
Output size: 786816 bytes = 0.0007327795028686523 GiB
Reading 'out/F21EllCache'...   0.001099 seconds (198 allocations: 533.078 KiB)
ellmax: 1002
lmaxcache: 1000
fell[:,1,1] = ComplexF64[1.726292812820208e-224 - 4.2281979352226965e-240im, 1.7282693092099638e-224 - 4.233038955177178e-240im]
ell 1002, elapsed: 1.3828277587890625e-5
ell 1001, elapsed: 0.0005919933319091797
ell 1000, elapsed: 0.004929065704345703
ell 999, elapsed: 0.003930091857910156
ell 998, elapsed: 0.003993034362792969
ell 44, elapsed: 0.5679628849029541
ell 43, elapsed: 0.0033321380615234375
ell 42, elapsed: 0.0032939910888671875
ell 41, elapsed: 0.0033500194549560547
ell 40, elapsed: 0.00335693359375
  0.599332 seconds (4.59 k allocations: 321.938 KiB)
elapsed: 0.004415035247802734
step:          0.565616 sec (0 allocations: 0 byte, 0.0% gc time)
swapping:      0.000376 sec (0 allocations: 0 byte, 0.0% gc time)
calc_Mellell!: 0.000713 sec (0 allocations: 0 byte, 0.0% gc time)
  t0 :  0.000495 sec (0 allocations: 0 byte, 0.0% gc time)
  tm2 : 0.006904 sec (0 allocations: 0 byte, 0.0% gc time)
  tm2s: 0.000439 sec (0 allocations: 0 byte, 0.0% gc time)
  tm4 : 0.020522 sec (0 allocations: 0 byte, 0.0% gc time)
  tp2 : 0.0 sec (0 allocations: 0 byte, 0.0% gc time)
  tp2s: 0.0 sec (0 allocations: 0 byte, 0.0% gc time)
  tp4 : 0.0 sec (0 allocations: 0 byte, 0.0% gc time)
calc_wtdll!:   0.028533 sec (480 allocations: 52.5 KB, 0.0% gc time)
calc_wljj!:    0.000828 sec (1 allocations: 16 byte, 0.0% gc time)
mult_prefac!:  0.0 sec (0 allocations: 0 byte, 0.0% gc time)
convert:       0.0 sec (0 allocations: 0 byte, 0.0% gc time)
write:         0.000641 sec (0 allocations: 0 byte, 0.0% gc time)
test_rand_2f1: 0.0 sec (0 allocations: 0 byte, 0.0% gc time)
Closing outfile out/MlCache/MlCache.bin...   0.000009 seconds
  0.359089 seconds (38 allocations: 66.859 KiB)
make_phi():   0.006542 seconds (65 allocations: 275.984 KiB)
  0.037317 seconds (11.42 k allocations: 711.960 KiB, 91.00% compilation time)
tskip:       0.0 sec (0 allocations: 0 byte, 0.0% gc time)
tread:       0.000583 sec (17 allocations: 1.266 KB, 0.0% gc time)
tmultphi:    0.000218 sec (0 allocations: 0 byte, 0.0% gc time)
tbrfft:      0.000987 sec (0 allocations: 0 byte, 0.0% gc time)
tmultprefac: 0.000504 sec (0 allocations: 0 byte, 0.0% gc time)
toutfunc:    0.000129 sec (0 allocations: 0 byte, 0.0% gc time)
Created 'out/wl42_jj00.tsv'.
Created 'out/wl42_jj02.tsv'.
    Testing TwoFAST tests passed 
