Julia Version 1.4.0-DEV.659
Commit 1c89535733 (2019-12-23 18:29 UTC)
Platform Info:
  OS: Linux (x86_64-pc-linux-gnu)
  CPU: Intel(R) Xeon(R) Silver 4114 CPU @ 2.20GHz
  WORD_SIZE: 64
  LIBM: libopenlibm
  LLVM: libLLVM-8.0.1 (ORCJIT, skylake)
Environment:
  JULIA_DEPOT_PATH = ::/usr/local/share/julia

 Resolving package versions...
 Installed Reexport ───────── v0.2.0
 Installed URIParser ──────── v0.4.0
 Installed FFTW_jll ───────── v3.3.9+3
 Installed IncGammaBeta ───── v0.1.0
 Installed AbstractFFTs ───── v0.5.0
 Installed SpecialFunctions ─ v0.8.0
 Installed BinaryProvider ─── v0.5.8
 Installed MKL_jll ────────── v2019.0.117+0
 Installed TwoFAST ────────── v0.1.0
 Installed IntelOpenMP_jll ── v2018.0.3+0
 Installed FFTW ───────────── v1.2.0
 Installed BinDeps ────────── v1.0.0
 Installed Nemo ───────────── v0.15.1
 Installed AbstractAlgebra ── v0.7.1
  Updating `~/.julia/environments/v1.4/Project.toml`
  [0dd23c3e] + TwoFAST v0.1.0
  Updating `~/.julia/environments/v1.4/Manifest.toml`
  [c3fe647b] + AbstractAlgebra v0.7.1
  [621f4979] + AbstractFFTs v0.5.0
  [9e28174c] + BinDeps v1.0.0
  [b99e7846] + BinaryProvider v0.5.8
  [7a1cc6ca] + FFTW v1.2.0
  [f5851436] + FFTW_jll v3.3.9+3
  [5087d2c0] + IncGammaBeta v0.1.0
  [1d5cc7b8] + IntelOpenMP_jll v2018.0.3+0
  [856f044c] + MKL_jll v2019.0.117+0
  [2edaba10] + Nemo v0.15.1
  [189a3867] + Reexport v0.2.0
  [276daf66] + SpecialFunctions v0.8.0
  [0dd23c3e] + TwoFAST v0.1.0
  [30578b45] + URIParser v0.4.0
  [2a0f44e3] + Base64 
  [ade2ca70] + Dates 
  [8bb1440f] + DelimitedFiles 
  [8ba89e20] + Distributed 
  [b77e0a4c] + InteractiveUtils 
  [76f85450] + LibGit2 
  [8f399da3] + Libdl 
  [37e2e46d] + LinearAlgebra 
  [56ddb016] + Logging 
  [d6f4376e] + Markdown 
  [a63ad114] + Mmap 
  [44cfe95a] + Pkg 
  [de0858da] + Printf 
  [3fa0cd96] + REPL 
  [9a3f8284] + Random 
  [ea8e919c] + SHA 
  [9e88b42a] + Serialization 
  [6462fe0b] + Sockets 
  [2f01184e] + SparseArrays 
  [8dfed614] + Test 
  [cf7118a7] + UUIDs 
  [4ec0a83e] + Unicode 
  Building FFTW ────────────→ `~/.julia/packages/FFTW/qqcBj/deps/build.log`
Path `/home/pkgeval/.julia/packages/FFTW/qqcBj` exists and looks like the correct package. Using existing path.
  Updating `/tmp/jl_AxCuMI/Project.toml`
  [7a1cc6ca] + FFTW v1.2.0 [`~/.julia/packages/FFTW/qqcBj`]
  Updating `/tmp/jl_AxCuMI/Manifest.toml`
  [7a1cc6ca] ~ FFTW v1.2.0 ⇒ v1.2.0 [`~/.julia/packages/FFTW/qqcBj`]
  Building SpecialFunctions → `~/.julia/packages/SpecialFunctions/ne2iw/deps/build.log`
Path `/home/pkgeval/.julia/packages/SpecialFunctions/ne2iw` exists and looks like the correct package. Using existing path.
  Updating `/tmp/jl_byhR2d/Project.toml`
  [276daf66] + SpecialFunctions v0.8.0 [`~/.julia/packages/SpecialFunctions/ne2iw`]
  Updating `/tmp/jl_byhR2d/Manifest.toml`
  [276daf66] ~ SpecialFunctions v0.8.0 ⇒ v0.8.0 [`~/.julia/packages/SpecialFunctions/ne2iw`]
  Building Nemo ────────────→ `~/.julia/packages/Nemo/qzx0m/deps/build.log`
Path `/home/pkgeval/.julia/packages/Nemo/qzx0m` exists and looks like the correct package. Using existing path.
  Updating `/tmp/jl_I4BYSh/Project.toml`
  [2edaba10] + Nemo v0.15.1 [`~/.julia/packages/Nemo/qzx0m`]
  Updating `/tmp/jl_I4BYSh/Manifest.toml`
  [2edaba10] ~ Nemo v0.15.1 ⇒ v0.15.1 [`~/.julia/packages/Nemo/qzx0m`]
   Testing TwoFAST
Path `/home/pkgeval/.julia/packages/TwoFAST/qFLyR` exists and looks like the correct package. Using existing path.
 Installed Dierckx ─ v0.4.1
  Updating `/tmp/jl_Lro2B5/Project.toml`
  [39dd38d3] + Dierckx v0.4.1
  [0dd23c3e] + TwoFAST v0.1.0 [`~/.julia/packages/TwoFAST/qFLyR`]
  Updating `/tmp/jl_Lro2B5/Manifest.toml`
  [39dd38d3] + Dierckx v0.4.1
  [0dd23c3e] ~ TwoFAST v0.1.0 ⇒ v0.1.0 [`~/.julia/packages/TwoFAST/qFLyR`]
  Building Dierckx → `~/.julia/packages/Dierckx/9SY4A/deps/build.log`
┌ Error: Pkg.Types.PkgError("could not find project file in package at /home/pkgeval/.julia/packages/Dierckx/9SY4A")
└ @ Pkg.Operations /buildworker/worker/package_linux64/build/usr/share/julia/stdlib/v1.4/Pkg/src/Operations.jl:1371
┌ Error: Pkg.Types.PkgError("could not find project file in package at /home/pkgeval/.julia/packages/Dierckx/9SY4A")
└ @ Pkg.Operations /buildworker/worker/package_linux64/build/usr/share/julia/stdlib/v1.4/Pkg/src/Operations.jl:1371
Path `/home/pkgeval/.julia/packages/TwoFAST/qFLyR` exists and looks like the correct package. Using existing path.
  Updating `/tmp/jl_Lro2B5/Project.toml`
  [39dd38d3] + Dierckx v0.4.1
  [7a1cc6ca] + FFTW v1.2.0
  [5087d2c0] + IncGammaBeta v0.1.0
  [2edaba10] + Nemo v0.15.1
  [276daf66] + SpecialFunctions v0.8.0
  [0dd23c3e] + TwoFAST v0.1.0 [`~/.julia/packages/TwoFAST/qFLyR`]
  [8bb1440f] + DelimitedFiles 
  [37e2e46d] + LinearAlgebra 
  [56ddb016] + Logging 
  [8dfed614] + Test 
  Updating `/tmp/jl_Lro2B5/Manifest.toml`
  [c3fe647b] + AbstractAlgebra v0.7.1
  [621f4979] + AbstractFFTs v0.5.0
  [9e28174c] + BinDeps v1.0.0
  [b99e7846] + BinaryProvider v0.5.8
  [39dd38d3] + Dierckx v0.4.1
  [7a1cc6ca] + FFTW v1.2.0
  [f5851436] + FFTW_jll v3.3.9+3
  [5087d2c0] + IncGammaBeta v0.1.0
  [1d5cc7b8] + IntelOpenMP_jll v2018.0.3+0
  [856f044c] + MKL_jll v2019.0.117+0
  [2edaba10] + Nemo v0.15.1
  [189a3867] + Reexport v0.2.0
  [276daf66] + SpecialFunctions v0.8.0
  [0dd23c3e] + TwoFAST v0.1.0 [`~/.julia/packages/TwoFAST/qFLyR`]
  [30578b45] + URIParser v0.4.0
  [2a0f44e3] + Base64 
  [ade2ca70] + Dates 
  [8bb1440f] + DelimitedFiles 
  [8ba89e20] + Distributed 
  [b77e0a4c] + InteractiveUtils 
  [76f85450] + LibGit2 
  [8f399da3] + Libdl 
  [37e2e46d] + LinearAlgebra 
  [56ddb016] + Logging 
  [d6f4376e] + Markdown 
  [a63ad114] + Mmap 
  [44cfe95a] + Pkg 
  [de0858da] + Printf 
  [3fa0cd96] + REPL 
  [9a3f8284] + Random 
  [ea8e919c] + SHA 
  [9e88b42a] + Serialization 
  [6462fe0b] + Sockets 
  [2f01184e] + SparseArrays 
  [8dfed614] + Test 
  [cf7118a7] + UUIDs 
  [4ec0a83e] + Unicode 
Running sandbox
Status `/tmp/jl_Lro2B5/Project.toml`
  [39dd38d3] Dierckx v0.4.1
  [7a1cc6ca] FFTW v1.2.0
  [5087d2c0] IncGammaBeta v0.1.0
  [2edaba10] Nemo v0.15.1
  [276daf66] SpecialFunctions v0.8.0
  [0dd23c3e] TwoFAST v0.1.0 [`~/.julia/packages/TwoFAST/qFLyR`]
  [8bb1440f] DelimitedFiles 
  [37e2e46d] LinearAlgebra 
  [56ddb016] Logging 
  [8dfed614] Test 
ERROR: LoadError: Dierckx is not properly installed. Please run Pkg.build("Dierckx")
Stacktrace:
 [1] error(::String) at ./error.jl:33
 [2] top-level scope at /home/pkgeval/.julia/packages/Dierckx/9SY4A/src/Dierckx.jl:24
 [3] include(::Module, ::String) at ./Base.jl:377
 [4] top-level scope at none:2
 [5] eval at ./boot.jl:331 [inlined]
 [6] eval(::Expr) at ./client.jl:449
 [7] top-level scope at ./none:3
in expression starting at /home/pkgeval/.julia/packages/Dierckx/9SY4A/src/Dierckx.jl:21
ERROR: LoadError: LoadError: LoadError: Failed to precompile Dierckx [39dd38d3-220a-591b-8e3c-4c3a8c710a94] to /home/pkgeval/.julia/compiled/v1.4/Dierckx/R6rOy_kuzuG.ji.
Stacktrace:
 [1] error(::String) at ./error.jl:33
 [2] compilecache(::Base.PkgId, ::String) at ./loading.jl:1270
 [3] _require(::Base.PkgId) at ./loading.jl:1029
 [4] require(::Base.PkgId) at ./loading.jl:927
 [5] require(::Module, ::Symbol) at ./loading.jl:922
 [6] include(::Module, ::String) at ./Base.jl:377
 [7] include(::String) at /home/pkgeval/.julia/packages/TwoFAST/qFLyR/test/TwoFASTTestLib.jl:4
 [8] top-level scope at /home/pkgeval/.julia/packages/TwoFAST/qFLyR/test/TwoFASTTestLib.jl:5
 [9] include(::Module, ::String) at ./Base.jl:377
 [10] include(::String) at /home/pkgeval/.julia/packages/TwoFAST/qFLyR/test/runtests.jl:4
 [11] top-level scope at /home/pkgeval/.julia/packages/TwoFAST/qFLyR/test/runtests.jl:6
 [12] include(::String) at ./client.jl:439
 [13] top-level scope at none:6
in expression starting at /home/pkgeval/.julia/packages/TwoFAST/qFLyR/test/PkSpectra.jl:8
in expression starting at /home/pkgeval/.julia/packages/TwoFAST/qFLyR/test/TwoFASTTestLib.jl:5
in expression starting at /home/pkgeval/.julia/packages/TwoFAST/qFLyR/test/runtests.jl:6
err = ProcessFailedException(Base.Process[Process(`/opt/julia/bin/julia -Cnative -J/opt/julia/lib/julia/sys.so -g1 --code-coverage=none --color=no --compiled-modules=yes --check-bounds=yes --inline=yes --startup-file=no --track-allocation=none --eval 'append!(empty!(Base.DEPOT_PATH), ["/home/pkgeval/.julia", "/opt/julia/local/share/julia", "/opt/julia/share/julia", "/usr/local/share/julia"])
append!(empty!(Base.DL_LOAD_PATH), String[])

cd("/home/pkgeval/.julia/packages/TwoFAST/qFLyR/test")
append!(empty!(ARGS), String[])
include("/home/pkgeval/.julia/packages/TwoFAST/qFLyR/test/runtests.jl")
'`, ProcessExited(1))])
ERROR: Package TwoFAST errored during testing
Stacktrace:
 [1] pkgerror(::String, ::Vararg{String,N} where N) at /buildworker/worker/package_linux64/build/usr/share/julia/stdlib/v1.4/Pkg/src/Types.jl:54
 [2] test(::Pkg.Types.Context, ::Array{Pkg.Types.PackageSpec,1}; coverage::Bool, julia_args::Cmd, test_args::Cmd, test_fn::Nothing) at /buildworker/worker/package_linux64/build/usr/share/julia/stdlib/v1.4/Pkg/src/Operations.jl:1475
 [3] test(::Pkg.Types.Context, ::Array{Pkg.Types.PackageSpec,1}; coverage::Bool, test_fn::Nothing, julia_args::Cmd, test_args::Cmd, kwargs::Base.Iterators.Pairs{Union{},Union{},Tuple{},NamedTuple{(),Tuple{}}}) at /buildworker/worker/package_linux64/build/usr/share/julia/stdlib/v1.4/Pkg/src/API.jl:313
 [4] test(::Pkg.Types.Context, ::Array{Pkg.Types.PackageSpec,1}) at /buildworker/worker/package_linux64/build/usr/share/julia/stdlib/v1.4/Pkg/src/API.jl:300
 [5] #test#66 at /buildworker/worker/package_linux64/build/usr/share/julia/stdlib/v1.4/Pkg/src/API.jl:294 [inlined]
 [6] test at /buildworker/worker/package_linux64/build/usr/share/julia/stdlib/v1.4/Pkg/src/API.jl:294 [inlined]
 [7] #test#65 at /buildworker/worker/package_linux64/build/usr/share/julia/stdlib/v1.4/Pkg/src/API.jl:293 [inlined]
 [8] test at /buildworker/worker/package_linux64/build/usr/share/julia/stdlib/v1.4/Pkg/src/API.jl:293 [inlined]
 [9] test(::String; kwargs::Base.Iterators.Pairs{Union{},Union{},Tuple{},NamedTuple{(),Tuple{}}}) at /buildworker/worker/package_linux64/build/usr/share/julia/stdlib/v1.4/Pkg/src/API.jl:292
 [10] test(::String) at /buildworker/worker/package_linux64/build/usr/share/julia/stdlib/v1.4/Pkg/src/API.jl:292
 [11] top-level scope at none:12
