Julia Version 1.6.0-DEV.462
Commit 09eee44bf6 (2020-07-14 15:04 UTC)
Platform Info:
  OS: Linux (x86_64-linux-gnu)
  CPU: Intel(R) Xeon(R) Silver 4114 CPU @ 2.20GHz
  WORD_SIZE: 64
  LIBM: libopenlibm
  LLVM: libLLVM-9.0.1 (ORCJIT, skylake-avx512)
Environment:
  JULIA_DEPOT_PATH = ::/usr/local/share/julia
  JULIA_NUM_THREADS = 2

  Resolving package versions...
  Installed MKL_jll ────────────────────── v2020.1.216+0
  Installed GMP_jll ────────────────────── v6.2.0+1
  Installed Arb_jll ────────────────────── v2.17.0+1
  Installed AbstractFFTs ───────────────── v0.5.0
  Installed SpecialFunctions ───────────── v0.10.3
  Installed BinaryProvider ─────────────── v0.5.10
  Installed AbstractAlgebra ────────────── v0.9.2
  Installed FLINT_jll ──────────────────── v0.0.2+0
  Installed OpenSpecFun_jll ────────────── v0.5.3+3
  Installed FFTW_jll ───────────────────── v3.3.9+5
  Installed Reexport ───────────────────── v0.2.0
  Installed LoadFlint ──────────────────── v0.2.1
  Installed Antic_jll ──────────────────── v0.1.0+2
  Installed MPFR_jll ───────────────────── v4.0.2+2
  Installed IntelOpenMP_jll ────────────── v2018.0.3+0
  Installed CompilerSupportLibraries_jll ─ v0.3.3+0
  Installed TwoFAST ────────────────────── v0.1.1
  Installed FFTW ───────────────────────── v1.2.2
  Installed Nemo ───────────────────────── v0.17.6
Updating `~/.julia/environments/v1.6/Project.toml`
  [0dd23c3e] + TwoFAST v0.1.1
Updating `~/.julia/environments/v1.6/Manifest.toml`
  [c3fe647b] + AbstractAlgebra v0.9.2
  [621f4979] + AbstractFFTs v0.5.0
  [e21ec000] + Antic_jll v0.1.0+2
  [d9960996] + Arb_jll v2.17.0+1
  [b99e7846] + BinaryProvider v0.5.10
  [e66e0078] + CompilerSupportLibraries_jll v0.3.3+0
  [7a1cc6ca] + FFTW v1.2.2
  [f5851436] + FFTW_jll v3.3.9+5
  [e134572f] + FLINT_jll v0.0.2+0
  [781609d7] + GMP_jll v6.2.0+1
  [1d5cc7b8] + IntelOpenMP_jll v2018.0.3+0
  [472f376f] + LoadFlint v0.2.1
  [856f044c] + MKL_jll v2020.1.216+0
  [3a97d323] + MPFR_jll v4.0.2+2
  [2edaba10] + Nemo v0.17.6
  [efe28fd5] + OpenSpecFun_jll v0.5.3+3
  [189a3867] + Reexport v0.2.0
  [276daf66] + SpecialFunctions v0.10.3
  [0dd23c3e] + TwoFAST v0.1.1
  [2a0f44e3] + Base64
  [ade2ca70] + Dates
  [8bb1440f] + DelimitedFiles
  [8ba89e20] + Distributed
  [b77e0a4c] + InteractiveUtils
  [76f85450] + LibGit2
  [8f399da3] + Libdl
  [37e2e46d] + LinearAlgebra
  [56ddb016] + Logging
  [d6f4376e] + Markdown
  [a63ad114] + Mmap
  [44cfe95a] + Pkg
  [de0858da] + Printf
  [3fa0cd96] + REPL
  [9a3f8284] + Random
  [ea8e919c] + SHA
  [9e88b42a] + Serialization
  [6462fe0b] + Sockets
  [2f01184e] + SparseArrays
  [8dfed614] + Test
  [cf7118a7] + UUIDs
  [4ec0a83e] + Unicode
   Building LoadFlint → `~/.julia/packages/LoadFlint/jHlQx/deps/build.log`
   Building Nemo ─────→ `~/.julia/packages/Nemo/vCIJx/deps/build.log`
   Building FFTW ─────→ `~/.julia/packages/FFTW/kcXL6/deps/build.log`
    Testing TwoFAST
Status `/tmp/jl_y6b8B0/Project.toml`
  [39dd38d3] Dierckx v0.4.2
  [7a1cc6ca] FFTW v1.2.2
  [2edaba10] Nemo v0.17.6
  [276daf66] SpecialFunctions v0.10.3
  [0dd23c3e] TwoFAST v0.1.1
  [8bb1440f] DelimitedFiles
  [37e2e46d] LinearAlgebra
  [56ddb016] Logging
  [8dfed614] Test
Status `/tmp/jl_y6b8B0/Manifest.toml`
  [c3fe647b] AbstractAlgebra v0.9.2
  [621f4979] AbstractFFTs v0.5.0
  [e21ec000] Antic_jll v0.1.0+2
  [d9960996] Arb_jll v2.17.0+1
  [b99e7846] BinaryProvider v0.5.10
  [e66e0078] CompilerSupportLibraries_jll v0.3.3+0
  [39dd38d3] Dierckx v0.4.2
  [7a1cc6ca] FFTW v1.2.2
  [f5851436] FFTW_jll v3.3.9+5
  [e134572f] FLINT_jll v0.0.2+0
  [781609d7] GMP_jll v6.2.0+1
  [1d5cc7b8] IntelOpenMP_jll v2018.0.3+0
  [472f376f] LoadFlint v0.2.1
  [856f044c] MKL_jll v2020.1.216+0
  [3a97d323] MPFR_jll v4.0.2+2
  [2edaba10] Nemo v0.17.6
  [efe28fd5] OpenSpecFun_jll v0.5.3+3
  [189a3867] Reexport v0.2.0
  [276daf66] SpecialFunctions v0.10.3
  [0dd23c3e] TwoFAST v0.1.1
  [2a0f44e3] Base64
  [ade2ca70] Dates
  [8bb1440f] DelimitedFiles
  [8ba89e20] Distributed
  [b77e0a4c] InteractiveUtils
  [76f85450] LibGit2
  [8f399da3] Libdl
  [37e2e46d] LinearAlgebra
  [56ddb016] Logging
  [d6f4376e] Markdown
  [a63ad114] Mmap
  [44cfe95a] Pkg
  [de0858da] Printf
  [3fa0cd96] REPL
  [9a3f8284] Random
  [ea8e919c] SHA
  [9e88b42a] Serialization
  [6462fe0b] Sockets
  [2f01184e] SparseArrays
  [8dfed614] Test
  [cf7118a7] UUIDs
  [4ec0a83e] Unicode
Testing ξ(r), ℓ=0, ν=-1 ... passed
Testing ξ(r), ℓ=0, ν=0 ... passed
Testing ξ(r), ℓ=0, ν=1 ... passed
Testing ξ(r), ℓ=0, ν=2 ... passed
Testing ξ(r), ℓ=0, ν=3 ... passed
Testing ξ(r), ℓ=1, ν=0 ... passed
Testing ξ(r), ℓ=1, ν=1 ... passed
Testing ξ(r), ℓ=1, ν=2 ... passed
Testing ξ(r), ℓ=1, ν=3 ... passed
Testing ξ(r), ℓ=2, ν=-1 ... passed
Testing ξ(r), ℓ=2, ν=0 ... passed
Testing ξ(r), ℓ=2, ν=1 ... passed
Testing ξ(r), ℓ=2, ν=2 ... passed
Testing ξ(r), ℓ=2, ν=3 ... passed
Testing ξ(r), ℓ=3, ν=-1 ... passed
Testing ξ(r), ℓ=3, ν=0 ... passed
Testing ξ(r), ℓ=3, ν=1 ... passed
Testing ξ(r), ℓ=3, ν=2 ... passed
Testing ξ(r), ℓ=3, ν=3 ... passed
Testing ξ(r), ℓ=4, ν=-1 ... passed
Testing ξ(r), ℓ=4, ν=0 ... passed
Testing ξ(r), ℓ=4, ν=1 ... passed
Testing ξ(r), ℓ=4, ν=2 ... passed
Testing ξ(r), ℓ=4, ν=3 ... passed
Testing ξ(r) ... passed
Testing ξ′(r) ... passed
Testing ξ″(r) ... passed
Calculating fmax: 
  dlrec    = 4
  dlrecRg1 = -4
  q=1.1, R=1.1:	  4.693562 seconds (896.74 k allocations: 55.696 MiB, 0.65% gc time)

  4.883779 seconds (915.08 k allocations: 56.777 MiB, 2.67% gc time)
ℓ = 1202
Δℓ = 4
ΔℓRg1 = -4
N = 1600
q = 1.1
kmin = 1.0e-5
kmax = 100000.00000000004
χ0 = 0.023029999999999995
RR = RR.tsv
ℓmax = ℓmax.bin
f21 = f21.bin
kmin = 1.0e-5
kmax = 100000.0
dlrec    = 4
dlrecRg1 = -4
Output size: 5741568 bytes = 0.005347251892089844 GiB
Output size: 51264 bytes = 4.774332046508789e-5 GiB
Reading 'out/F21EllCache'...   0.879339 seconds (428.66 k allocations: 24.800 MiB)
ellmax: 1202
lmaxcache: 1202
fell[:,1,1] = ComplexF64[3.9583795592771634e-52 - 9.695233714158177e-68im, 3.990121772925759e-52 - 9.772979714843386e-68im]
ell 1202, elapsed: 0.018964052200317383
ERROR: LoadError: MethodError: no method matching +(::NamedTuple{(:value, :time, :bytes, :gctime, :gcstats),Tuple{DataType,Float64,Int64,Float64,Base.GC_Diff}}, ::NamedTuple{(:value, :time, :bytes, :gctime, :gcstats),Tuple{Nothing,Float64,Int64,Float64,Base.GC_Diff}})
Closest candidates are:
  +(::Any, ::Any, !Matched::Any, !Matched::Any...) at operators.jl:538
Stacktrace:
 [1] macro expansion
   @ ~/.julia/packages/TwoFAST/CGKJy/src/TwoFAST.jl:1538 [inlined]
 [2] macro expansion
   @ ./timing.jl:174 [inlined]
 [3] calcMljj(RR::Vector{Float64}; kmin::Float64, kmax::Float64, ell::Vector{Int64}, jmax::Int64, r0::Float64, N::Int64, q::Float64, dlrec::Int64, dlrecRg1::Int64, dlmin::Int64, dlmax::Int64, fell_lmax_file::String, outfile::String, TMell::Type)
   @ TwoFAST ~/.julia/packages/TwoFAST/CGKJy/src/TwoFAST.jl:1532
 [4] wlrr(RR::Vector{Float64}, ell::Vector{Int64}; prefix::String, N::Int64, chi0::Float64, kmin::Float64, kmax::Float64)
   @ Main.TestTwoFAST.TwoFASTTestLib ~/.julia/packages/TwoFAST/CGKJy/test/TwoFASTTestLib.jl:51
 [5] calc_wlrr_χ2303(R::Float64, ell::Vector{Int64})
   @ Main.TestTwoFAST.TwoFASTTestLib ~/.julia/packages/TwoFAST/CGKJy/test/TwoFASTTestLib.jl:83
 [6] test_wl_χ2303_R(R::Float64, atol::Float64)
   @ Main.TestTwoFAST ~/.julia/packages/TwoFAST/CGKJy/test/runtests.jl:82
 [7] top-level scope
   @ ~/.julia/packages/TwoFAST/CGKJy/test/runtests.jl:167
 [8] include(fname::String)
   @ Base.MainInclude ./client.jl:444
 [9] top-level scope
   @ none:6
in expression starting at /home/pkgeval/.julia/packages/TwoFAST/CGKJy/test/runtests.jl:167
ERROR: Package TwoFAST errored during testing
Stacktrace:
  [1] pkgerror(::String, ::Vararg{String,N} where N)
    @ Pkg.Types /workspace/srcdir/usr/share/julia/stdlib/v1.6/Pkg/src/Types.jl:52
  [2] test(ctx::Pkg.Types.Context, pkgs::Vector{Pkg.Types.PackageSpec}; coverage::Bool, julia_args::Cmd, test_args::Cmd, test_fn::Nothing)
    @ Pkg.Operations /workspace/srcdir/usr/share/julia/stdlib/v1.6/Pkg/src/Operations.jl:1561
  [3] test(ctx::Pkg.Types.Context, pkgs::Vector{Pkg.Types.PackageSpec}; coverage::Bool, test_fn::Nothing, julia_args::Cmd, test_args::Cmd, kwargs::Base.Iterators.Pairs{Union{},Union{},Tuple{},NamedTuple{(),Tuple{}}})
    @ Pkg.API /workspace/srcdir/usr/share/julia/stdlib/v1.6/Pkg/src/API.jl:327
  [4] test(ctx::Pkg.Types.Context, pkgs::Vector{Pkg.Types.PackageSpec})
    @ Pkg.API /workspace/srcdir/usr/share/julia/stdlib/v1.6/Pkg/src/API.jl:314
  [5] #test#61
    @ /workspace/srcdir/usr/share/julia/stdlib/v1.6/Pkg/src/API.jl:67 [inlined]
  [6] test
    @ /workspace/srcdir/usr/share/julia/stdlib/v1.6/Pkg/src/API.jl:67 [inlined]
  [7] #test#60
    @ /workspace/srcdir/usr/share/julia/stdlib/v1.6/Pkg/src/API.jl:66 [inlined]
  [8] test
    @ /workspace/srcdir/usr/share/julia/stdlib/v1.6/Pkg/src/API.jl:66 [inlined]
  [9] test(pkg::String; kwargs::Base.Iterators.Pairs{Union{},Union{},Tuple{},NamedTuple{(),Tuple{}}})
    @ Pkg.API /workspace/srcdir/usr/share/julia/stdlib/v1.6/Pkg/src/API.jl:65
 [10] test(pkg::String)
    @ Pkg.API /workspace/srcdir/usr/share/julia/stdlib/v1.6/Pkg/src/API.jl:65
 [11] top-level scope
    @ none:16
