Julia Version 1.4.0-DEV.596
Commit 1c87f695be (2019-12-12 22:34 UTC)
Platform Info:
  OS: Linux (x86_64-pc-linux-gnu)
  CPU: Intel(R) Xeon(R) Silver 4114 CPU @ 2.20GHz
  WORD_SIZE: 64
  LIBM: libopenlibm
  LLVM: libLLVM-8.0.1 (ORCJIT, skylake)
Environment:
  JULIA_DEPOT_PATH = ::/usr/local/share/julia

 Resolving package versions...
 Installed Reexport ───────── v0.2.0
 Installed URIParser ──────── v0.4.0
 Installed VersionParsing ─── v1.2.0
 Installed FFTW ───────────── v1.1.0
 Installed SpecialFunctions ─ v0.8.0
 Installed AbstractAlgebra ── v0.7.1
 Installed TwoFAST ────────── v0.1.0
 Installed Nemo ───────────── v0.15.1
 Installed BinaryProvider ─── v0.5.8
 Installed IncGammaBeta ───── v0.1.0
 Installed Conda ──────────── v1.3.0
 Installed Parsers ────────── v0.3.10
 Installed JSON ───────────── v0.21.0
 Installed AbstractFFTs ───── v0.5.0
 Installed BinDeps ────────── v1.0.0
  Updating `~/.julia/environments/v1.4/Project.toml`
  [0dd23c3e] + TwoFAST v0.1.0
  Updating `~/.julia/environments/v1.4/Manifest.toml`
  [c3fe647b] + AbstractAlgebra v0.7.1
  [621f4979] + AbstractFFTs v0.5.0
  [9e28174c] + BinDeps v1.0.0
  [b99e7846] + BinaryProvider v0.5.8
  [8f4d0f93] + Conda v1.3.0
  [7a1cc6ca] + FFTW v1.1.0
  [5087d2c0] + IncGammaBeta v0.1.0
  [682c06a0] + JSON v0.21.0
  [2edaba10] + Nemo v0.15.1
  [69de0a69] + Parsers v0.3.10
  [189a3867] + Reexport v0.2.0
  [276daf66] + SpecialFunctions v0.8.0
  [0dd23c3e] + TwoFAST v0.1.0
  [30578b45] + URIParser v0.4.0
  [81def892] + VersionParsing v1.2.0
  [2a0f44e3] + Base64 
  [ade2ca70] + Dates 
  [8bb1440f] + DelimitedFiles 
  [8ba89e20] + Distributed 
  [b77e0a4c] + InteractiveUtils 
  [76f85450] + LibGit2 
  [8f399da3] + Libdl 
  [37e2e46d] + LinearAlgebra 
  [56ddb016] + Logging 
  [d6f4376e] + Markdown 
  [a63ad114] + Mmap 
  [44cfe95a] + Pkg 
  [de0858da] + Printf 
  [3fa0cd96] + REPL 
  [9a3f8284] + Random 
  [ea8e919c] + SHA 
  [9e88b42a] + Serialization 
  [6462fe0b] + Sockets 
  [2f01184e] + SparseArrays 
  [8dfed614] + Test 
  [cf7118a7] + UUIDs 
  [4ec0a83e] + Unicode 
  Building SpecialFunctions → `~/.julia/packages/SpecialFunctions/ne2iw/deps/build.log`
  Building Conda ───────────→ `~/.julia/packages/Conda/kLXeC/deps/build.log`
  Building FFTW ────────────→ `~/.julia/packages/FFTW/loJ3F/deps/build.log`
  Building Nemo ────────────→ `~/.julia/packages/Nemo/qzx0m/deps/build.log`
   Testing TwoFAST
 Resolving package versions...

gzip: stdin: not in gzip format
tar: Child returned status 1
tar: Error is not recoverable: exiting now
┌ Warning: failed to extract archive downloaded from https://github.com/kbarbary/Dierckx.jl.git
└ @ Pkg.Operations /buildworker/worker/package_linux64/build/usr/share/julia/stdlib/v1.4/Pkg/src/Operations.jl:481
   Cloning [39dd38d3-220a-591b-8e3c-4c3a8c710a94] Dierckx from https://github.com/kbarbary/Dierckx.jl.git
[?25l    Fetching: [>                                        ]  0.0 %[2K[?25h Installed Dierckx ─ v0.4.1
  Building Dierckx → `~/.julia/packages/Dierckx/9SY4A/deps/build.log`
Status `/tmp/jl_nJTB93/Manifest.toml`
  [c3fe647b] AbstractAlgebra v0.7.1
  [621f4979] AbstractFFTs v0.5.0
  [9e28174c] BinDeps v1.0.0
  [b99e7846] BinaryProvider v0.5.8
  [8f4d0f93] Conda v1.3.0
  [39dd38d3] Dierckx v0.4.1
  [7a1cc6ca] FFTW v1.1.0
  [5087d2c0] IncGammaBeta v0.1.0
  [682c06a0] JSON v0.21.0
  [2edaba10] Nemo v0.15.1
  [69de0a69] Parsers v0.3.10
  [189a3867] Reexport v0.2.0
  [276daf66] SpecialFunctions v0.8.0
  [0dd23c3e] TwoFAST v0.1.0
  [30578b45] URIParser v0.4.0
  [81def892] VersionParsing v1.2.0
  [2a0f44e3] Base64  [`@stdlib/Base64`]
  [ade2ca70] Dates  [`@stdlib/Dates`]
  [8bb1440f] DelimitedFiles  [`@stdlib/DelimitedFiles`]
  [8ba89e20] Distributed  [`@stdlib/Distributed`]
  [b77e0a4c] InteractiveUtils  [`@stdlib/InteractiveUtils`]
  [76f85450] LibGit2  [`@stdlib/LibGit2`]
  [8f399da3] Libdl  [`@stdlib/Libdl`]
  [37e2e46d] LinearAlgebra  [`@stdlib/LinearAlgebra`]
  [56ddb016] Logging  [`@stdlib/Logging`]
  [d6f4376e] Markdown  [`@stdlib/Markdown`]
  [a63ad114] Mmap  [`@stdlib/Mmap`]
  [44cfe95a] Pkg  [`@stdlib/Pkg`]
  [de0858da] Printf  [`@stdlib/Printf`]
  [3fa0cd96] REPL  [`@stdlib/REPL`]
  [9a3f8284] Random  [`@stdlib/Random`]
  [ea8e919c] SHA  [`@stdlib/SHA`]
  [9e88b42a] Serialization  [`@stdlib/Serialization`]
  [6462fe0b] Sockets  [`@stdlib/Sockets`]
  [2f01184e] SparseArrays  [`@stdlib/SparseArrays`]
  [8dfed614] Test  [`@stdlib/Test`]
  [cf7118a7] UUIDs  [`@stdlib/UUIDs`]
  [4ec0a83e] Unicode  [`@stdlib/Unicode`]

Welcome to Nemo version 0.15.1

Nemo comes with absolutely no warranty whatsoever


Welcome to Nemo version 0.15.1

Nemo comes with absolutely no warranty whatsoever

Testing ξ(r), ℓ=0, ν=-1 ... passed
Testing ξ(r), ℓ=0, ν=0 ... passed
Testing ξ(r), ℓ=0, ν=1 ... passed
Testing ξ(r), ℓ=0, ν=2 ... passed
Testing ξ(r), ℓ=0, ν=3 ... passed
Testing ξ(r), ℓ=1, ν=0 ... passed
Testing ξ(r), ℓ=1, ν=1 ... passed
Testing ξ(r), ℓ=1, ν=2 ... passed
Testing ξ(r), ℓ=1, ν=3 ... passed
Testing ξ(r), ℓ=2, ν=-1 ... passed
Testing ξ(r), ℓ=2, ν=0 ... passed
Testing ξ(r), ℓ=2, ν=1 ... passed
Testing ξ(r), ℓ=2, ν=2 ... passed
Testing ξ(r), ℓ=2, ν=3 ... passed
Testing ξ(r), ℓ=3, ν=-1 ... passed
Testing ξ(r), ℓ=3, ν=0 ... passed
Testing ξ(r), ℓ=3, ν=1 ... passed
Testing ξ(r), ℓ=3, ν=2 ... passed
Testing ξ(r), ℓ=3, ν=3 ... passed
Testing ξ(r), ℓ=4, ν=-1 ... passed
Testing ξ(r), ℓ=4, ν=0 ... passed
Testing ξ(r), ℓ=4, ν=1 ... passed
Testing ξ(r), ℓ=4, ν=2 ... passed
Testing ξ(r), ℓ=4, ν=3 ... passed
Testing ξ(r) ... passed
Testing ξ′(r) ... passed
Testing ξ″(r) ... passed
Calculating fmax: 
  dlrec    = 4
  dlrecRg1 = -4
  q=1.1, R=1.1:	  5.493298 seconds (1.20 M allocations: 67.957 MiB, 1.43% gc time)

  5.548173 seconds (1.22 M allocations: 69.068 MiB, 1.41% gc time)
ℓ = 1202
Δℓ = 4
ΔℓRg1 = -4
N = 1600
q = 1.1
kmin = 1.0e-5
kmax = 100000.00000000004
χ0 = 0.023029999999999995
RR = RR.tsv
ℓmax = ℓmax.bin
f21 = f21.bin
kmin = 1.0e-5
kmax = 100000.0
dlrec    = 4
dlrecRg1 = -4
Output size: 5741568 bytes = 0.005347251892089844 GiB
Output size: 51264 bytes = 4.774332046508789e-5 GiB
Reading 'out/F21EllCache'...   0.686198 seconds (314.29 k allocations: 16.149 MiB)
ellmax: 1202
lmaxcache: 1202
fell[:,1,1] = Complex{Float64}[3.9583795592771634e-52 - 9.695233714158177e-68im, 3.990121772925759e-52 - 9.772979714843386e-68im]
ell 1202, elapsed: 0.0001270771026611328
ell 1201, elapsed: 2.267728805541992
ell 1200, elapsed: 0.0006501674652099609
ell 1199, elapsed: 0.0006389617919921875
ell 1198, elapsed: 0.0007519721984863281
ell 1002, elapsed: 0.00973200798034668
ell 1001, elapsed: 0.0005209445953369141
ell 1000, elapsed: 0.0005331039428710938
ell 999, elapsed: 0.0005509853363037109
ell 998, elapsed: 0.0006110668182373047
ell 902, elapsed: 0.005166053771972656
ell 901, elapsed: 0.0005409717559814453
ell 900, elapsed: 0.0005309581756591797
ell 899, elapsed: 0.0005660057067871094
ell 898, elapsed: 0.0005409717559814453
ell 802, elapsed: 0.005040884017944336
ell 801, elapsed: 0.000553131103515625
ell 800, elapsed: 0.0005090236663818359
ell 799, elapsed: 0.0004999637603759766
ell 798, elapsed: 0.0005011558532714844
ell 702, elapsed: 0.004991054534912109
ell 701, elapsed: 0.0005397796630859375
ell 700, elapsed: 0.0004930496215820312
ell 699, elapsed: 0.0005640983581542969
ell 698, elapsed: 0.0006270408630371094
ell 602, elapsed: 0.005090951919555664
ell 601, elapsed: 0.0005300045013427734
ell 600, elapsed: 0.0006670951843261719
ell 599, elapsed: 0.0005769729614257812
ell 598, elapsed: 0.0005819797515869141
ell 502, elapsed: 0.004812955856323242
ell 501, elapsed: 0.0005619525909423828
ell 500, elapsed: 0.0005180835723876953
ell 499, elapsed: 0.0006010532379150391
ell 498, elapsed: 0.0005290508270263672
ell 402, elapsed: 0.0050640106201171875
ell 401, elapsed: 0.0005168914794921875
ell 400, elapsed: 0.0005998611450195312
ell 399, elapsed: 0.0005748271942138672
ell 398, elapsed: 0.0005469322204589844
ell 302, elapsed: 0.0169830322265625
ell 301, elapsed: 0.0006210803985595703
ell 300, elapsed: 0.0005519390106201172
ell 299, elapsed: 0.0005440711975097656
ell 298, elapsed: 0.0005390644073486328
ell 202, elapsed: 0.005051136016845703
ell 201, elapsed: 0.0006458759307861328
ell 200, elapsed: 0.0005528926849365234
ell 199, elapsed: 0.0005469322204589844
ell 198, elapsed: 0.0005362033843994141
ell 152, elapsed: 0.002729177474975586
ell 151, elapsed: 0.011356830596923828
ell 150, elapsed: 0.0006308555603027344
ell 149, elapsed: 0.0005512237548828125
ell 148, elapsed: 0.0005431175231933594
ell 127, elapsed: 0.0015990734100341797
ell 126, elapsed: 0.0005679130554199219
ell 125, elapsed: 0.0005478858947753906
ell 124, elapsed: 0.0005660057067871094
ell 123, elapsed: 0.0005278587341308594
ell 114, elapsed: 0.0009789466857910156
ell 113, elapsed: 0.0005528926849365234
ell 112, elapsed: 0.0005130767822265625
ell 111, elapsed: 0.0005137920379638672
ell 110, elapsed: 0.0005199909210205078
ell 102, elapsed: 0.0009768009185791016
ell 101, elapsed: 0.0005669593811035156
ell 100, elapsed: 0.0005621910095214844
ell 99, elapsed: 0.0005359649658203125
ell 98, elapsed: 0.0005130767822265625
ell 97, elapsed: 0.001524209976196289
ell 96, elapsed: 0.0020809173583984375
ell 95, elapsed: 0.0016541481018066406
ell 94, elapsed: 0.00168609619140625
ell 93, elapsed: 0.0010919570922851562
ell 92, elapsed: 0.0006139278411865234
ell 91, elapsed: 0.00815582275390625
ell 90, elapsed: 0.0006759166717529297
ell 89, elapsed: 0.0005650520324707031
ell 88, elapsed: 0.0006358623504638672
ell 87, elapsed: 0.0005500316619873047
ell 86, elapsed: 0.0006239414215087891
ell 85, elapsed: 0.0005538463592529297
ell 84, elapsed: 0.0006239414215087891
ell 83, elapsed: 0.0005621910095214844
ell 82, elapsed: 0.0006210803985595703
ell 81, elapsed: 0.0005490779876708984
ell 80, elapsed: 0.003988981246948242
ell 79, elapsed: 0.0006258487701416016
ell 78, elapsed: 0.0006058216094970703
ell 77, elapsed: 0.0005240440368652344
ell 76, elapsed: 0.0006680488586425781
ell 75, elapsed: 0.0005948543548583984
ell 74, elapsed: 0.005236148834228516
ell 73, elapsed: 0.0005450248718261719
ell 72, elapsed: 0.0006089210510253906
ell 71, elapsed: 0.0005319118499755859
ell 70, elapsed: 0.0006260871887207031
ell 69, elapsed: 0.0005469322204589844
ell 68, elapsed: 0.0006000995635986328
ell 67, elapsed: 0.0005738735198974609
ell 66, elapsed: 0.0006349086761474609
ell 65, elapsed: 0.0005309581756591797
ell 64, elapsed: 0.0006129741668701172
ell 63, elapsed: 0.0005331039428710938
ell 62, elapsed: 0.0005991458892822266
ell 61, elapsed: 0.0054280757904052734
ell 60, elapsed: 0.0006210803985595703
ell 59, elapsed: 0.0005259513854980469
ell 58, elapsed: 0.0005860328674316406
ell 57, elapsed: 0.04721999168395996
ell 56, elapsed: 0.0007297992706298828
ell 55, elapsed: 0.0005099773406982422
ell 54, elapsed: 0.0005719661712646484
ell 53, elapsed: 0.0005018711090087891
ell 52, elapsed: 0.0005729198455810547
ell 51, elapsed: 0.0005021095275878906
ell 50, elapsed: 0.0014078617095947266
ell 49, elapsed: 0.0006589889526367188
ell 48, elapsed: 0.0007898807525634766
ell 47, elapsed: 0.0006427764892578125
ell 46, elapsed: 0.0006558895111083984
ell 45, elapsed: 0.0005919933319091797
ell 44, elapsed: 0.0006730556488037109
ell 43, elapsed: 0.0005800724029541016
ell 42, elapsed: 0.0006830692291259766
ell 41, elapsed: 0.0005958080291748047
ell 40, elapsed: 0.0007460117340087891
ell 39, elapsed: 0.0008170604705810547
ell 38, elapsed: 0.0006580352783203125
ell 37, elapsed: 0.0005929470062255859
ell 36, elapsed: 0.0006480216979980469
ell 35, elapsed: 0.0005550384521484375
ell 34, elapsed: 0.0005669593811035156
ell 33, elapsed: 0.0006091594696044922
ell 32, elapsed: 0.0007331371307373047
ell 31, elapsed: 0.0006051063537597656
ell 30, elapsed: 0.0007219314575195312
ell 29, elapsed: 0.0005629062652587891
ell 28, elapsed: 0.0006709098815917969
ell 27, elapsed: 0.0005900859832763672
ell 26, elapsed: 0.0006070137023925781
ell 25, elapsed: 0.0005950927734375
ell 24, elapsed: 0.0006508827209472656
ell 23, elapsed: 0.0005769729614257812
ell 22, elapsed: 0.0007188320159912109
ell 21, elapsed: 0.000579833984375
ell 20, elapsed: 0.0006549358367919922
ell 19, elapsed: 0.0006048679351806641
ell 18, elapsed: 0.0006589889526367188
ell 17, elapsed: 0.0005660057067871094
ell 16, elapsed: 0.0006420612335205078
ell 15, elapsed: 0.0005888938903808594
ell 14, elapsed: 0.0006690025329589844
ell 13, elapsed: 0.0006201267242431641
ell 12, elapsed: 0.0007290840148925781
ell 11, elapsed: 0.0005841255187988281
ell 10, elapsed: 0.0006749629974365234
ell 9, elapsed: 0.000598907470703125
ell 8, elapsed: 0.0006630420684814453
ell 7, elapsed: 0.00055694580078125
ell 6, elapsed: 0.000698089599609375
ell 5, elapsed: 0.0006060600280761719
ell 4, elapsed: 0.0006721019744873047
ell 3, elapsed: 0.0005738735198974609
ell 2, elapsed: 0.0006768703460693359
ell 1, elapsed: 0.0006051063537597656
ell 0, elapsed: 0.0006680488586425781
  3.215700 seconds (1.72 M allocations: 84.797 MiB, 2.16% gc time)
elapsed: 0.0013890266418457031
step:          0.761942 sec (402.65 k allocations: 20.278 MB, 0.0% gc time)
swapping:      0.000586 sec (0 allocations: 0 byte, 0.0% gc time)
calc_Mellell!: 0.559636 sec (296.475 k allocations: 14.961 MB, 0.0% gc time)
  t0 :  0.0 sec (0 allocations: 0 byte, 0.0% gc time)
  tm2 : 0.0 sec (0 allocations: 0 byte, 0.0% gc time)
  tm2s: 0.0 sec (0 allocations: 0 byte, 0.0% gc time)
  tm4 : 0.0 sec (0 allocations: 0 byte, 0.0% gc time)
  tp2 : 0.0 sec (0 allocations: 0 byte, 0.0% gc time)
  tp2s: 0.0 sec (0 allocations: 0 byte, 0.0% gc time)
  tp4 : 0.0 sec (0 allocations: 0 byte, 0.0% gc time)
calc_wtdll!:   1.119487 sec (525.967 k allocations: 26.382 MB, 2.05% gc time)
calc_wljj!:    0.003775 sec (6 allocations: 96 byte, 0.0% gc time)
mult_prefac!:  0.0 sec (0 allocations: 0 byte, 0.0% gc time)
convert:       0.0 sec (0 allocations: 0 byte, 0.0% gc time)
write:         0.005283 sec (0 allocations: 0 byte, 0.0% gc time)
test_rand_2f1: 0.0 sec (0 allocations: 0 byte, 0.0% gc time)
Closing outfile out/Ml21-cache.bin...   0.000124 seconds
  1.055252 seconds (8.65 k allocations: 420.781 KiB)
make_phi():   0.014406 seconds (8.20 k allocations: 238.016 KiB)
  0.250276 seconds (121.75 k allocations: 5.907 MiB)
tskip:       2.2e-5 sec (0 allocations: 0 byte, 0.0% gc time)
tread:       0.002147 sec (19 allocations: 2.172 KB, 0.0% gc time)
tmultphi:    0.044034 sec (26.042 k allocations: 1.339 MB, 0.0% gc time)
tbrfft:      0.004091 sec (896 allocations: 42.0 KB, 0.0% gc time)
tmultprefac: 0.002452 sec (0 allocations: 0 byte, 0.0% gc time)
toutfunc:    0.197494 sec (94.14 k allocations: 4.455 MB, 0.0% gc time)
Testing R=1.1 ... passed
Calculating fmax: 
  dlrec    = 4
  dlrecRg1 = -4
  q=1.1, R=1.0:	  0.001600 seconds (4.00 k allocations: 300.375 KiB)

  0.001761 seconds (4.04 k allocations: 335.062 KiB)
ℓ = 1202
Δℓ = 4
ΔℓRg1 = -4
N = 1600
q = 1.1
kmin = 1.0e-5
kmax = 100000.00000000004
χ0 = 0.023029999999999995
RR = RR.tsv
ℓmax = ℓmax.bin
f21 = f21.bin
kmin = 1.0e-5
kmax = 100000.0
dlrec    = 4
dlrecRg1 = -4
Output size: 61465536 bytes = 0.05724424123764038 GiB
Output size: 51264 bytes = 4.774332046508789e-5 GiB
Reading 'out/F21EllCache'...   0.001048 seconds (267 allocations: 84.656 KiB)
ellmax: 1202
lmaxcache: 1202
fell[:,1,1] = Complex{Float64}[809.6031528389767 - 1.9829558194077161e-13im, 0.0 + 0.0im]
ell 1202, elapsed: 2.288818359375e-5
ell 1201, elapsed: 0.015249013900756836
ell 1200, elapsed: 0.0003769397735595703
ell 1199, elapsed: 0.0003769397735595703
ell 1198, elapsed: 0.0003609657287597656
ell 1197, elapsed: 0.00041794776916503906
ell 1196, elapsed: 0.0004119873046875
ell 1195, elapsed: 0.00048804283142089844
ell 1194, elapsed: 0.0004780292510986328
ell 1193, elapsed: 0.0006718635559082031
ell 1192, elapsed: 0.0004048347473144531
ell 1191, elapsed: 0.0005509853363037109
ell 1190, elapsed: 0.0004000663757324219
ell 1189, elapsed: 0.00047516822814941406
ell 1188, elapsed: 0.0003991127014160156
ell 1187, elapsed: 0.0004730224609375
ell 1186, elapsed: 0.0003998279571533203
ell 1185, elapsed: 0.000598907470703125
ell 1184, elapsed: 0.0005190372467041016
ell 1183, elapsed: 0.0005018711090087891
ell 1182, elapsed: 0.0003960132598876953
ell 1181, elapsed: 0.0004730224609375
ell 1180, elapsed: 0.0003981590270996094
ell 1179, elapsed: 0.000476837158203125
ell 1178, elapsed: 0.0003979206085205078
ell 1177, elapsed: 0.00047898292541503906
ell 1176, elapsed: 0.0004019737243652344
ell 1175, elapsed: 0.00047206878662109375
ell 1174, elapsed: 0.00041294097900390625
ell 1173, elapsed: 0.0005841255187988281
ell 1172, elapsed: 0.0005331039428710938
ell 1171, elapsed: 0.0004830360412597656
ell 1170, elapsed: 0.00039887428283691406
ell 1169, elapsed: 0.0004811286926269531
ell 1168, elapsed: 0.0003991127014160156
ell 1167, elapsed: 0.00047779083251953125
ell 1166, elapsed: 0.0004019737243652344
ell 1165, elapsed: 0.00047087669372558594
ell 1164, elapsed: 0.00039887428283691406
ell 1163, elapsed: 0.0006589889526367188
ell 1162, elapsed: 0.0006320476531982422
ell 1161, elapsed: 0.0007579326629638672
ell 1160, elapsed: 0.000762939453125
ell 1159, elapsed: 0.0009589195251464844
ell 1158, elapsed: 0.0007967948913574219
ell 1157, elapsed: 0.0009520053863525391
ell 1156, elapsed: 0.0005691051483154297
ell 1155, elapsed: 0.0006229877471923828
ell 1154, elapsed: 0.0005600452423095703
ell 1153, elapsed: 0.0006511211395263672
ell 1152, elapsed: 0.0005490779876708984
ell 1151, elapsed: 0.0006451606750488281
ell 1150, elapsed: 0.0005548000335693359
ell 1149, elapsed: 0.0006630420684814453
ell 1148, elapsed: 0.0005619525909423828
ell 1147, elapsed: 0.0006568431854248047
ell 1146, elapsed: 0.0005919933319091797
ell 1145, elapsed: 0.0009210109710693359
ell 1144, elapsed: 0.0005381107330322266
ell 1143, elapsed: 0.0005519390106201172
ell 1142, elapsed: 0.0004398822784423828
ell 1141, elapsed: 0.0005462169647216797
ell 1140, elapsed: 0.0004360675811767578
ell 1139, elapsed: 0.0005879402160644531
ell 1138, elapsed: 0.00048804283142089844
ell 1137, elapsed: 0.0005800724029541016
ell 1136, elapsed: 0.00049591064453125
ell 1135, elapsed: 0.0008461475372314453
ell 1134, elapsed: 0.00046896934509277344
ell 1133, elapsed: 0.0006089210510253906
ell 1132, elapsed: 0.0004801750183105469
ell 1131, elapsed: 0.0010030269622802734
ell 1130, elapsed: 0.0006620883941650391
ell 1129, elapsed: 0.0007419586181640625
ell 1128, elapsed: 0.0006260871887207031
ell 1127, elapsed: 0.0007259845733642578
ell 1126, elapsed: 0.0006248950958251953
ell 1125, elapsed: 0.0007250308990478516
ell 1124, elapsed: 0.0006301403045654297
ell 1123, elapsed: 0.0007221698760986328
ell 1122, elapsed: 0.0006220340728759766
ell 1121, elapsed: 0.0009579658508300781
ell 1120, elapsed: 0.0006229877471923828
ell 1119, elapsed: 0.0007309913635253906
ell 1118, elapsed: 0.0006108283996582031
ell 1117, elapsed: 0.0007081031799316406
ell 1116, elapsed: 0.0006289482116699219
ell 1115, elapsed: 0.0007197856903076172
ell 1114, elapsed: 0.0006129741668701172
ell 1113, elapsed: 0.0007300376892089844
ell 1112, elapsed: 0.0006089210510253906
ell 1111, elapsed: 0.0007071495056152344
ell 1110, elapsed: 0.0006871223449707031
ell 1109, elapsed: 0.0007140636444091797
ell 1108, elapsed: 0.0006139278411865234
ell 1107, elapsed: 0.0007159709930419922
ell 1106, elapsed: 0.0006089210510253906
ell 1105, elapsed: 0.0007200241088867188
ell 1104, elapsed: 0.0006158351898193359
ell 1103, elapsed: 0.0007300376892089844
ell 1102, elapsed: 0.0008950233459472656
ell 1101, elapsed: 0.0007240772247314453
ell 1100, elapsed: 0.0008368492126464844
ell 1099, elapsed: 0.0007450580596923828
ell 1098, elapsed: 0.0006170272827148438
ell 1097, elapsed: 0.00074005126953125
ell 1096, elapsed: 0.0006079673767089844
ell 1095, elapsed: 0.0007140636444091797
ell 1094, elapsed: 0.0006380081176757812
ell 1093, elapsed: 0.0007259845733642578
ell 1092, elapsed: 0.0006470680236816406
ell 1091, elapsed: 0.0009591579437255859
ell 1090, elapsed: 0.0006279945373535156
ell 1089, elapsed: 0.0007238388061523438
ell 1088, elapsed: 0.0006301403045654297
ell 1087, elapsed: 0.0007560253143310547
ell 1086, elapsed: 0.0004189014434814453
ell 1085, elapsed: 0.0006160736083984375
ell 1084, elapsed: 0.0005590915679931641
ell 1083, elapsed: 0.0006439685821533203
ell 1082, elapsed: 0.0005049705505371094
ell 1081, elapsed: 0.0006310939788818359
ell 1080, elapsed: 0.00048804283142089844
ell 1079, elapsed: 0.000576019287109375
ell 1078, elapsed: 0.0004990100860595703
ell 1077, elapsed: 0.0006358623504638672
ell 1076, elapsed: 0.0005018711090087891
ell 1075, elapsed: 0.0005691051483154297
ell 1074, elapsed: 0.00048422813415527344
ell 1073, elapsed: 0.0005791187286376953
ell 1072, elapsed: 0.0005121231079101562
ell 1071, elapsed: 0.0005810260772705078
ell 1070, elapsed: 0.0004889965057373047
ell 1069, elapsed: 0.0005679130554199219
ell 1068, elapsed: 0.0004868507385253906
ell 1067, elapsed: 0.0005638599395751953
ell 1066, elapsed: 0.0004868507385253906
ell 1065, elapsed: 0.0005919933319091797
ell 1064, elapsed: 0.00047898292541503906
ell 1063, elapsed: 0.0007150173187255859
ell 1062, elapsed: 0.0004949569702148438
ell 1061, elapsed: 0.0004839897155761719
ell 1060, elapsed: 0.0005490779876708984
ell 1059, elapsed: 0.0007390975952148438
ell 1058, elapsed: 0.00048804283142089844
ell 1057, elapsed: 0.0007100105285644531
ell 1056, elapsed: 0.00041484832763671875
ell 1055, elapsed: 0.0004928112030029297
ell 1054, elapsed: 0.00039577484130859375
ell 1053, elapsed: 0.0004940032958984375
ell 1052, elapsed: 0.0003960132598876953
ell 1051, elapsed: 0.00048613548278808594
ell 1050, elapsed: 0.00040602684020996094
ell 1049, elapsed: 0.0005109310150146484
ell 1048, elapsed: 0.0003998279571533203
ell 1047, elapsed: 0.00047397613525390625
ell 1046, elapsed: 0.00039386749267578125
ell 1045, elapsed: 0.0004730224609375
ell 1044, elapsed: 0.00039505958557128906
ell 1043, elapsed: 0.00046706199645996094
ell 1042, elapsed: 0.00039696693420410156
ell 1041, elapsed: 0.00048089027404785156
ell 1040, elapsed: 0.0003960132598876953
ell 1039, elapsed: 0.0004658699035644531
ell 1038, elapsed: 0.000392913818359375
ell 1037, elapsed: 0.0004699230194091797
ell 1036, elapsed: 0.0003941059112548828
ell 1035, elapsed: 0.0004680156707763672
ell 1034, elapsed: 0.0003921985626220703
ell 1033, elapsed: 0.00047898292541503906
ell 1032, elapsed: 0.0004088878631591797
ell 1031, elapsed: 0.0006649494171142578
ell 1030, elapsed: 0.0005428791046142578
ell 1029, elapsed: 0.0007300376892089844
ell 1028, elapsed: 0.0006120204925537109
ell 1027, elapsed: 0.0005488395690917969
ell 1026, elapsed: 0.0005259513854980469
ell 1025, elapsed: 0.0005991458892822266
ell 1024, elapsed: 0.0005061626434326172
ell 1023, elapsed: 0.0007410049438476562
ell 1022, elapsed: 0.0005218982696533203
ell 1021, elapsed: 0.0004899501800537109
ell 1020, elapsed: 0.0005640983581542969
ell 1019, elapsed: 0.0007560253143310547
ell 1018, elapsed: 0.0006279945373535156
ell 1017, elapsed: 0.000659942626953125
ell 1016, elapsed: 0.0003800392150878906
ell 1015, elapsed: 0.0006871223449707031
ell 1014, elapsed: 0.0005891323089599609
ell 1013, elapsed: 0.0005838871002197266
ell 1012, elapsed: 0.0006508827209472656
ell 1011, elapsed: 0.0008330345153808594
ell 1010, elapsed: 0.0005099773406982422
ell 1009, elapsed: 0.0008261203765869141
ell 1008, elapsed: 0.0006749629974365234
ell 1007, elapsed: 0.0007789134979248047
ell 1006, elapsed: 0.0004918575286865234
ell 1005, elapsed: 0.0008170604705810547
ell 1004, elapsed: 0.0007159709930419922
ell 1003, elapsed: 0.0008671283721923828
ell 1002, elapsed: 0.000659942626953125
ell 1001, elapsed: 0.0008370876312255859
ell 1000, elapsed: 0.0007250308990478516
ell 999, elapsed: 0.0008189678192138672
ell 998, elapsed: 0.0007119178771972656
ell 997, elapsed: 0.0004611015319824219
ell 996, elapsed: 0.00030803680419921875
ell 995, elapsed: 0.0003650188446044922
ell 994, elapsed: 0.0003020763397216797
ell 993, elapsed: 0.0003609657287597656
ell 992, elapsed: 0.0003039836883544922
ell 991, elapsed: 0.0003650188446044922
ell 990, elapsed: 0.0003039836883544922
ell 989, elapsed: 0.0003619194030761719
ell 988, elapsed: 0.0003349781036376953
ell 987, elapsed: 0.0005271434783935547
ell 986, elapsed: 0.00043487548828125
ell 985, elapsed: 0.00038313865661621094
ell 984, elapsed: 0.00031495094299316406
ell 983, elapsed: 0.00037980079650878906
ell 982, elapsed: 0.0003211498260498047
ell 981, elapsed: 0.0003769397735595703
ell 980, elapsed: 0.0003209114074707031
ell 979, elapsed: 0.0003769397735595703
ell 978, elapsed: 0.0003540515899658203
ell 977, elapsed: 0.006666898727416992
ell 976, elapsed: 0.0005171298980712891
ell 975, elapsed: 0.0005998611450195312
ell 974, elapsed: 0.0004620552062988281
ell 973, elapsed: 0.0005528926849365234
ell 972, elapsed: 0.0004620552062988281
ell 971, elapsed: 0.0005548000335693359
ell 970, elapsed: 0.0004620552062988281
ell 969, elapsed: 0.0005540847778320312
ell 968, elapsed: 0.0004680156707763672
ell 967, elapsed: 0.0005540847778320312
ell 966, elapsed: 0.00046181678771972656
ell 965, elapsed: 0.0005528926849365234
ell 964, elapsed: 0.0004611015319824219
ell 963, elapsed: 0.0005650520324707031
ell 962, elapsed: 0.0004761219024658203
ell 961, elapsed: 0.0005450248718261719
ell 960, elapsed: 0.0004620552062988281
ell 959, elapsed: 0.0005538463592529297
ell 958, elapsed: 0.00045990943908691406
ell 957, elapsed: 0.0005469322204589844
ell 956, elapsed: 0.0004620552062988281
ell 955, elapsed: 0.0006229877471923828
ell 954, elapsed: 0.00046896934509277344
ell 953, elapsed: 0.0005550384521484375
ell 952, elapsed: 0.0004589557647705078
ell 951, elapsed: 0.0005390644073486328
ell 950, elapsed: 0.0004589557647705078
ell 949, elapsed: 0.0005450248718261719
ell 948, elapsed: 0.0004589557647705078
ell 947, elapsed: 0.0005471706390380859
ell 946, elapsed: 0.00045609474182128906
ell 945, elapsed: 0.0005447864532470703
ell 944, elapsed: 0.0004589557647705078
ell 943, elapsed: 0.0005450248718261719
ell 942, elapsed: 0.00045800209045410156
ell 941, elapsed: 0.0005431175231933594
ell 940, elapsed: 0.0004699230194091797
ell 939, elapsed: 0.0005450248718261719
ell 938, elapsed: 0.00045800209045410156
ell 937, elapsed: 0.0005450248718261719
ell 936, elapsed: 0.00045800209045410156
ell 935, elapsed: 0.0005490779876708984
ell 934, elapsed: 0.0004570484161376953
ell 933, elapsed: 0.0059320926666259766
ell 932, elapsed: 0.0004949569702148438
ell 931, elapsed: 0.0005869865417480469
ell 930, elapsed: 0.0004639625549316406
ell 929, elapsed: 0.0005478858947753906
ell 928, elapsed: 0.0004761219024658203
ell 927, elapsed: 0.0005478858947753906
ell 926, elapsed: 0.00046181678771972656
ell 925, elapsed: 0.0005509853363037109
ell 924, elapsed: 0.0004611015319824219
ell 923, elapsed: 0.0005521774291992188
ell 922, elapsed: 0.0004589557647705078
ell 921, elapsed: 0.0005550384521484375
ell 920, elapsed: 0.0004620552062988281
ell 919, elapsed: 0.0005490779876708984
ell 918, elapsed: 0.0004601478576660156
ell 917, elapsed: 0.0005509853363037109
ell 916, elapsed: 0.0004630088806152344
ell 915, elapsed: 0.0005500316619873047
ell 914, elapsed: 0.0005629062652587891
ell 913, elapsed: 0.0006890296936035156
ell 912, elapsed: 0.0004601478576660156
ell 911, elapsed: 0.0005469322204589844
ell 910, elapsed: 0.0004591941833496094
ell 909, elapsed: 0.0005400180816650391
ell 908, elapsed: 0.0004570484161376953
ell 907, elapsed: 0.0005440711975097656
ell 906, elapsed: 0.0004680156707763672
ell 905, elapsed: 0.0005428791046142578
ell 904, elapsed: 0.00045800209045410156
ell 903, elapsed: 0.0005447864532470703
ell 902, elapsed: 0.0004620552062988281
ell 901, elapsed: 0.0005519390106201172
ell 900, elapsed: 0.0004639625549316406
ell 899, elapsed: 0.0005841255187988281
ell 898, elapsed: 0.0004649162292480469
ell 897, elapsed: 0.0005669593811035156
ell 896, elapsed: 0.0004639625549316406
ell 895, elapsed: 0.0005609989166259766
ell 894, elapsed: 0.0004630088806152344
ell 893, elapsed: 0.0005550384521484375
ell 892, elapsed: 0.0004620552062988281
ell 891, elapsed: 0.00873708724975586
ell 890, elapsed: 0.00046515464782714844
ell 889, elapsed: 0.0005700588226318359
ell 888, elapsed: 0.0004718303680419922
ell 887, elapsed: 0.0005669593811035156
ell 886, elapsed: 0.00046896934509277344
ell 885, elapsed: 0.0005800724029541016
ell 884, elapsed: 0.0004658699035644531
ell 883, elapsed: 0.0005540847778320312
ell 882, elapsed: 0.00046896934509277344
ell 881, elapsed: 0.0005640983581542969
ell 880, elapsed: 0.0004630088806152344
ell 879, elapsed: 0.0005600452423095703
ell 878, elapsed: 0.00046515464782714844
ell 877, elapsed: 0.0005688667297363281
ell 876, elapsed: 0.0004620552062988281
ell 875, elapsed: 0.0005559921264648438
ell 874, elapsed: 0.0004589557647705078
ell 873, elapsed: 0.0005578994750976562
ell 872, elapsed: 0.0004630088806152344
ell 871, elapsed: 0.0005578994750976562
ell 870, elapsed: 0.00047898292541503906
ell 869, elapsed: 0.0005590915679931641
ell 868, elapsed: 0.0004620552062988281
ell 867, elapsed: 0.0005619525909423828
ell 866, elapsed: 0.00046515464782714844
ell 865, elapsed: 0.0005650520324707031
ell 864, elapsed: 0.00046515464782714844
ell 863, elapsed: 0.0005750656127929688
ell 862, elapsed: 0.00045299530029296875
ell 861, elapsed: 0.0005638599395751953
ell 860, elapsed: 0.0005340576171875
ell 859, elapsed: 0.000720977783203125
ell 858, elapsed: 0.0004649162292480469
ell 857, elapsed: 0.0005581378936767578
ell 856, elapsed: 0.000431060791015625
ell 855, elapsed: 0.0004799365997314453
ell 854, elapsed: 0.0003979206085205078
ell 853, elapsed: 0.0004820823669433594
ell 852, elapsed: 0.000392913818359375
ell 851, elapsed: 0.00047397613525390625
ell 850, elapsed: 0.00039196014404296875
ell 849, elapsed: 0.0004851818084716797
ell 848, elapsed: 0.0004029273986816406
ell 847, elapsed: 0.0004661083221435547
ell 846, elapsed: 0.00039005279541015625
ell 845, elapsed: 0.0004680156707763672
ell 844, elapsed: 0.00038695335388183594
ell 843, elapsed: 0.00045800209045410156
ell 842, elapsed: 0.0003910064697265625
ell 841, elapsed: 0.0004730224609375
ell 840, elapsed: 0.00038909912109375
ell 839, elapsed: 0.0004940032958984375
ell 838, elapsed: 0.0003910064697265625
ell 837, elapsed: 0.00045013427734375
ell 836, elapsed: 0.00038814544677734375
ell 835, elapsed: 0.0004730224609375
ell 834, elapsed: 0.00039005279541015625
ell 833, elapsed: 0.0004668235778808594
ell 832, elapsed: 0.00038814544677734375
ell 831, elapsed: 0.00047206878662109375
ell 830, elapsed: 0.0004379749298095703
ell 829, elapsed: 0.0004889965057373047
ell 828, elapsed: 0.0004220008850097656
ell 827, elapsed: 0.0004801750183105469
ell 826, elapsed: 0.0004191398620605469
ell 825, elapsed: 0.0004870891571044922
ell 824, elapsed: 0.00041794776916503906
ell 823, elapsed: 0.000492095947265625
ell 822, elapsed: 0.0004801750183105469
ell 821, elapsed: 0.0005209445953369141
ell 820, elapsed: 0.00044417381286621094
ell 819, elapsed: 0.0005331039428710938
ell 818, elapsed: 0.0004730224609375
ell 817, elapsed: 0.0005280971527099609
ell 816, elapsed: 0.00043010711669921875
ell 815, elapsed: 0.0005049705505371094
ell 814, elapsed: 0.0004210472106933594
ell 813, elapsed: 0.0005087852478027344
ell 812, elapsed: 0.0004210472106933594
ell 811, elapsed: 0.0005080699920654297
ell 810, elapsed: 0.0005340576171875
ell 809, elapsed: 0.0006091594696044922
ell 808, elapsed: 0.00045680999755859375
ell 807, elapsed: 0.000514984130859375
ell 806, elapsed: 0.0005059242248535156
ell 805, elapsed: 0.0005540847778320312
ell 804, elapsed: 0.00047707557678222656
ell 803, elapsed: 0.0005559921264648438
ell 802, elapsed: 0.00047588348388671875
ell 801, elapsed: 0.0005519390106201172
ell 800, elapsed: 0.0004818439483642578
ell 799, elapsed: 0.0005979537963867188
ell 798, elapsed: 0.0004279613494873047
ell 797, elapsed: 0.0005161762237548828
ell 796, elapsed: 0.0004200935363769531
ell 795, elapsed: 0.000514984130859375
ell 794, elapsed: 0.00043582916259765625
ell 793, elapsed: 0.0006241798400878906
ell 792, elapsed: 0.0005009174346923828
ell 791, elapsed: 0.0005550384521484375
ell 790, elapsed: 0.0004260540008544922
ell 789, elapsed: 0.0005109310150146484
ell 788, elapsed: 0.00043892860412597656
ell 787, elapsed: 0.0005249977111816406
ell 786, elapsed: 0.00042891502380371094
ell 785, elapsed: 0.0005059242248535156
ell 784, elapsed: 0.00043392181396484375
ell 783, elapsed: 0.0005190372467041016
ell 782, elapsed: 0.0004241466522216797
ell 781, elapsed: 0.0006260871887207031
ell 780, elapsed: 0.0004990100860595703
ell 779, elapsed: 0.0005960464477539062
ell 778, elapsed: 0.0005009174346923828
ell 777, elapsed: 0.0006248950958251953
ell 776, elapsed: 0.0005209445953369141
ell 775, elapsed: 0.0005278587341308594
ell 774, elapsed: 0.00044798851013183594
ell 773, elapsed: 0.00047397613525390625
ell 772, elapsed: 0.00037789344787597656
ell 771, elapsed: 0.00057220458984375
ell 770, elapsed: 0.0004749298095703125
ell 769, elapsed: 0.0005800724029541016
ell 768, elapsed: 0.0004589557647705078
ell 767, elapsed: 0.0005519390106201172
ell 766, elapsed: 0.00045490264892578125
ell 765, elapsed: 0.00049591064453125
ell 764, elapsed: 0.0005509853363037109
ell 763, elapsed: 0.0008349418640136719
ell 762, elapsed: 0.0006070137023925781
ell 761, elapsed: 0.0007910728454589844
ell 760, elapsed: 0.0004410743713378906
ell 759, elapsed: 0.0008769035339355469
ell 758, elapsed: 0.0005559921264648438
ell 757, elapsed: 0.0006039142608642578
ell 756, elapsed: 0.0005199909210205078
ell 755, elapsed: 0.0005381107330322266
ell 754, elapsed: 0.0006711483001708984
ell 753, elapsed: 0.00074005126953125
ell 752, elapsed: 0.0005118846893310547
ell 751, elapsed: 0.0006721019744873047
ell 750, elapsed: 0.0006470680236816406
ell 749, elapsed: 0.0006148815155029297
ell 748, elapsed: 0.0005860328674316406
ell 747, elapsed: 0.0006740093231201172
ell 746, elapsed: 0.00043392181396484375
ell 745, elapsed: 0.0005881786346435547
ell 744, elapsed: 0.0004849433898925781
ell 743, elapsed: 0.0005829334259033203
ell 742, elapsed: 0.0004940032958984375
ell 741, elapsed: 0.0006670951843261719
ell 740, elapsed: 0.0005671977996826172
ell 739, elapsed: 0.0006659030914306641
ell 738, elapsed: 0.0005629062652587891
ell 737, elapsed: 0.000675201416015625
ell 736, elapsed: 0.0005259513854980469
ell 735, elapsed: 0.0006089210510253906
ell 734, elapsed: 0.0005159378051757812
ell 733, elapsed: 0.0006029605865478516
ell 732, elapsed: 0.0005140304565429688
ell 731, elapsed: 0.0006740093231201172
ell 730, elapsed: 0.0005609989166259766
ell 729, elapsed: 0.0006508827209472656
ell 728, elapsed: 0.0005199909210205078
ell 727, elapsed: 0.0006060600280761719
ell 726, elapsed: 0.00055694580078125
ell 725, elapsed: 0.0006389617919921875
ell 724, elapsed: 0.0005550384521484375
ell 723, elapsed: 0.0007431507110595703
ell 722, elapsed: 0.0006051063537597656
ell 721, elapsed: 0.0006229877471923828
ell 720, elapsed: 0.0004930496215820312
ell 719, elapsed: 0.0005919933319091797
ell 718, elapsed: 0.0005738735198974609
ell 717, elapsed: 0.0005648136138916016
ell 716, elapsed: 0.0004820823669433594
ell 715, elapsed: 0.0005910396575927734
ell 714, elapsed: 0.00047588348388671875
ell 713, elapsed: 0.0005249977111816406
ell 712, elapsed: 0.0004420280456542969
ell 711, elapsed: 0.0005099773406982422
ell 710, elapsed: 0.0005490779876708984
ell 709, elapsed: 0.00049591064453125
ell 708, elapsed: 0.0004467964172363281
ell 707, elapsed: 0.0005581378936767578
ell 706, elapsed: 0.0004100799560546875
ell 705, elapsed: 0.0005211830139160156
ell 704, elapsed: 0.0004870891571044922
ell 703, elapsed: 0.0008318424224853516
ell 702, elapsed: 0.0007739067077636719
ell 701, elapsed: 0.0006520748138427734
ell 700, elapsed: 0.0005450248718261719
ell 699, elapsed: 0.0007009506225585938
ell 698, elapsed: 0.00043582916259765625
ell 697, elapsed: 0.0006480216979980469
ell 696, elapsed: 0.0004901885986328125
ell 695, elapsed: 0.0006618499755859375
ell 694, elapsed: 0.0005631446838378906
ell 693, elapsed: 0.0006480216979980469
ell 692, elapsed: 0.0004780292510986328
ell 691, elapsed: 0.0005919933319091797
ell 690, elapsed: 0.0004889965057373047
ell 689, elapsed: 0.0005891323089599609
ell 688, elapsed: 0.0006630420684814453
ell 687, elapsed: 0.0005939006805419922
ell 686, elapsed: 0.0004818439483642578
ell 685, elapsed: 0.0005619525909423828
ell 684, elapsed: 0.0004668235778808594
ell 683, elapsed: 0.0005679130554199219
ell 682, elapsed: 0.0004990100860595703
ell 681, elapsed: 0.0005822181701660156
ell 680, elapsed: 0.0004839897155761719
ell 679, elapsed: 0.0005669593811035156
ell 678, elapsed: 0.0005028247833251953
ell 677, elapsed: 0.0005750656127929688
ell 676, elapsed: 0.00048804283142089844
ell 675, elapsed: 0.0005991458892822266
ell 674, elapsed: 0.0004849433898925781
ell 673, elapsed: 0.0005807876586914062
ell 672, elapsed: 0.0004448890686035156
ell 671, elapsed: 0.0005137920379638672
ell 670, elapsed: 0.0004189014434814453
ell 669, elapsed: 0.0006678104400634766
ell 668, elapsed: 0.00047016143798828125
ell 667, elapsed: 0.0004999637603759766
ell 666, elapsed: 0.0004169940948486328
ell 665, elapsed: 0.0005290508270263672
ell 664, elapsed: 0.0004210472106933594
ell 663, elapsed: 0.0005030632019042969
ell 662, elapsed: 0.0004189014434814453
ell 661, elapsed: 0.0005040168762207031
ell 660, elapsed: 0.0005550384521484375
ell 659, elapsed: 0.0006740093231201172
ell 658, elapsed: 0.0004448890686035156
ell 657, elapsed: 0.0005300045013427734
ell 656, elapsed: 0.0004200935363769531
ell 655, elapsed: 0.0005080699920654297
ell 654, elapsed: 0.0004220008850097656
ell 653, elapsed: 0.00051116943359375
ell 652, elapsed: 0.0004150867462158203
ell 651, elapsed: 0.0005080699920654297
ell 650, elapsed: 0.00045490264892578125
ell 649, elapsed: 0.0005559921264648438
ell 648, elapsed: 0.00045490264892578125
ell 647, elapsed: 0.0005400180816650391
ell 646, elapsed: 0.0004391670227050781
ell 645, elapsed: 0.0005099773406982422
ell 644, elapsed: 0.0004210472106933594
ell 643, elapsed: 0.0005159378051757812
ell 642, elapsed: 0.00043201446533203125
ell 641, elapsed: 0.0005040168762207031
ell 640, elapsed: 0.0004620552062988281
ell 639, elapsed: 0.0006577968597412109
ell 638, elapsed: 0.000701904296875
ell 637, elapsed: 0.0005681514739990234
ell 636, elapsed: 0.0005090236663818359
ell 635, elapsed: 0.0005640983581542969
ell 634, elapsed: 0.00045299530029296875
ell 633, elapsed: 0.0005538463592529297
ell 632, elapsed: 0.0005040168762207031
ell 631, elapsed: 0.0005919933319091797
ell 630, elapsed: 0.0005109310150146484
ell 629, elapsed: 0.0005960464477539062
ell 628, elapsed: 0.0005059242248535156
ell 627, elapsed: 0.000576019287109375
ell 626, elapsed: 0.0004680156707763672
ell 625, elapsed: 0.0005500316619873047
ell 624, elapsed: 0.0004298686981201172
ell 623, elapsed: 0.0006701946258544922
ell 622, elapsed: 0.0004940032958984375
ell 621, elapsed: 0.0005011558532714844
ell 620, elapsed: 0.00041604042053222656
ell 619, elapsed: 0.0005021095275878906
ell 618, elapsed: 0.0004220008850097656
ell 617, elapsed: 0.0005450248718261719
ell 616, elapsed: 0.0004820823669433594
ell 615, elapsed: 0.0005490779876708984
ell 614, elapsed: 0.0005750656127929688
ell 613, elapsed: 0.0005469322204589844
ell 612, elapsed: 0.0005400180816650391
ell 611, elapsed: 0.0006411075592041016
ell 610, elapsed: 0.0004169940948486328
ell 609, elapsed: 0.0005130767822265625
ell 608, elapsed: 0.00038909912109375
ell 607, elapsed: 0.00047397613525390625
ell 606, elapsed: 0.0003859996795654297
ell 605, elapsed: 0.00047206878662109375
ell 604, elapsed: 0.0003859996795654297
ell 603, elapsed: 0.0004730224609375
ell 602, elapsed: 0.0003788471221923828
ell 601, elapsed: 0.0004849433898925781
ell 600, elapsed: 0.0006170272827148438
ell 599, elapsed: 0.000782012939453125
ell 598, elapsed: 0.0006580352783203125
ell 597, elapsed: 0.0007750988006591797
ell 596, elapsed: 0.0007290840148925781
ell 595, elapsed: 0.000782012939453125
ell 594, elapsed: 0.0006618499755859375
ell 593, elapsed: 0.0008029937744140625
ell 592, elapsed: 0.0006260871887207031
ell 591, elapsed: 0.0008099079132080078
ell 590, elapsed: 0.0006690025329589844
ell 589, elapsed: 0.0007829666137695312
ell 588, elapsed: 0.0007350444793701172
ell 587, elapsed: 0.0008378028869628906
ell 586, elapsed: 0.0006809234619140625
ell 585, elapsed: 0.0008039474487304688
ell 584, elapsed: 0.0007340908050537109
ell 583, elapsed: 0.0009021759033203125
ell 582, elapsed: 0.0007658004760742188
ell 581, elapsed: 0.0009248256683349609
ell 580, elapsed: 0.0008060932159423828
ell 579, elapsed: 0.0008580684661865234
ell 578, elapsed: 0.0007719993591308594
ell 577, elapsed: 0.0007519721984863281
ell 576, elapsed: 0.000453948974609375
ell 575, elapsed: 0.0005369186401367188
ell 574, elapsed: 0.0004379749298095703
ell 573, elapsed: 0.0005350112915039062
ell 572, elapsed: 0.0004630088806152344
ell 571, elapsed: 0.0005428791046142578
ell 570, elapsed: 0.00044989585876464844
ell 569, elapsed: 0.0006968975067138672
ell 568, elapsed: 0.0006210803985595703
ell 567, elapsed: 0.0007970333099365234
ell 566, elapsed: 0.0006248950958251953
ell 565, elapsed: 0.0005300045013427734
ell 564, elapsed: 0.000659942626953125
ell 563, elapsed: 0.0005669593811035156
ell 562, elapsed: 0.0006020069122314453
ell 561, elapsed: 0.0005960464477539062
ell 560, elapsed: 0.0006520748138427734
ell 559, elapsed: 0.000843048095703125
ell 558, elapsed: 0.0004458427429199219
ell 557, elapsed: 0.0005278587341308594
ell 556, elapsed: 0.0005698204040527344
ell 555, elapsed: 0.0007660388946533203
ell 554, elapsed: 0.0004680156707763672
ell 553, elapsed: 0.0005381107330322266
ell 552, elapsed: 0.0006451606750488281
ell 551, elapsed: 0.0005478858947753906
ell 550, elapsed: 0.00045990943908691406
ell 549, elapsed: 0.0005509853363037109
ell 548, elapsed: 0.0006139278411865234
ell 547, elapsed: 0.0005481243133544922
ell 546, elapsed: 0.00045180320739746094
ell 545, elapsed: 0.0007288455963134766
ell 544, elapsed: 0.0006620883941650391
ell 543, elapsed: 0.0005869865417480469
ell 542, elapsed: 0.0005850791931152344
ell 541, elapsed: 0.0007090568542480469
ell 540, elapsed: 0.0006558895111083984
ell 539, elapsed: 0.0006840229034423828
ell 538, elapsed: 0.0004451274871826172
ell 537, elapsed: 0.0005409717559814453
ell 536, elapsed: 0.0006480216979980469
ell 535, elapsed: 0.0007669925689697266
ell 534, elapsed: 0.00044608116149902344
ell 533, elapsed: 0.0008130073547363281
ell 532, elapsed: 0.0006730556488037109
ell 531, elapsed: 0.00051116943359375
ell 530, elapsed: 0.0004520416259765625
ell 529, elapsed: 0.0006909370422363281
ell 528, elapsed: 0.0006470680236816406
ell 527, elapsed: 0.0007028579711914062
ell 526, elapsed: 0.0005998611450195312
ell 525, elapsed: 0.0005447864532470703
ell 524, elapsed: 0.0004401206970214844
ell 523, elapsed: 0.0007510185241699219
ell 522, elapsed: 0.0007269382476806641
ell 521, elapsed: 0.0005359649658203125
ell 520, elapsed: 0.0006051063537597656
ell 519, elapsed: 0.0005738735198974609
ell 518, elapsed: 0.0005970001220703125
ell 517, elapsed: 0.0007960796356201172
ell 516, elapsed: 0.0006308555603027344
ell 515, elapsed: 0.0008480548858642578
ell 514, elapsed: 0.0006260871887207031
ell 513, elapsed: 0.0008428096771240234
ell 512, elapsed: 0.0004661083221435547
ell 511, elapsed: 0.0007610321044921875
ell 510, elapsed: 0.0006530284881591797
ell 509, elapsed: 0.0007729530334472656
ell 508, elapsed: 0.0004620552062988281
ell 507, elapsed: 0.0007779598236083984
ell 506, elapsed: 0.0006630420684814453
ell 505, elapsed: 0.0006201267242431641
ell 504, elapsed: 0.00045180320739746094
ell 503, elapsed: 0.0007779598236083984
ell 502, elapsed: 0.0006449222564697266
ell 501, elapsed: 0.0007851123809814453
ell 500, elapsed: 0.0006861686706542969
ell 499, elapsed: 0.0008099079132080078
ell 498, elapsed: 0.0006849765777587891
ell 497, elapsed: 0.0007669925689697266
ell 496, elapsed: 0.0006890296936035156
ell 495, elapsed: 0.0007350444793701172
ell 494, elapsed: 0.0006661415100097656
ell 493, elapsed: 0.0007519721984863281
ell 492, elapsed: 0.00067901611328125
ell 491, elapsed: 0.0007429122924804688
ell 490, elapsed: 0.0006051063537597656
ell 489, elapsed: 0.0007941722869873047
ell 488, elapsed: 0.0004761219024658203
ell 487, elapsed: 0.0006670951843261719
ell 486, elapsed: 0.0006718635559082031
ell 485, elapsed: 0.0008108615875244141
ell 484, elapsed: 0.0006129741668701172
ell 483, elapsed: 0.000782012939453125
ell 482, elapsed: 0.0006680488586425781
ell 481, elapsed: 0.0006120204925537109
ell 480, elapsed: 0.0006339550018310547
ell 479, elapsed: 0.0005948543548583984
ell 478, elapsed: 0.0004601478576660156
ell 477, elapsed: 0.0005359649658203125
ell 476, elapsed: 0.0006389617919921875
ell 475, elapsed: 0.0008051395416259766
ell 474, elapsed: 0.0005819797515869141
ell 473, elapsed: 0.0007669925689697266
ell 472, elapsed: 0.0005869865417480469
ell 471, elapsed: 0.0007848739624023438
ell 470, elapsed: 0.0006442070007324219
ell 469, elapsed: 0.0005719661712646484
ell 468, elapsed: 0.0004429817199707031
ell 467, elapsed: 0.0007259845733642578
ell 466, elapsed: 0.0005769729614257812
ell 465, elapsed: 0.0005509853363037109
ell 464, elapsed: 0.00047898292541503906
ell 463, elapsed: 0.0007560253143310547
ell 462, elapsed: 0.0005428791046142578
ell 461, elapsed: 0.0005431175231933594
ell 460, elapsed: 0.00038695335388183594
ell 459, elapsed: 0.0005919933319091797
ell 458, elapsed: 0.0005929470062255859
ell 457, elapsed: 0.0005359649658203125
ell 456, elapsed: 0.00041294097900390625
ell 455, elapsed: 0.0006580352783203125
ell 454, elapsed: 0.0006039142608642578
ell 453, elapsed: 0.0008108615875244141
ell 452, elapsed: 0.00047397613525390625
ell 451, elapsed: 0.0006830692291259766
ell 450, elapsed: 0.0006761550903320312
ell 449, elapsed: 0.0005919933319091797
ell 448, elapsed: 0.0008308887481689453
ell 447, elapsed: 0.0008270740509033203
ell 446, elapsed: 0.0004730224609375
ell 445, elapsed: 0.0005679130554199219
ell 444, elapsed: 0.00061798095703125
ell 443, elapsed: 0.0005970001220703125
ell 442, elapsed: 0.00044798851013183594
ell 441, elapsed: 0.0007059574127197266
ell 440, elapsed: 0.0006361007690429688
ell 439, elapsed: 0.0005500316619873047
ell 438, elapsed: 0.00039696693420410156
ell 437, elapsed: 0.0007648468017578125
ell 436, elapsed: 0.0005650520324707031
ell 435, elapsed: 0.0007309913635253906
ell 434, elapsed: 0.0006749629974365234
ell 433, elapsed: 0.0007441043853759766
ell 432, elapsed: 0.000431060791015625
ell 431, elapsed: 0.0006749629974365234
ell 430, elapsed: 0.0004508495330810547
ell 429, elapsed: 0.0007700920104980469
ell 428, elapsed: 0.0006639957427978516
ell 427, elapsed: 0.0008099079132080078
ell 426, elapsed: 0.0006570816040039062
ell 425, elapsed: 0.0008280277252197266
ell 424, elapsed: 0.0006420612335205078
ell 423, elapsed: 0.0006990432739257812
ell 422, elapsed: 0.0006260871887207031
ell 421, elapsed: 0.0006940364837646484
ell 420, elapsed: 0.0005660057067871094
ell 419, elapsed: 0.0008192062377929688
ell 418, elapsed: 0.0006558895111083984
ell 417, elapsed: 0.0008289813995361328
ell 416, elapsed: 0.00044918060302734375
ell 415, elapsed: 0.0007519721984863281
ell 414, elapsed: 0.0004470348358154297
ell 413, elapsed: 0.0007510185241699219
ell 412, elapsed: 0.0006492137908935547
ell 411, elapsed: 0.0005958080291748047
ell 410, elapsed: 0.0006470680236816406
ell 409, elapsed: 0.0005950927734375
ell 408, elapsed: 0.0006058216094970703
ell 407, elapsed: 0.0005519390106201172
ell 406, elapsed: 0.0005331039428710938
ell 405, elapsed: 0.0006909370422363281
ell 404, elapsed: 0.0005900859832763672
ell 403, elapsed: 0.000720977783203125
ell 402, elapsed: 0.00041604042053222656
ell 401, elapsed: 0.00047087669372558594
ell 400, elapsed: 0.0004870891571044922
ell 399, elapsed: 0.0008199214935302734
ell 398, elapsed: 0.0004589557647705078
ell 397, elapsed: 0.0007421970367431641
ell 396, elapsed: 0.0006859302520751953
ell 395, elapsed: 0.0007529258728027344
ell 394, elapsed: 0.0005700588226318359
ell 393, elapsed: 0.0008349418640136719
ell 392, elapsed: 0.00043702125549316406
ell 391, elapsed: 0.000762939453125
ell 390, elapsed: 0.0004429817199707031
ell 389, elapsed: 0.0007700920104980469
ell 388, elapsed: 0.0006890296936035156
ell 387, elapsed: 0.0005259513854980469
ell 386, elapsed: 0.0005409717559814453
ell 385, elapsed: 0.0007739067077636719
ell 384, elapsed: 0.0005779266357421875
ell 383, elapsed: 0.0005779266357421875
ell 382, elapsed: 0.0003948211669921875
ell 381, elapsed: 0.0007548332214355469
ell 380, elapsed: 0.00039505958557128906
ell 379, elapsed: 0.0006561279296875
ell 378, elapsed: 0.0005171298980712891
ell 377, elapsed: 0.0005929470062255859
ell 376, elapsed: 0.0005829334259033203
ell 375, elapsed: 0.0005390644073486328
ell 374, elapsed: 0.0005221366882324219
ell 373, elapsed: 0.0006330013275146484
ell 372, elapsed: 0.0005619525909423828
ell 371, elapsed: 0.0007250308990478516
ell 370, elapsed: 0.0006020069122314453
ell 369, elapsed: 0.0007061958312988281
ell 368, elapsed: 0.000598907470703125
ell 367, elapsed: 0.0007159709930419922
ell 366, elapsed: 0.0005998611450195312
ell 365, elapsed: 0.0007250308990478516
ell 364, elapsed: 0.0006051063537597656
ell 363, elapsed: 0.0005960464477539062
ell 362, elapsed: 0.0005621910095214844
ell 361, elapsed: 0.0007050037384033203
ell 360, elapsed: 0.0006010532379150391
ell 359, elapsed: 0.0007231235504150391
ell 358, elapsed: 0.0004761219024658203
ell 357, elapsed: 0.0006659030914306641
ell 356, elapsed: 0.0006020069122314453
ell 355, elapsed: 0.0007050037384033203
ell 354, elapsed: 0.0006041526794433594
ell 353, elapsed: 0.0007059574127197266
ell 352, elapsed: 0.0006039142608642578
ell 351, elapsed: 0.0006999969482421875
ell 350, elapsed: 0.00047206878662109375
ell 349, elapsed: 0.0006859302520751953
ell 348, elapsed: 0.00044798851013183594
ell 347, elapsed: 0.0004620552062988281
ell 346, elapsed: 0.00049591064453125
ell 345, elapsed: 0.0005860328674316406
ell 344, elapsed: 0.0003771781921386719
ell 343, elapsed: 0.00047707557678222656
ell 342, elapsed: 0.0005481243133544922
ell 341, elapsed: 0.0007250308990478516
ell 340, elapsed: 0.0006299018859863281
ell 339, elapsed: 0.0006489753723144531
ell 338, elapsed: 0.0005700588226318359
ell 337, elapsed: 0.0006041526794433594
ell 336, elapsed: 0.0005629062652587891
ell 335, elapsed: 0.0005400180816650391
ell 334, elapsed: 0.0003921985626220703
ell 333, elapsed: 0.00045800209045410156
ell 332, elapsed: 0.0003790855407714844
ell 331, elapsed: 0.0004999637603759766
ell 330, elapsed: 0.0004508495330810547
ell 329, elapsed: 0.0004889965057373047
ell 328, elapsed: 0.0004010200500488281
ell 327, elapsed: 0.0004661083221435547
ell 326, elapsed: 0.0004010200500488281
ell 325, elapsed: 0.0005009174346923828
ell 324, elapsed: 0.0004019737243652344
ell 323, elapsed: 0.0004909038543701172
ell 322, elapsed: 0.0004029273986816406
ell 321, elapsed: 0.0004849433898925781
ell 320, elapsed: 0.0004069805145263672
ell 319, elapsed: 0.00047898292541503906
ell 318, elapsed: 0.00040221214294433594
ell 317, elapsed: 0.0004911422729492188
ell 316, elapsed: 0.0003991127014160156
ell 315, elapsed: 0.0004839897155761719
ell 314, elapsed: 0.00039887428283691406
ell 313, elapsed: 0.00048804283142089844
ell 312, elapsed: 0.0003979206085205078
ell 311, elapsed: 0.0004839897155761719
ell 310, elapsed: 0.00040221214294433594
ell 309, elapsed: 0.00048089027404785156
ell 308, elapsed: 0.00041294097900390625
ell 307, elapsed: 0.0004858970642089844
ell 306, elapsed: 0.0003910064697265625
ell 305, elapsed: 0.0004820823669433594
ell 304, elapsed: 0.0004191398620605469
ell 303, elapsed: 0.0005011558532714844
ell 302, elapsed: 0.00041794776916503906
ell 301, elapsed: 0.0005929470062255859
ell 300, elapsed: 0.0006132125854492188
ell 299, elapsed: 0.0006940364837646484
ell 298, elapsed: 0.0005059242248535156
ell 297, elapsed: 0.000720977783203125
ell 296, elapsed: 0.0006098747253417969
ell 295, elapsed: 0.0007419586181640625
ell 294, elapsed: 0.0004909038543701172
ell 293, elapsed: 0.0005488395690917969
ell 292, elapsed: 0.0005209445953369141
ell 291, elapsed: 0.0004830360412597656
ell 290, elapsed: 0.0005009174346923828
ell 289, elapsed: 0.0007038116455078125
ell 288, elapsed: 0.0006041526794433594
ell 287, elapsed: 0.0006778240203857422
ell 286, elapsed: 0.0004949569702148438
ell 285, elapsed: 0.000553131103515625
ell 284, elapsed: 0.0006048679351806641
ell 283, elapsed: 0.0007278919219970703
ell 282, elapsed: 0.0004398822784423828
ell 281, elapsed: 0.0004730224609375
ell 280, elapsed: 0.0005497932434082031
ell 279, elapsed: 0.0005388259887695312
ell 278, elapsed: 0.0005350112915039062
ell 277, elapsed: 0.0005710124969482422
ell 276, elapsed: 0.00037097930908203125
ell 275, elapsed: 0.0006229877471923828
ell 274, elapsed: 0.0004639625549316406
ell 273, elapsed: 0.0007848739624023438
ell 272, elapsed: 0.0006239414215087891
ell 271, elapsed: 0.0008971691131591797
ell 270, elapsed: 0.0004730224609375
ell 269, elapsed: 0.0007290840148925781
ell 268, elapsed: 0.0006830692291259766
ell 267, elapsed: 0.0005590915679931641
ell 266, elapsed: 0.0004839897155761719
ell 265, elapsed: 0.0007610321044921875
ell 264, elapsed: 0.0006399154663085938
ell 263, elapsed: 0.0007431507110595703
ell 262, elapsed: 0.0006330013275146484
ell 261, elapsed: 0.0005850791931152344
ell 260, elapsed: 0.0006160736083984375
ell 259, elapsed: 0.0006201267242431641
ell 258, elapsed: 0.0006539821624755859
ell 257, elapsed: 0.0008339881896972656
ell 256, elapsed: 0.0006909370422363281
ell 255, elapsed: 0.0007951259613037109
ell 254, elapsed: 0.0005710124969482422
ell 253, elapsed: 0.0008370876312255859
ell 252, elapsed: 0.00047206878662109375
ell 251, elapsed: 0.0007910728454589844
ell 250, elapsed: 0.0006740093231201172
ell 249, elapsed: 0.0008389949798583984
ell 248, elapsed: 0.0004699230194091797
ell 247, elapsed: 0.0006840229034423828
ell 246, elapsed: 0.0006649494171142578
ell 245, elapsed: 0.000537872314453125
ell 244, elapsed: 0.0006501674652099609
ell 243, elapsed: 0.0005710124969482422
ell 242, elapsed: 0.000476837158203125
ell 241, elapsed: 0.0008111000061035156
ell 240, elapsed: 0.0007281303405761719
ell 239, elapsed: 0.0005609989166259766
ell 238, elapsed: 0.0006289482116699219
ell 237, elapsed: 0.0007729530334472656
ell 236, elapsed: 0.0004680156707763672
ell 235, elapsed: 0.0008838176727294922
ell 234, elapsed: 0.00048089027404785156
ell 233, elapsed: 0.0008630752563476562
ell 232, elapsed: 0.0006728172302246094
ell 231, elapsed: 0.0008721351623535156
ell 230, elapsed: 0.0004799365997314453
ell 229, elapsed: 0.0005941390991210938
ell 228, elapsed: 0.00045990943908691406
ell 227, elapsed: 0.0007579326629638672
ell 226, elapsed: 0.0004749298095703125
ell 225, elapsed: 0.0005819797515869141
ell 224, elapsed: 0.0004799365997314453
ell 223, elapsed: 0.0008108615875244141
ell 222, elapsed: 0.0007100105285644531
ell 221, elapsed: 0.0005509853363037109
ell 220, elapsed: 0.0004718303680419922
ell 219, elapsed: 0.00086212158203125
ell 218, elapsed: 0.0007009506225585938
ell 217, elapsed: 0.0005590915679931641
ell 216, elapsed: 0.0006208419799804688
ell 215, elapsed: 0.0005779266357421875
ell 214, elapsed: 0.00047016143798828125
ell 213, elapsed: 0.0008199214935302734
ell 212, elapsed: 0.0007340908050537109
ell 211, elapsed: 0.0005838871002197266
ell 210, elapsed: 0.0006489753723144531
ell 209, elapsed: 0.00086212158203125
ell 208, elapsed: 0.0007140636444091797
ell 207, elapsed: 0.0008189678192138672
ell 206, elapsed: 0.0007190704345703125
ell 205, elapsed: 0.0008859634399414062
ell 204, elapsed: 0.000492095947265625
ell 203, elapsed: 0.0005700588226318359
ell 202, elapsed: 0.0007297992706298828
ell 201, elapsed: 0.0008080005645751953
ell 200, elapsed: 0.0006549358367919922
ell 199, elapsed: 0.00055694580078125
ell 198, elapsed: 0.0006818771362304688
ell 197, elapsed: 0.0006120204925537109
ell 196, elapsed: 0.0006539821624755859
ell 195, elapsed: 0.0005779266357421875
ell 194, elapsed: 0.0007159709930419922
ell 193, elapsed: 0.0008399486541748047
ell 192, elapsed: 0.0004839897155761719
ell 191, elapsed: 0.0007932186126708984
ell 190, elapsed: 0.0007190704345703125
ell 189, elapsed: 0.0006029605865478516
ell 188, elapsed: 0.0007250308990478516
ell 187, elapsed: 0.0005810260772705078
ell 186, elapsed: 0.00048804283142089844
ell 185, elapsed: 0.0008330345153808594
ell 184, elapsed: 0.0006520748138427734
ell 183, elapsed: 0.0005428791046142578
ell 182, elapsed: 0.0004868507385253906
ell 181, elapsed: 0.0005650520324707031
ell 180, elapsed: 0.0006289482116699219
ell 179, elapsed: 0.0008149147033691406
ell 178, elapsed: 0.00047588348388671875
ell 177, elapsed: 0.0007920265197753906
ell 176, elapsed: 0.0005061626434326172
ell 175, elapsed: 0.0008320808410644531
ell 174, elapsed: 0.0007228851318359375
ell 173, elapsed: 0.0008230209350585938
ell 172, elapsed: 0.0007188320159912109
ell 171, elapsed: 0.0008480548858642578
ell 170, elapsed: 0.0004658699035644531
ell 169, elapsed: 0.0008552074432373047
ell 168, elapsed: 0.0007219314575195312
ell 167, elapsed: 0.0008399486541748047
ell 166, elapsed: 0.00047707557678222656
ell 165, elapsed: 0.0008590221405029297
ell 164, elapsed: 0.0006859302520751953
ell 163, elapsed: 0.0007901191711425781
ell 162, elapsed: 0.0007510185241699219
ell 161, elapsed: 0.0005679130554199219
ell 160, elapsed: 0.0006380081176757812
ell 159, elapsed: 0.0007970333099365234
ell 158, elapsed: 0.0004839897155761719
ell 157, elapsed: 0.0005822181701660156
ell 156, elapsed: 0.0006659030914306641
ell 155, elapsed: 0.0008139610290527344
ell 154, elapsed: 0.00074005126953125
ell 153, elapsed: 0.0005698204040527344
ell 152, elapsed: 0.000720977783203125
ell 151, elapsed: 0.0008599758148193359
ell 150, elapsed: 0.0004811286926269531
ell 149, elapsed: 0.0005729198455810547
ell 148, elapsed: 0.0006849765777587891
ell 147, elapsed: 0.0008389949798583984
ell 146, elapsed: 0.0004639625549316406
ell 145, elapsed: 0.0005631446838378906
ell 144, elapsed: 0.0006148815155029297
ell 143, elapsed: 0.0008609294891357422
ell 142, elapsed: 0.0006558895111083984
ell 141, elapsed: 0.0005838871002197266
ell 140, elapsed: 0.0004699230194091797
ell 139, elapsed: 0.0007579326629638672
ell 138, elapsed: 0.0006461143493652344
ell 137, elapsed: 0.0008051395416259766
ell 136, elapsed: 0.0007188320159912109
ell 135, elapsed: 0.0008690357208251953
ell 134, elapsed: 0.000720977783203125
ell 133, elapsed: 0.0008890628814697266
ell 132, elapsed: 0.0006158351898193359
ell 131, elapsed: 0.0008909702301025391
ell 130, elapsed: 0.0007340908050537109
ell 129, elapsed: 0.0008039474487304688
ell 128, elapsed: 0.0004811286926269531
ell 127, elapsed: 0.0005939006805419922
ell 126, elapsed: 0.0007050037384033203
ell 125, elapsed: 0.0008530616760253906
ell 124, elapsed: 0.0006570816040039062
ell 123, elapsed: 0.0005850791931152344
ell 122, elapsed: 0.0006320476531982422
ell 121, elapsed: 0.0008120536804199219
ell 120, elapsed: 0.0006728172302246094
ell 119, elapsed: 0.0005860328674316406
ell 118, elapsed: 0.0007271766662597656
ell 117, elapsed: 0.0008001327514648438
ell 116, elapsed: 0.0004930496215820312
ell 115, elapsed: 0.0008950233459472656
ell 114, elapsed: 0.0005040168762207031
ell 113, elapsed: 0.0008349418640136719
ell 112, elapsed: 0.0007371902465820312
ell 111, elapsed: 0.0008089542388916016
ell 110, elapsed: 0.00047016143798828125
ell 109, elapsed: 0.0007848739624023438
ell 108, elapsed: 0.0006170272827148438
ell 107, elapsed: 0.000843048095703125
ell 106, elapsed: 0.0004889965057373047
ell 105, elapsed: 0.0007860660552978516
ell 104, elapsed: 0.0006449222564697266
ell 103, elapsed: 0.0006220340728759766
ell 102, elapsed: 0.0004971027374267578
ell 101, elapsed: 0.00045418739318847656
ell 100, elapsed: 0.00045013427734375
ell 99, elapsed: 0.0007147789001464844
ell 98, elapsed: 0.0004961490631103516
ell 97, elapsed: 0.0006830692291259766
ell 96, elapsed: 0.0006270408630371094
ell 95, elapsed: 0.0007240772247314453
ell 94, elapsed: 0.0006060600280761719
ell 93, elapsed: 0.000720977783203125
ell 92, elapsed: 0.0005991458892822266
ell 91, elapsed: 0.0007159709930419922
ell 90, elapsed: 0.0006060600280761719
ell 89, elapsed: 0.0007281303405761719
ell 88, elapsed: 0.0006000995635986328
ell 87, elapsed: 0.0007138252258300781
ell 86, elapsed: 0.0005269050598144531
ell 85, elapsed: 0.0006930828094482422
ell 84, elapsed: 0.0006170272827148438
ell 83, elapsed: 0.0007200241088867188
ell 82, elapsed: 0.0005810260772705078
ell 81, elapsed: 0.0007109642028808594
ell 80, elapsed: 0.0005931854248046875
ell 79, elapsed: 0.0006270408630371094
ell 78, elapsed: 0.00037598609924316406
ell 77, elapsed: 0.00046896934509277344
ell 76, elapsed: 0.0005540847778320312
ell 75, elapsed: 0.0007350444793701172
ell 74, elapsed: 0.0006010532379150391
ell 73, elapsed: 0.0007259845733642578
ell 72, elapsed: 0.0005230903625488281
ell 71, elapsed: 0.00046515464782714844
ell 70, elapsed: 0.0005640983581542969
ell 69, elapsed: 0.0007350444793701172
ell 68, elapsed: 0.0005958080291748047
ell 67, elapsed: 0.0005269050598144531
ell 66, elapsed: 0.0005438327789306641
ell 65, elapsed: 0.0006878376007080078
ell 64, elapsed: 0.0005848407745361328
ell 63, elapsed: 0.0007131099700927734
ell 62, elapsed: 0.0006110668182373047
ell 61, elapsed: 0.0007331371307373047
ell 60, elapsed: 0.0004749298095703125
ell 59, elapsed: 0.0006239414215087891
ell 58, elapsed: 0.00047898292541503906
ell 57, elapsed: 0.0007259845733642578
ell 56, elapsed: 0.0004220008850097656
ell 55, elapsed: 0.0005230903625488281
ell 54, elapsed: 0.0006389617919921875
ell 53, elapsed: 0.0005459785461425781
ell 52, elapsed: 0.0006358623504638672
ell 51, elapsed: 0.0007529258728027344
ell 50, elapsed: 0.0006821155548095703
ell 49, elapsed: 0.0005838871002197266
ell 48, elapsed: 0.0004420280456542969
ell 47, elapsed: 0.0007519721984863281
ell 46, elapsed: 0.0006070137023925781
ell 45, elapsed: 0.0007429122924804688
ell 44, elapsed: 0.00043201446533203125
ell 43, elapsed: 0.0005300045013427734
ell 42, elapsed: 0.0006299018859863281
ell 41, elapsed: 0.0007460117340087891
ell 40, elapsed: 0.0004551410675048828
ell 39, elapsed: 0.0005161762237548828
ell 38, elapsed: 0.00043082237243652344
ell 37, elapsed: 0.0005218982696533203
ell 36, elapsed: 0.0006029605865478516
ell 35, elapsed: 0.0007908344268798828
ell 34, elapsed: 0.0004439353942871094
ell 33, elapsed: 0.0005269050598144531
ell 32, elapsed: 0.0006260871887207031
ell 31, elapsed: 0.0005679130554199219
ell 30, elapsed: 0.00043511390686035156
ell 29, elapsed: 0.0007309913635253906
ell 28, elapsed: 0.00044608116149902344
ell 27, elapsed: 0.0006470680236816406
ell 26, elapsed: 0.0004839897155761719
ell 25, elapsed: 0.0007441043853759766
ell 24, elapsed: 0.0005779266357421875
ell 23, elapsed: 0.0008440017700195312
ell 22, elapsed: 0.0006840229034423828
ell 21, elapsed: 0.0006239414215087891
ell 20, elapsed: 0.0005998611450195312
ell 19, elapsed: 0.0007951259613037109
ell 18, elapsed: 0.0006518363952636719
ell 17, elapsed: 0.0005948543548583984
ell 16, elapsed: 0.0006570816040039062
ell 15, elapsed: 0.0008339881896972656
ell 14, elapsed: 0.0006160736083984375
ell 13, elapsed: 0.0006220340728759766
ell 12, elapsed: 0.0004410743713378906
ell 11, elapsed: 0.0007140636444091797
ell 10, elapsed: 0.0005948543548583984
ell 9, elapsed: 0.0007379055023193359
ell 8, elapsed: 0.0005490779876708984
ell 7, elapsed: 0.0005769729614257812
ell 6, elapsed: 0.0005769729614257812
ell 5, elapsed: 0.000598907470703125
ell 4, elapsed: 0.0004398822784423828
ell 3, elapsed: 0.0005159378051757812
ell 2, elapsed: 0.0004298686981201172
ell 1, elapsed: 0.0008249282836914062
ell 0, elapsed: 0.0006628036499023438
  0.941768 seconds (41.19 k allocations: 2.939 MiB)
elapsed: 0.0010249614715576172
step:          0.079341 sec (0 allocations: 0 byte, 0.0% gc time)
swapping:      0.000971 sec (0 allocations: 0 byte, 0.0% gc time)
calc_Mellell!: 0.011524 sec (0 allocations: 0 byte, 0.0% gc time)
  t0 :  0.002631 sec (0 allocations: 0 byte, 0.0% gc time)
  tm2 : 0.117899 sec (0 allocations: 0 byte, 0.0% gc time)
  tm2s: 0.00202 sec (0 allocations: 0 byte, 0.0% gc time)
  tm4 : 0.282405 sec (0 allocations: 0 byte, 0.0% gc time)
  tp2 : 0.0 sec (0 allocations: 0 byte, 0.0% gc time)
  tp2s: 0.0 sec (0 allocations: 0 byte, 0.0% gc time)
  tp4 : 0.0 sec (0 allocations: 0 byte, 0.0% gc time)
calc_wtdll!:   0.424518 sec (9.87 k allocations: 1.043 MB, 0.0% gc time)
calc_wljj!:    0.045633 sec (689 allocations: 10.766 KB, 0.0% gc time)
mult_prefac!:  0.0 sec (0 allocations: 0 byte, 0.0% gc time)
convert:       0.0 sec (0 allocations: 0 byte, 0.0% gc time)
write:         0.065708 sec (0 allocations: 0 byte, 0.0% gc time)
test_rand_2f1: 0.0 sec (0 allocations: 0 byte, 0.0% gc time)
Closing outfile out/Ml21-cache.bin...   0.019720 seconds
  0.000331 seconds (52 allocations: 28.297 KiB)
make_phi():   0.002172 seconds (8.20 k allocations: 238.016 KiB)
  0.153472 seconds (146.69 k allocations: 3.629 MiB)
tskip:       0.001202 sec (0 allocations: 0 byte, 0.0% gc time)
tread:       0.024253 sec (19 allocations: 10.688 KB, 0.0% gc time)
tmultphi:    0.011745 sec (0 allocations: 0 byte, 0.0% gc time)
tbrfft:      0.04087 sec (9.592 k allocations: 449.625 KB, 0.0% gc time)
tmultprefac: 0.024883 sec (0 allocations: 0 byte, 0.0% gc time)
toutfunc:    0.04869 sec (129.905 k allocations: 2.421 MB, 0.0% gc time)
Testing R=1.0 ... passed
Calculating fmax: 
  dlrec    = 4
  dlrecRg1 = -4
  q=1.1, R=0.9:	  0.570965 seconds (116.47 k allocations: 15.614 MiB)

  0.571665 seconds (116.50 k allocations: 15.647 MiB)
ℓ = 1202
Δℓ = 4
ΔℓRg1 = -4
N = 1600
q = 1.1
kmin = 1.0e-5
kmax = 100000.00000000004
χ0 = 0.023029999999999995
RR = RR.tsv
ℓmax = ℓmax.bin
f21 = f21.bin
kmin = 1.0e-5
kmax = 100000.0
dlrec    = 4
dlrecRg1 = -4
Output size: 5741568 bytes = 0.005347251892089844 GiB
Output size: 51264 bytes = 4.774332046508789e-5 GiB
Reading 'out/F21EllCache'...   0.001275 seconds (267 allocations: 84.656 KiB)
ellmax: 1202
lmaxcache: 1202
fell[:,1,1] = Complex{Float64}[1.3482014726274674e-57 - 3.302141236118086e-73im, 1.357860004724329e-57 - 3.3257978169518355e-73im]
ell 1202, elapsed: 0.0001308917999267578
ell 1201, elapsed: 0.00061798095703125
ell 1200, elapsed: 0.0005769729614257812
ell 1199, elapsed: 0.0005750656127929688
ell 1198, elapsed: 0.0005750656127929688
ell 1002, elapsed: 0.012590169906616211
ell 1001, elapsed: 0.00042510032653808594
ell 1000, elapsed: 0.0004169940948486328
ell 999, elapsed: 0.00041604042053222656
ell 998, elapsed: 0.00041985511779785156
ell 902, elapsed: 0.006728172302246094
ell 901, elapsed: 0.0005929470062255859
ell 900, elapsed: 0.0006041526794433594
ell 899, elapsed: 0.0006301403045654297
ell 898, elapsed: 0.0005948543548583984
ell 802, elapsed: 0.0086669921875
ell 801, elapsed: 0.0006499290466308594
ell 800, elapsed: 0.0006201267242431641
ell 799, elapsed: 0.0006160736083984375
ell 798, elapsed: 0.0006320476531982422
ell 702, elapsed: 0.0070149898529052734
ell 701, elapsed: 0.0005590915679931641
ell 700, elapsed: 0.0006740093231201172
ell 699, elapsed: 0.00043392181396484375
ell 698, elapsed: 0.00039196014404296875
ell 602, elapsed: 0.005964040756225586
ell 601, elapsed: 0.00047087669372558594
ell 600, elapsed: 0.0005958080291748047
ell 599, elapsed: 0.0003859996795654297
ell 598, elapsed: 0.0003859996795654297
ell 502, elapsed: 0.0056760311126708984
ell 501, elapsed: 0.00038909912109375
ell 500, elapsed: 0.000514984130859375
ell 499, elapsed: 0.0005860328674316406
ell 498, elapsed: 0.0004189014434814453
ell 402, elapsed: 0.00589299201965332
ell 401, elapsed: 0.00039196014404296875
ell 400, elapsed: 0.000514984130859375
ell 399, elapsed: 0.0005731582641601562
ell 398, elapsed: 0.0005750656127929688
ell 302, elapsed: 0.006235837936401367
ell 301, elapsed: 0.0005841255187988281
ell 300, elapsed: 0.0006051063537597656
ell 299, elapsed: 0.0006368160247802734
ell 298, elapsed: 0.0005710124969482422
ell 202, elapsed: 0.007301807403564453
ell 201, elapsed: 0.00044608116149902344
ell 200, elapsed: 0.0004210472106933594
ell 199, elapsed: 0.0004169940948486328
ell 198, elapsed: 0.0004181861877441406
ell 152, elapsed: 0.003306865692138672
ell 151, elapsed: 0.00049591064453125
ell 150, elapsed: 0.0005879402160644531
ell 149, elapsed: 0.0004930496215820312
ell 148, elapsed: 0.0004889965057373047
ell 127, elapsed: 0.024621009826660156
ell 126, elapsed: 0.0005249977111816406
ell 125, elapsed: 0.0005619525909423828
ell 124, elapsed: 0.0005519390106201172
ell 123, elapsed: 0.0006079673767089844
ell 114, elapsed: 0.0012629032135009766
ell 113, elapsed: 0.0005450248718261719
ell 112, elapsed: 0.0005450248718261719
ell 111, elapsed: 0.0005459785461425781
ell 110, elapsed: 0.0005829334259033203
ell 102, elapsed: 0.0013630390167236328
ell 101, elapsed: 0.0006282329559326172
ell 100, elapsed: 0.00041794776916503906
ell 99, elapsed: 0.0004169940948486328
ell 98, elapsed: 0.0004181861877441406
ell 97, elapsed: 0.0005688667297363281
ell 96, elapsed: 0.0006041526794433594
ell 95, elapsed: 0.0004792213439941406
ell 94, elapsed: 0.0005788803100585938
ell 93, elapsed: 0.0004780292510986328
ell 92, elapsed: 0.0005769729614257812
ell 91, elapsed: 0.0004820823669433594
ell 90, elapsed: 0.0005991458892822266
ell 89, elapsed: 0.0004849433898925781
ell 88, elapsed: 0.0005738735198974609
ell 87, elapsed: 0.0004730224609375
ell 86, elapsed: 0.0005679130554199219
ell 85, elapsed: 0.00047206878662109375
ell 84, elapsed: 0.0005879402160644531
ell 83, elapsed: 0.00048804283142089844
ell 82, elapsed: 0.0005748271942138672
ell 81, elapsed: 0.00047087669372558594
ell 80, elapsed: 0.0005669593811035156
ell 79, elapsed: 0.0004680156707763672
ell 78, elapsed: 0.0005590915679931641
ell 77, elapsed: 0.0004611015319824219
ell 76, elapsed: 0.0005710124969482422
ell 75, elapsed: 0.0006129741668701172
ell 74, elapsed: 0.0008549690246582031
ell 73, elapsed: 0.00051116943359375
ell 72, elapsed: 0.0005478858947753906
ell 71, elapsed: 0.0004630088806152344
ell 70, elapsed: 0.0005660057067871094
ell 69, elapsed: 0.0004570484161376953
ell 68, elapsed: 0.0005500316619873047
ell 67, elapsed: 0.00045490264892578125
ell 66, elapsed: 0.0005421638488769531
ell 65, elapsed: 0.00045990943908691406
ell 64, elapsed: 0.0005509853363037109
ell 63, elapsed: 0.0004591941833496094
ell 62, elapsed: 0.000637054443359375
ell 61, elapsed: 0.00045800209045410156
ell 60, elapsed: 0.0005621910095214844
ell 59, elapsed: 0.00045800209045410156
ell 58, elapsed: 0.0005450248718261719
ell 57, elapsed: 0.00045800209045410156
ell 56, elapsed: 0.0005362033843994141
ell 55, elapsed: 0.0005350112915039062
ell 54, elapsed: 0.0005609989166259766
ell 53, elapsed: 0.0004661083221435547
ell 52, elapsed: 0.0005559921264648438
ell 51, elapsed: 0.0004680156707763672
ell 50, elapsed: 0.0005500316619873047
ell 49, elapsed: 0.0004680156707763672
ell 48, elapsed: 0.0006561279296875
ell 47, elapsed: 0.0004680156707763672
ell 46, elapsed: 0.0005519390106201172
ell 45, elapsed: 0.0004620552062988281
ell 44, elapsed: 0.0005469322204589844
ell 43, elapsed: 0.0004699230194091797
ell 42, elapsed: 0.0005540847778320312
ell 41, elapsed: 0.00045990943908691406
ell 40, elapsed: 0.0006568431854248047
ell 39, elapsed: 0.0004630088806152344
ell 38, elapsed: 0.0005660057067871094
ell 37, elapsed: 0.0004680156707763672
ell 36, elapsed: 0.0005559921264648438
ell 35, elapsed: 0.0004620552062988281
ell 34, elapsed: 0.0005431175231933594
ell 33, elapsed: 0.0008459091186523438
ell 32, elapsed: 0.0005559921264648438
ell 31, elapsed: 0.0004639625549316406
ell 30, elapsed: 0.0005438327789306641
ell 29, elapsed: 0.0004630088806152344
ell 28, elapsed: 0.0005600452423095703
ell 27, elapsed: 0.0005629062652587891
ell 26, elapsed: 0.0005609989166259766
ell 25, elapsed: 0.0004601478576660156
ell 24, elapsed: 0.0005519390106201172
ell 23, elapsed: 0.0004620552062988281
ell 22, elapsed: 0.0005488395690917969
ell 21, elapsed: 0.0004642009735107422
ell 20, elapsed: 0.0005600452423095703
ell 19, elapsed: 0.0006420612335205078
ell 18, elapsed: 0.0007569789886474609
ell 17, elapsed: 0.0005710124969482422
ell 16, elapsed: 0.0005581378936767578
ell 15, elapsed: 0.0004630088806152344
ell 14, elapsed: 0.0005459785461425781
ell 13, elapsed: 0.0006449222564697266
ell 12, elapsed: 0.0007379055023193359
ell 11, elapsed: 0.0006039142608642578
ell 10, elapsed: 0.000720977783203125
ell 9, elapsed: 0.0006029605865478516
ell 8, elapsed: 0.000827789306640625
ell 7, elapsed: 0.0006120204925537109
ell 6, elapsed: 0.0007259845733642578
ell 5, elapsed: 0.0006051063537597656
ell 4, elapsed: 0.0007121562957763672
ell 3, elapsed: 0.0006940364837646484
ell 2, elapsed: 0.0007259845733642578
ell 1, elapsed: 0.0004668235778808594
ell 0, elapsed: 0.0005521774291992188
  0.188757 seconds (10.83 k allocations: 697.938 KiB)
elapsed: 0.0005681514739990234
step:          0.074604 sec (0 allocations: 0 byte, 0.0% gc time)
swapping:      0.000745 sec (0 allocations: 0 byte, 0.0% gc time)
calc_Mellell!: 0.001582 sec (0 allocations: 0 byte, 0.0% gc time)
  t0 :  0.000497 sec (0 allocations: 0 byte, 0.0% gc time)
  tm2 : 0.01746 sec (0 allocations: 0 byte, 0.0% gc time)
  tm2s: 0.000401 sec (0 allocations: 0 byte, 0.0% gc time)
  tm4 : 0.04517 sec (0 allocations: 0 byte, 0.0% gc time)
  tp2 : 0.0 sec (0 allocations: 0 byte, 0.0% gc time)
  tp2s: 0.0 sec (0 allocations: 0 byte, 0.0% gc time)
  tp4 : 0.0 sec (0 allocations: 0 byte, 0.0% gc time)
calc_wtdll!:   0.06417 sec (1.344 k allocations: 147.0 KB, 0.0% gc time)
calc_wljj!:    0.00432 sec (6 allocations: 96 byte, 0.0% gc time)
mult_prefac!:  0.0 sec (0 allocations: 0 byte, 0.0% gc time)
convert:       0.0 sec (0 allocations: 0 byte, 0.0% gc time)
write:         0.006323 sec (0 allocations: 0 byte, 0.0% gc time)
test_rand_2f1: 0.0 sec (0 allocations: 0 byte, 0.0% gc time)
Closing outfile out/Ml21-cache.bin...   0.003416 seconds
  0.000268 seconds (52 allocations: 28.297 KiB)
make_phi():   0.002931 seconds (8.20 k allocations: 238.016 KiB)
  0.022039 seconds (12.10 k allocations: 322.000 KiB)
tskip:       2.9e-5 sec (0 allocations: 0 byte, 0.0% gc time)
tread:       0.003076 sec (19 allocations: 2.172 KB, 0.0% gc time)
tmultphi:    0.001812 sec (0 allocations: 0 byte, 0.0% gc time)
tbrfft:      0.005971 sec (896 allocations: 42.0 KB, 0.0% gc time)
tmultprefac: 0.003849 sec (0 allocations: 0 byte, 0.0% gc time)
toutfunc:    0.007269 sec (10.528 k allocations: 206.5 KB, 0.0% gc time)
Testing R=0.9 ... passed
Calculating fmax: 
  dlrec    = 4
  dlrecRg1 = -4
  q=1.1, R=0.8:	  0.473675 seconds (113.61 k allocations: 15.166 MiB, 4.10% gc time)

  0.474038 seconds (113.66 k allocations: 15.200 MiB, 4.09% gc time)
ℓ = 1202
Δℓ = 4
ΔℓRg1 = -4
N = 1600
q = 1.1
kmin = 1.0e-5
kmax = 100000.00000000004
χ0 = 0.023029999999999995
RR = RR.tsv
ℓmax = ℓmax.bin
f21 = f21.bin
kmin = 1.0e-5
kmax = 100000.0
dlrec    = 4
dlrecRg1 = -4
Output size: 5741568 bytes = 0.005347251892089844 GiB
Output size: 51264 bytes = 4.774332046508789e-5 GiB
Reading 'out/F21EllCache'...   0.001044 seconds (267 allocations: 84.656 KiB)
ellmax: 1202
lmaxcache: 1202
fell[:,1,1] = Complex{Float64}[7.519068145690986e-120 - 1.8416405474382574e-135im, 7.541664537386155e-120 - 1.847175067190611e-135im]
ell 1202, elapsed: 2.002716064453125e-5
ell 1201, elapsed: 0.00039696693420410156
ell 1200, elapsed: 0.0003619194030761719
ell 1199, elapsed: 0.00035500526428222656
ell 1198, elapsed: 0.0003540515899658203
ell 1002, elapsed: 0.01137399673461914
ell 1001, elapsed: 0.0003790855407714844
ell 1000, elapsed: 0.00035500526428222656
ell 999, elapsed: 0.0004589557647705078
ell 998, elapsed: 0.0003650188446044922
ell 902, elapsed: 0.0057659149169921875
ell 901, elapsed: 0.00037407875061035156
ell 900, elapsed: 0.0003619194030761719
ell 899, elapsed: 0.0003578662872314453
ell 898, elapsed: 0.0004558563232421875
ell 802, elapsed: 0.005784034729003906
ell 801, elapsed: 0.0004189014434814453
ell 800, elapsed: 0.00035500526428222656
ell 799, elapsed: 0.0003609657287597656
ell 798, elapsed: 0.0003631114959716797
ell 702, elapsed: 0.005609989166259766
ell 701, elapsed: 0.00043487548828125
ell 700, elapsed: 0.00041794776916503906
ell 699, elapsed: 0.0003719329833984375
ell 698, elapsed: 0.0004088878631591797
ell 602, elapsed: 0.005209922790527344
ell 601, elapsed: 0.000431060791015625
ell 600, elapsed: 0.0004150867462158203
ell 599, elapsed: 0.0004138946533203125
ell 598, elapsed: 0.00041604042053222656
ell 502, elapsed: 0.005644083023071289
ell 501, elapsed: 0.00049591064453125
ell 500, elapsed: 0.00042319297790527344
ell 499, elapsed: 0.0004169940948486328
ell 498, elapsed: 0.00041413307189941406
ell 402, elapsed: 0.0056879520416259766
ell 401, elapsed: 0.0006039142608642578
ell 400, elapsed: 0.0005009174346923828
ell 399, elapsed: 0.00041794776916503906
ell 398, elapsed: 0.00041604042053222656
ell 302, elapsed: 0.00548100471496582
ell 301, elapsed: 0.00036406517028808594
ell 300, elapsed: 0.00044918060302734375
ell 299, elapsed: 0.0005331039428710938
ell 298, elapsed: 0.0004229545593261719
ell 202, elapsed: 0.005849123001098633
ell 201, elapsed: 0.0003800392150878906
ell 200, elapsed: 0.0003619194030761719
ell 199, elapsed: 0.0004918575286865234
ell 198, elapsed: 0.0004191398620605469
ell 152, elapsed: 0.002966165542602539
ell 151, elapsed: 0.00044989585876464844
ell 150, elapsed: 0.0003609657287597656
ell 149, elapsed: 0.0003540515899658203
ell 148, elapsed: 0.0003559589385986328
ell 127, elapsed: 0.0015361309051513672
ell 126, elapsed: 0.0003600120544433594
ell 125, elapsed: 0.0003600120544433594
ell 124, elapsed: 0.00047087669372558594
ell 123, elapsed: 0.0004150867462158203
ell 114, elapsed: 0.0009500980377197266
ell 113, elapsed: 0.0004169940948486328
ell 112, elapsed: 0.0003859996795654297
ell 111, elapsed: 0.0003561973571777344
ell 110, elapsed: 0.0005009174346923828
ell 102, elapsed: 0.0010409355163574219
ell 101, elapsed: 0.0003609657287597656
ell 100, elapsed: 0.00035190582275390625
ell 99, elapsed: 0.0003561973571777344
ell 98, elapsed: 0.0003609657287597656
ell 97, elapsed: 0.0003981590270996094
ell 96, elapsed: 0.0004839897155761719
ell 95, elapsed: 0.00038313865661621094
ell 94, elapsed: 0.0008630752563476562
ell 93, elapsed: 0.00047397613525390625
ell 92, elapsed: 0.0005559921264648438
ell 91, elapsed: 0.0004520416259765625
ell 90, elapsed: 0.0005240440368652344
ell 89, elapsed: 0.0003871917724609375
ell 88, elapsed: 0.0004711151123046875
ell 87, elapsed: 0.0003771781921386719
ell 86, elapsed: 0.0008590221405029297
ell 85, elapsed: 0.0004730224609375
ell 84, elapsed: 0.0005629062652587891
ell 83, elapsed: 0.00045800209045410156
ell 82, elapsed: 0.0005509853363037109
ell 81, elapsed: 0.00046181678771972656
ell 80, elapsed: 0.0006539821624755859
ell 79, elapsed: 0.0004699230194091797
ell 78, elapsed: 0.0005619525909423828
ell 77, elapsed: 0.00045990943908691406
ell 76, elapsed: 0.0005679130554199219
ell 75, elapsed: 0.0004649162292480469
ell 74, elapsed: 0.0005559921264648438
ell 73, elapsed: 0.0004639625549316406
ell 72, elapsed: 0.0006620883941650391
ell 71, elapsed: 0.0004601478576660156
ell 70, elapsed: 0.0005540847778320312
ell 69, elapsed: 0.0004608631134033203
ell 68, elapsed: 0.0005469322204589844
ell 67, elapsed: 0.00045990943908691406
ell 66, elapsed: 0.0005540847778320312
ell 65, elapsed: 0.0005819797515869141
ell 64, elapsed: 0.0005698204040527344
ell 63, elapsed: 0.0004649162292480469
ell 62, elapsed: 0.0005550384521484375
ell 61, elapsed: 0.00045990943908691406
ell 60, elapsed: 0.0005640983581542969
ell 59, elapsed: 0.0004601478576660156
ell 58, elapsed: 0.0006258487701416016
ell 57, elapsed: 0.0004611015319824219
ell 56, elapsed: 0.000553131103515625
[...]
ell 788, elapsed: 0.0012049674987792969
ell 782, elapsed: 0.002207040786743164
ell 781, elapsed: 0.0012049674987792969
ell 780, elapsed: 0.0012400150299072266
ell 779, elapsed: 0.000926971435546875
ell 778, elapsed: 0.0008289813995361328
ell 772, elapsed: 0.0015559196472167969
ell 771, elapsed: 0.0008258819580078125
ell 770, elapsed: 0.0009129047393798828
ell 769, elapsed: 0.0008249282836914062
ell 768, elapsed: 0.0008280277252197266
ell 762, elapsed: 0.00185394287109375
ell 761, elapsed: 0.0008440017700195312
ell 760, elapsed: 0.0008358955383300781
ell 759, elapsed: 0.0008249282836914062
ell 758, elapsed: 0.0008299350738525391
ell 752, elapsed: 0.0018551349639892578
ell 751, elapsed: 0.0010979175567626953
ell 750, elapsed: 0.001116037368774414
ell 749, elapsed: 0.0013461112976074219
ell 748, elapsed: 0.0008571147918701172
ell 742, elapsed: 0.0017979145050048828
ell 741, elapsed: 0.0009598731994628906
ell 740, elapsed: 0.0009768009185791016
ell 739, elapsed: 0.001194000244140625
ell 738, elapsed: 0.0008280277252197266
ell 732, elapsed: 0.0021820068359375
ell 731, elapsed: 0.0012018680572509766
ell 730, elapsed: 0.0013270378112792969
ell 729, elapsed: 0.0011980533599853516
ell 728, elapsed: 0.001188039779663086
ell 722, elapsed: 0.0020258426666259766
ell 721, elapsed: 0.0007801055908203125
ell 720, elapsed: 0.0008330345153808594
ell 719, elapsed: 0.0009148120880126953
ell 718, elapsed: 0.0008330345153808594
ell 712, elapsed: 0.0015609264373779297
ell 711, elapsed: 0.0008289813995361328
ell 710, elapsed: 0.0009319782257080078
ell 709, elapsed: 0.0008249282836914062
ell 708, elapsed: 0.0008289813995361328
ell 702, elapsed: 0.0015690326690673828
ell 701, elapsed: 0.0009241104125976562
ell 700, elapsed: 0.0008301734924316406
ell 699, elapsed: 0.0008189678192138672
ell 698, elapsed: 0.0011348724365234375
ell 692, elapsed: 0.001986980438232422
ell 691, elapsed: 0.0008299350738525391
ell 690, elapsed: 0.0008280277252197266
ell 689, elapsed: 0.0011889934539794922
ell 688, elapsed: 0.0011990070343017578
ell 682, elapsed: 0.002344846725463867
ell 681, elapsed: 0.0012011528015136719
ell 680, elapsed: 0.0012009143829345703
ell 679, elapsed: 0.0011699199676513672
ell 678, elapsed: 0.0009300708770751953
ell 672, elapsed: 0.0015909671783447266
ell 671, elapsed: 0.0008320808410644531
ell 670, elapsed: 0.000926971435546875
ell 669, elapsed: 0.0008270740509033203
ell 668, elapsed: 0.0008289813995361328
ell 662, elapsed: 0.0016069412231445312
ell 661, elapsed: 0.0009310245513916016
ell 660, elapsed: 0.0008299350738525391
ell 659, elapsed: 0.0008249282836914062
ell 658, elapsed: 0.0008299350738525391
ell 652, elapsed: 0.0018939971923828125
ell 651, elapsed: 0.0008361339569091797
ell 650, elapsed: 0.0009968280792236328
ell 649, elapsed: 0.001233816146850586
ell 648, elapsed: 0.0009999275207519531
ell 642, elapsed: 0.0021390914916992188
ell 641, elapsed: 0.0012218952178955078
ell 640, elapsed: 0.0008668899536132812
ell 639, elapsed: 0.0008499622344970703
ell 638, elapsed: 0.0008449554443359375
ell 632, elapsed: 0.0020399093627929688
ell 631, elapsed: 0.0012099742889404297
ell 630, elapsed: 0.001241922378540039
ell 629, elapsed: 0.0008358955383300781
ell 628, elapsed: 0.0008320808410644531
ell 622, elapsed: 0.0018031597137451172
ell 621, elapsed: 0.0009138584136962891
ell 620, elapsed: 0.0008270740509033203
ell 619, elapsed: 0.0008218288421630859
ell 618, elapsed: 0.0008339881896972656
ell 612, elapsed: 0.00215911865234375
ell 611, elapsed: 0.0011990070343017578
ell 610, elapsed: 0.0010290145874023438
ell 609, elapsed: 0.0009019374847412109
ell 608, elapsed: 0.0008299350738525391
ell 602, elapsed: 0.001786947250366211
ell 601, elapsed: 0.0009839534759521484
ell 600, elapsed: 0.0008380413055419922
ell 599, elapsed: 0.0008080005645751953
ell 598, elapsed: 0.0008189678192138672
ell 592, elapsed: 0.0018777847290039062
ell 591, elapsed: 0.000823974609375
ell 590, elapsed: 0.0008270740509033203
ell 589, elapsed: 0.0011010169982910156
ell 588, elapsed: 0.0012848377227783203
ell 582, elapsed: 0.0017771720886230469
ell 581, elapsed: 0.0013918876647949219
ell 580, elapsed: 0.0012030601501464844
ell 579, elapsed: 0.0011930465698242188
ell 578, elapsed: 0.0013167858123779297
ell 572, elapsed: 0.0021660327911376953
ell 571, elapsed: 0.0009551048278808594
ell 570, elapsed: 0.0009930133819580078
ell 569, elapsed: 0.0008449554443359375
ell 568, elapsed: 0.0008308887481689453
ell 562, elapsed: 0.0018961429595947266
ell 561, elapsed: 0.0008330345153808594
ell 560, elapsed: 0.0008258819580078125
ell 559, elapsed: 0.000823974609375
ell 558, elapsed: 0.0008299350738525391
ell 552, elapsed: 0.0016739368438720703
ell 551, elapsed: 0.0008299350738525391
ell 550, elapsed: 0.0008299350738525391
ell 549, elapsed: 0.0008261203765869141
ell 548, elapsed: 0.0009338855743408203
ell 542, elapsed: 0.0021719932556152344
ell 541, elapsed: 0.0010881423950195312
ell 540, elapsed: 0.0010180473327636719
ell 539, elapsed: 0.0008330345153808594
ell 538, elapsed: 0.0011949539184570312
ell 532, elapsed: 0.0023148059844970703
ell 531, elapsed: 0.0012080669403076172
ell 530, elapsed: 0.0012998580932617188
ell 529, elapsed: 0.0011959075927734375
ell 528, elapsed: 0.0009889602661132812
ell 522, elapsed: 0.0018410682678222656
ell 521, elapsed: 0.0008490085601806641
ell 520, elapsed: 0.0008342266082763672
ell 519, elapsed: 0.0008339881896972656
ell 518, elapsed: 0.0008478164672851562
ell 512, elapsed: 0.0017919540405273438
ell 511, elapsed: 0.0008330345153808594
ell 510, elapsed: 0.0008308887481689453
ell 509, elapsed: 0.0008368492126464844
ell 508, elapsed: 0.0008318424224853516
ell 502, elapsed: 0.0018007755279541016
ell 501, elapsed: 0.0009329319000244141
ell 500, elapsed: 0.0008089542388916016
ell 499, elapsed: 0.0008330345153808594
ell 498, elapsed: 0.0011138916015625
ell 492, elapsed: 0.0018799304962158203
ell 491, elapsed: 0.0009849071502685547
ell 490, elapsed: 0.0012030601501464844
ell 489, elapsed: 0.0012121200561523438
ell 488, elapsed: 0.0012049674987792969
ell 482, elapsed: 0.0022668838500976562
ell 481, elapsed: 0.001260995864868164
ell 480, elapsed: 0.0012519359588623047
ell 479, elapsed: 0.000843048095703125
ell 478, elapsed: 0.0008549690246582031
ell 472, elapsed: 0.0018389225006103516
ell 471, elapsed: 0.0008499622344970703
ell 470, elapsed: 0.0008511543273925781
ell 469, elapsed: 0.0008358955383300781
ell 468, elapsed: 0.0008399486541748047
ell 462, elapsed: 0.0018191337585449219
ell 461, elapsed: 0.0007989406585693359
ell 460, elapsed: 0.0008368492126464844
ell 459, elapsed: 0.0008361339569091797
ell 458, elapsed: 0.0008389949798583984
ell 452, elapsed: 0.00156402587890625
ell 451, elapsed: 0.0010330677032470703
ell 450, elapsed: 0.001249074935913086
ell 449, elapsed: 0.0008320808410644531
ell 448, elapsed: 0.0009288787841796875
ell 442, elapsed: 0.002228975296020508
ell 441, elapsed: 0.0012259483337402344
ell 440, elapsed: 0.0012049674987792969
ell 439, elapsed: 0.0011990070343017578
ell 438, elapsed: 0.0012390613555908203
ell 432, elapsed: 0.001653909683227539
ell 431, elapsed: 0.0008380413055419922
ell 430, elapsed: 0.0008399486541748047
ell 429, elapsed: 0.0008449554443359375
ell 428, elapsed: 0.0008351802825927734
ell 422, elapsed: 0.0016188621520996094
ell 421, elapsed: 0.0008618831634521484
ell 420, elapsed: 0.0008339881896972656
ell 419, elapsed: 0.0008339881896972656
ell 418, elapsed: 0.0008358955383300781
ell 412, elapsed: 0.0018019676208496094
ell 411, elapsed: 0.0007910728454589844
ell 410, elapsed: 0.0008339881896972656
ell 409, elapsed: 0.0008111000061035156
ell 408, elapsed: 0.0008389949798583984
ell 402, elapsed: 0.001995086669921875
ell 401, elapsed: 0.0008869171142578125
ell 400, elapsed: 0.0008459091186523438
ell 399, elapsed: 0.0008449554443359375
ell 398, elapsed: 0.0008380413055419922
ell 392, elapsed: 0.0017549991607666016
ell 391, elapsed: 0.0007910728454589844
ell 390, elapsed: 0.0008289813995361328
ell 389, elapsed: 0.0008270740509033203
ell 388, elapsed: 0.0008308887481689453
ell 382, elapsed: 0.00180816650390625
ell 381, elapsed: 0.0008308887481689453
ell 380, elapsed: 0.0008361339569091797
ell 379, elapsed: 0.0008399486541748047
ell 378, elapsed: 0.000843048095703125
ell 372, elapsed: 0.0016019344329833984
ell 371, elapsed: 0.0008552074432373047
ell 370, elapsed: 0.0008339881896972656
ell 369, elapsed: 0.0008521080017089844
ell 368, elapsed: 0.0008308887481689453
ell 362, elapsed: 0.0017681121826171875
ell 361, elapsed: 0.0008058547973632812
ell 360, elapsed: 0.0008461475372314453
ell 359, elapsed: 0.0008280277252197266
ell 358, elapsed: 0.0008308887481689453
ell 352, elapsed: 0.001631021499633789
ell 351, elapsed: 0.0008389949798583984
ell 350, elapsed: 0.0008339881896972656
ell 349, elapsed: 0.0008339881896972656
ell 348, elapsed: 0.0008339881896972656
ell 342, elapsed: 0.0016219615936279297
ell 341, elapsed: 0.0008459091186523438
ell 340, elapsed: 0.0008389949798583984
ell 339, elapsed: 0.0008261203765869141
ell 338, elapsed: 0.0008449554443359375
ell 332, elapsed: 0.0016109943389892578
ell 331, elapsed: 0.0008718967437744141
ell 330, elapsed: 0.0008549690246582031
ell 329, elapsed: 0.0007960796356201172
ell 328, elapsed: 0.0010499954223632812
ell 322, elapsed: 0.001928091049194336
ell 321, elapsed: 0.0009181499481201172
ell 320, elapsed: 0.0010981559753417969
ell 319, elapsed: 0.0010578632354736328
ell 318, elapsed: 0.0008819103240966797
ell 312, elapsed: 0.0018110275268554688
ell 311, elapsed: 0.0008699893951416016
ell 310, elapsed: 0.0009851455688476562
ell 309, elapsed: 0.0009310245513916016
ell 308, elapsed: 0.00092315673828125
ell 302, elapsed: 0.0024139881134033203
ell 301, elapsed: 0.0007569789886474609
ell 300, elapsed: 0.0007500648498535156
ell 299, elapsed: 0.0007359981536865234
ell 298, elapsed: 0.0009379386901855469
ell 292, elapsed: 0.0016329288482666016
ell 291, elapsed: 0.0008740425109863281
ell 290, elapsed: 0.0008800029754638672
ell 289, elapsed: 0.0008330345153808594
ell 288, elapsed: 0.0007410049438476562
ell 282, elapsed: 0.0014770030975341797
ell 281, elapsed: 0.0007500648498535156
ell 280, elapsed: 0.0009338855743408203
ell 279, elapsed: 0.0008690357208251953
ell 278, elapsed: 0.0008680820465087891
ell 272, elapsed: 0.0028879642486572266
ell 271, elapsed: 0.0009469985961914062
ell 270, elapsed: 0.0009291172027587891
ell 269, elapsed: 0.0011150836944580078
ell 268, elapsed: 0.0009260177612304688
ell 262, elapsed: 0.0018661022186279297
ell 261, elapsed: 0.0011148452758789062
ell 260, elapsed: 0.0009319782257080078
ell 259, elapsed: 0.0009160041809082031
ell 258, elapsed: 0.0009188652038574219
ell 252, elapsed: 0.0019598007202148438
ell 251, elapsed: 0.0007460117340087891
ell 250, elapsed: 0.0008068084716796875
ell 249, elapsed: 0.0008800029754638672
ell 248, elapsed: 0.0007979869842529297
ell 242, elapsed: 0.0017719268798828125
ell 241, elapsed: 0.0007939338684082031
ell 240, elapsed: 0.000823974609375
ell 239, elapsed: 0.0008158683776855469
ell 238, elapsed: 0.0008111000061035156
ell 232, elapsed: 0.001558065414428711
ell 231, elapsed: 0.001074075698852539
ell 230, elapsed: 0.0007948875427246094
ell 229, elapsed: 0.0007882118225097656
ell 228, elapsed: 0.0007910728454589844
ell 222, elapsed: 0.0018410682678222656
ell 221, elapsed: 0.0007500648498535156
ell 220, elapsed: 0.001071929931640625
ell 219, elapsed: 0.0008029937744140625
ell 218, elapsed: 0.0008111000061035156
ell 212, elapsed: 0.001567840576171875
ell 211, elapsed: 0.0007939338684082031
ell 210, elapsed: 0.0008170604705810547
ell 209, elapsed: 0.0008208751678466797
ell 208, elapsed: 0.0008068084716796875
ell 202, elapsed: 0.0015461444854736328
ell 201, elapsed: 0.0008158683776855469
ell 200, elapsed: 0.0007991790771484375
ell 199, elapsed: 0.0007989406585693359
ell 198, elapsed: 0.0007839202880859375
ell 192, elapsed: 0.0015659332275390625
ell 191, elapsed: 0.0007998943328857422
ell 190, elapsed: 0.0008070468902587891
ell 189, elapsed: 0.0007970333099365234
ell 188, elapsed: 0.0012331008911132812
ell 182, elapsed: 0.0015032291412353516
ell 181, elapsed: 0.0007970333099365234
ell 180, elapsed: 0.0007860660552978516
ell 179, elapsed: 0.0008878707885742188
ell 178, elapsed: 0.0007829666137695312
ell 172, elapsed: 0.0015549659729003906
ell 171, elapsed: 0.0007967948913574219
ell 170, elapsed: 0.0008859634399414062
ell 169, elapsed: 0.0007891654968261719
ell 168, elapsed: 0.0008001327514648438
ell 162, elapsed: 0.0016651153564453125
ell 161, elapsed: 0.0008349418640136719
ell 160, elapsed: 0.0008940696716308594
ell 159, elapsed: 0.0007951259613037109
ell 158, elapsed: 0.0008039474487304688
ell 152, elapsed: 0.0015780925750732422
ell 151, elapsed: 0.0007998943328857422
ell 150, elapsed: 0.0007791519165039062
ell 149, elapsed: 0.0007879734039306641
ell 148, elapsed: 0.0007879734039306641
ell 142, elapsed: 0.0017821788787841797
ell 141, elapsed: 0.0008370876312255859
ell 140, elapsed: 0.0008029937744140625
ell 139, elapsed: 0.0008089542388916016
ell 138, elapsed: 0.0007991790771484375
ell 132, elapsed: 0.0015211105346679688
ell 131, elapsed: 0.0008051395416259766
ell 130, elapsed: 0.0008652210235595703
ell 129, elapsed: 0.0007941722869873047
ell 128, elapsed: 0.0007789134979248047
ell 122, elapsed: 0.0015530586242675781
ell 121, elapsed: 0.000820159912109375
ell 120, elapsed: 0.0007870197296142578
ell 119, elapsed: 0.0007979869842529297
ell 118, elapsed: 0.0008001327514648438
ell 112, elapsed: 0.0015709400177001953
ell 111, elapsed: 0.0007929801940917969
ell 110, elapsed: 0.0007970333099365234
ell 109, elapsed: 0.0007879734039306641
ell 108, elapsed: 0.0008070468902587891
ell 102, elapsed: 0.0015549659729003906
ell 101, elapsed: 0.0031599998474121094
ell 100, elapsed: 0.003961086273193359
ell 99, elapsed: 0.0036470890045166016
ell 98, elapsed: 0.0031621456146240234
ell 92, elapsed: 0.0070400238037109375
ell 91, elapsed: 0.004542827606201172
ell 90, elapsed: 0.0041980743408203125
ell 89, elapsed: 0.004227161407470703
ell 88, elapsed: 0.004527091979980469
ell 82, elapsed: 0.0073130130767822266
ell 81, elapsed: 0.003186941146850586
ell 80, elapsed: 0.003698110580444336
ell 79, elapsed: 0.003164052963256836
ell 78, elapsed: 0.003181934356689453
ell 72, elapsed: 0.0059168338775634766
ell 71, elapsed: 0.003192901611328125
ell 70, elapsed: 0.0032529830932617188
ell 69, elapsed: 0.003264904022216797
ell 68, elapsed: 0.004643917083740234
ell 62, elapsed: 0.007771015167236328
ell 61, elapsed: 0.0037419795989990234
ell 60, elapsed: 0.0042798519134521484
ell 59, elapsed: 0.0036771297454833984
ell 58, elapsed: 0.0032510757446289062
ell 52, elapsed: 0.0061419010162353516
ell 51, elapsed: 0.0038678646087646484
ell 50, elapsed: 0.0035240650177001953
ell 49, elapsed: 0.003983974456787109
ell 48, elapsed: 0.004443168640136719
ell 42, elapsed: 0.006378889083862305
ell 41, elapsed: 0.003258943557739258
ell 40, elapsed: 0.003248929977416992
ell 39, elapsed: 0.003228902816772461
ell 38, elapsed: 0.0033080577850341797
ell 32, elapsed: 0.006830930709838867
ell 31, elapsed: 0.003244161605834961
ell 30, elapsed: 0.0038328170776367188
ell 29, elapsed: 0.003609895706176758
ell 28, elapsed: 0.0034949779510498047
ell 22, elapsed: 0.005987882614135742
ell 21, elapsed: 0.0035212039947509766
ell 20, elapsed: 0.0035119056701660156
ell 19, elapsed: 0.003520965576171875
ell 18, elapsed: 0.0035619735717773438
ell 12, elapsed: 0.006175994873046875
ell 11, elapsed: 0.004312992095947266
ell 10, elapsed: 0.004636049270629883
ell 9, elapsed: 0.0032482147216796875
ell 8, elapsed: 0.004244089126586914
  0.860833 seconds (66.75 k allocations: 12.139 MiB)
elapsed: 0.0038580894470214844
step:          0.069917 sec (0 allocations: 0 byte, 0.0% gc time)
swapping:      0.000845 sec (0 allocations: 0 byte, 0.0% gc time)
calc_Mellell!: 0.035999 sec (0 allocations: 0 byte, 0.0% gc time)
  t0 :  0.011226 sec (0 allocations: 0 byte, 0.0% gc time)
  tm2 : 0.078524 sec (0 allocations: 0 byte, 0.0% gc time)
  tm2s: 0.010174 sec (0 allocations: 0 byte, 0.0% gc time)
  tm4 : 0.197001 sec (0 allocations: 0 byte, 0.0% gc time)
  tp2 : 0.0 sec (0 allocations: 0 byte, 0.0% gc time)
  tp2s: 0.0 sec (0 allocations: 0 byte, 0.0% gc time)
  tp4 : 0.0 sec (0 allocations: 0 byte, 0.0% gc time)
calc_wtdll!:   0.609544 sec (49.2 k allocations: 11.133 MB, 0.0% gc time)
calc_wljj!:    0.048096 sec (69 allocations: 1.078 KB, 0.0% gc time)
mult_prefac!:  0.0 sec (0 allocations: 0 byte, 0.0% gc time)
convert:       0.0 sec (0 allocations: 0 byte, 0.0% gc time)
write:         0.045213 sec (0 allocations: 0 byte, 0.0% gc time)
test_rand_2f1: 0.0 sec (0 allocations: 0 byte, 0.0% gc time)
Closing outfile out/MlCache/MlCache.bin...   0.000011 seconds
xi, l=0, nu=0:   0.411927 seconds (551.97 k allocations: 26.845 MiB)
xi, l=0, nu=-2:  0.002285 seconds (144 allocations: 149.562 KiB)
Created 'out/xi.tsv'.
  q=1.1, R=0.6:	  0.723983 seconds (291.08 k allocations: 38.895 MiB, 2.00% gc time)
  q=1.1, R=0.7:	  0.974644 seconds (304.75 k allocations: 40.996 MiB, 1.16% gc time)
  q=1.1, R=0.8:	  0.989876 seconds (299.14 k allocations: 40.132 MiB, 0.84% gc time)
  q=1.1, R=0.9:	  1.016721 seconds (293.57 k allocations: 39.286 MiB, 0.67% gc time)
  q=1.1, R=0.998:	 23.492651 seconds (10.67 M allocations: 823.453 MiB, 0.63% gc time)
  q=1.1, R=1.0:	  0.004453 seconds (10.24 k allocations: 768.375 KiB)

ℓ = 1000
Δℓ = 4
ΔℓRg1 = -4
N = 4096
q = 1.1
kmin = 1.0e-5
kmax = 1000.0
χ0 = 0.001
RR = RR.tsv
ℓmax = ℓmax.bin
f21 = f21.bin
kmin = 1.0e-5
kmax = 1000.0
dlrec    = 4
dlrecRg1 = -4
Output size: 1573632 bytes = 0.0014655590057373047 GiB
Output size: 786816 bytes = 0.0007327795028686523 GiB
Reading 'out/F21EllCache'...   0.001496 seconds (268 allocations: 533.531 KiB)
ellmax: 1002
lmaxcache: 1000
fell[:,1,1] = Complex{Float64}[1.7262928128202118e-224 - 4.2281979352226944e-240im, 1.7282693092099662e-224 - 4.233038955177176e-240im]
ell 1002, elapsed: 2.4080276489257812e-5
ell 1001, elapsed: 0.0013241767883300781
ell 1000, elapsed: 0.0026428699493408203
ell 999, elapsed: 0.011944055557250977
ell 998, elapsed: 0.02402806282043457
ell 44, elapsed: 0.7729709148406982
ell 43, elapsed: 0.00763702392578125
ell 42, elapsed: 0.008059978485107422
ell 41, elapsed: 0.0070149898529052734
ell 40, elapsed: 0.008143901824951172
  0.853153 seconds (4.55 k allocations: 320.359 KiB)
elapsed: 0.008972883224487305
step:          0.762354 sec (0 allocations: 0 byte, 0.0% gc time)
swapping:      0.000615 sec (0 allocations: 0 byte, 0.0% gc time)
calc_Mellell!: 0.001955 sec (0 allocations: 0 byte, 0.0% gc time)
  t0 :  0.000911 sec (0 allocations: 0 byte, 0.0% gc time)
  tm2 : 0.013708 sec (0 allocations: 0 byte, 0.0% gc time)
  tm2s: 0.00079 sec (0 allocations: 0 byte, 0.0% gc time)
  tm4 : 0.057078 sec (0 allocations: 0 byte, 0.0% gc time)
  tp2 : 0.0 sec (0 allocations: 0 byte, 0.0% gc time)
  tp2s: 0.0 sec (0 allocations: 0 byte, 0.0% gc time)
  tp4 : 0.0 sec (0 allocations: 0 byte, 0.0% gc time)
calc_wtdll!:   0.072814 sec (480 allocations: 52.5 KB, 0.0% gc time)
calc_wljj!:    0.0017 sec (1 allocations: 16 byte, 0.0% gc time)
mult_prefac!:  0.0 sec (0 allocations: 0 byte, 0.0% gc time)
convert:       0.0 sec (0 allocations: 0 byte, 0.0% gc time)
write:         0.001221 sec (0 allocations: 0 byte, 0.0% gc time)
test_rand_2f1: 0.0 sec (0 allocations: 0 byte, 0.0% gc time)
Closing outfile out/MlCache/MlCache.bin...   0.001666 seconds
  0.514927 seconds (54 allocations: 67.203 KiB)
make_phi():   0.009220 seconds (80 allocations: 276.297 KiB)
  0.003455 seconds (108 allocations: 5.812 KiB)
tskip:       1.0e-6 sec (0 allocations: 0 byte, 0.0% gc time)
tread:       0.000698 sec (19 allocations: 1.312 KB, 0.0% gc time)
tmultphi:    0.000352 sec (0 allocations: 0 byte, 0.0% gc time)
tbrfft:      0.001423 sec (96 allocations: 4.5 KB, 0.0% gc time)
tmultprefac: 0.000828 sec (0 allocations: 0 byte, 0.0% gc time)
toutfunc:    0.000273 sec (0 allocations: 0 byte, 0.0% gc time)
Created 'out/wl42_jj00.tsv'.
Created 'out/wl42_jj02.tsv'.
   Testing TwoFAST tests passed 
