Julia Version 1.6.0-DEV.1093
Commit 28330a2fef (2020-09-30 14:46 UTC)
Platform Info:
  OS: Linux (x86_64-linux-gnu)
  CPU: Intel(R) Xeon(R) Silver 4114 CPU @ 2.20GHz
  WORD_SIZE: 64
  LIBM: libopenlibm
  LLVM: libLLVM-10.0.1 (ORCJIT, skylake-avx512)
Environment:
  JULIA_DEPOT_PATH = ::/usr/local/share/julia
  JULIA_NUM_THREADS = 2

  Resolving package versions...
  Installed OpenSpecFun_jll ────────────── v0.5.3+3
  Installed IntelOpenMP_jll ────────────── v2018.0.3+0
  Installed MKL_jll ────────────────────── v2020.2.254+0
  Installed Reexport ───────────────────── v0.2.0
  Installed AbstractFFTs ───────────────── v0.5.0
  Installed FFTW ───────────────────────── v1.2.4
  Installed BinaryProvider ─────────────── v0.5.10
  Installed CompilerSupportLibraries_jll ─ v0.3.3+0
  Installed FFTW_jll ───────────────────── v3.3.9+5
  Installed SpecialFunctions ───────────── v0.10.3
  Installed GenericSVD ─────────────────── v0.3.0
  Installed GenericSchur ───────────────── v0.4.0
  Installed Readables ──────────────────── v0.3.3
  Installed TwoFAST ────────────────────── v0.1.3
  Installed ArbNumerics ────────────────── v1.2.1
Updating `~/.julia/environments/v1.6/Project.toml`
  [0dd23c3e] + TwoFAST v0.1.3
Updating `~/.julia/environments/v1.6/Manifest.toml`
  [621f4979] + AbstractFFTs v0.5.0
  [7e558dbc] + ArbNumerics v1.2.1
  [b99e7846] + BinaryProvider v0.5.10
  [e66e0078] + CompilerSupportLibraries_jll v0.3.3+0
  [7a1cc6ca] + FFTW v1.2.4
  [f5851436] + FFTW_jll v3.3.9+5
  [01680d73] + GenericSVD v0.3.0
  [c145ed77] + GenericSchur v0.4.0
  [1d5cc7b8] + IntelOpenMP_jll v2018.0.3+0
  [856f044c] + MKL_jll v2020.2.254+0
  [efe28fd5] + OpenSpecFun_jll v0.5.3+3
  [0d4725de] + Readables v0.3.3
  [189a3867] + Reexport v0.2.0
  [276daf66] + SpecialFunctions v0.10.3
  [0dd23c3e] + TwoFAST v0.1.3
  [56f22d72] + Artifacts
  [2a0f44e3] + Base64
  [ade2ca70] + Dates
  [8bb1440f] + DelimitedFiles
  [8ba89e20] + Distributed
  [b77e0a4c] + InteractiveUtils
  [76f85450] + LibGit2
  [8f399da3] + Libdl
  [37e2e46d] + LinearAlgebra
  [56ddb016] + Logging
  [d6f4376e] + Markdown
  [a63ad114] + Mmap
  [44cfe95a] + Pkg
  [de0858da] + Printf
  [3fa0cd96] + REPL
  [9a3f8284] + Random
  [ea8e919c] + SHA
  [9e88b42a] + Serialization
  [6462fe0b] + Sockets
  [fa267f1f] + TOML
  [8dfed614] + Test
  [cf7118a7] + UUIDs
  [4ec0a83e] + Unicode
   Building FFTW ───────→ `~/.julia/scratchspaces/44cfe95a-1eb2-52ea-b672-e2afdf69b78f/8b7c16b56936047ca41bf25effa137ae0b381ae8/build.log`
   Building ArbNumerics → `~/.julia/scratchspaces/44cfe95a-1eb2-52ea-b672-e2afdf69b78f/329a81d67c64e3a51c176a243b6424fbe39213d0/build.log`
    Testing TwoFAST
Status `/tmp/jl_He6Aha/Project.toml`
  [7e558dbc] ArbNumerics v1.2.1
  [39dd38d3] Dierckx v0.5.0
  [7a1cc6ca] FFTW v1.2.4
  [276daf66] SpecialFunctions v0.10.3
  [0dd23c3e] TwoFAST v0.1.3
  [8bb1440f] DelimitedFiles
  [37e2e46d] LinearAlgebra
  [56ddb016] Logging
  [8dfed614] Test
Status `/tmp/jl_He6Aha/Manifest.toml`
  [621f4979] AbstractFFTs v0.5.0
  [7e558dbc] ArbNumerics v1.2.1
  [b99e7846] BinaryProvider v0.5.10
  [e66e0078] CompilerSupportLibraries_jll v0.3.3+0
  [39dd38d3] Dierckx v0.5.0
  [cd4c43a9] Dierckx_jll v0.0.1+0
  [7a1cc6ca] FFTW v1.2.4
  [f5851436] FFTW_jll v3.3.9+5
  [01680d73] GenericSVD v0.3.0
  [c145ed77] GenericSchur v0.4.0
  [1d5cc7b8] IntelOpenMP_jll v2018.0.3+0
  [856f044c] MKL_jll v2020.2.254+0
  [efe28fd5] OpenSpecFun_jll v0.5.3+3
  [0d4725de] Readables v0.3.3
  [189a3867] Reexport v0.2.0
  [276daf66] SpecialFunctions v0.10.3
  [0dd23c3e] TwoFAST v0.1.3
  [56f22d72] Artifacts
  [2a0f44e3] Base64
  [ade2ca70] Dates
  [8bb1440f] DelimitedFiles
  [8ba89e20] Distributed
  [b77e0a4c] InteractiveUtils
  [76f85450] LibGit2
  [8f399da3] Libdl
  [37e2e46d] LinearAlgebra
  [56ddb016] Logging
  [d6f4376e] Markdown
  [a63ad114] Mmap
  [44cfe95a] Pkg
  [de0858da] Printf
  [3fa0cd96] REPL
  [9a3f8284] Random
  [ea8e919c] SHA
  [9e88b42a] Serialization
  [6462fe0b] Sockets
  [fa267f1f] TOML
  [8dfed614] Test
  [cf7118a7] UUIDs
  [4ec0a83e] Unicode
    Testing Running tests...
WARNING: could not import Printf.ini_hex into ArbNumerics
WARNING: could not import Printf.ini_HEX into ArbNumerics
t = 0.0 sec (0 allocations: 0 byte, 0.0% gc time)
typeof(t) = NamedTuple{(:value, :time, :bytes, :gctime, :gcstats), Tuple{DataType, Float64, Int64, Float64, Base.GC_Diff}}
TwoFAST.PerformanceStats.TimedType = Union{NamedTuple{(:value, :time, :bytes, :gctime, :gcstats), Tuple{T, Float64, Int64, Float64, Base.GC_Diff}}, Tuple{Any, Float64, Int64, Float64, Base.GC_Diff}} where T
t = 0.0 sec (0 allocations: 0 byte, 0.0% gc time)
t: 0.0 sec (0 allocations: 0 byte, 0.0% gc time)
Testing ξ(r), ℓ=0, ν=-1 ... passed
Testing ξ(r), ℓ=0, ν=0 ... passed
Testing ξ(r), ℓ=0, ν=1 ... passed
Testing ξ(r), ℓ=0, ν=2 ... passed
Testing ξ(r), ℓ=0, ν=3 ... passed
Testing ξ(r), ℓ=1, ν=0 ... passed
Testing ξ(r), ℓ=1, ν=1 ... passed
Testing ξ(r), ℓ=1, ν=2 ... passed
Testing ξ(r), ℓ=1, ν=3 ... passed
Testing ξ(r), ℓ=2, ν=-1 ... passed
Testing ξ(r), ℓ=2, ν=0 ... passed
Testing ξ(r), ℓ=2, ν=1 ... passed
Testing ξ(r), ℓ=2, ν=2 ... passed
Testing ξ(r), ℓ=2, ν=3 ... passed
Testing ξ(r), ℓ=3, ν=-1 ... passed
Testing ξ(r), ℓ=3, ν=0 ... passed
Testing ξ(r), ℓ=3, ν=1 ... passed
Testing ξ(r), ℓ=3, ν=2 ... passed
Testing ξ(r), ℓ=3, ν=3 ... passed
Testing ξ(r), ℓ=4, ν=-1 ... passed
Testing ξ(r), ℓ=4, ν=0 ... passed
Testing ξ(r), ℓ=4, ν=1 ... passed
Testing ξ(r), ℓ=4, ν=2 ... passed
Testing ξ(r), ℓ=4, ν=3 ... passed
Testing ξ(r) ... passed
Testing ξ′(r) ... passed
Testing ξ″(r) ... passed
Calculating fmax: 
  dlrec    = 4
  dlrecRg1 = -4
  q=1.1, R=1.1:	  6.520208 seconds (843.30 k allocations: 53.915 MiB, 1.38% gc time, 89.69% compilation time)

  6.536917 seconds (855.79 k allocations: 54.703 MiB, 1.38% gc time, 89.70% compilation time)
ℓ = 1202
Δℓ = 4
ΔℓRg1 = -4
N = 1600
q = 1.1
kmin = 1.0e-5
kmax = 100000.00000000004
χ0 = 0.023029999999999995
RR = RR.tsv
ℓmax = ℓmax.bin
f21 = f21.bin
kmin = 1.0e-5
kmax = 100000.0
dlrec    = 4
dlrecRg1 = -4
Output size: 5741568 bytes = 0.005347251892089844 GiB
Output size: 51264 bytes = 4.774332046508789e-5 GiB
Reading 'out/F21EllCache'...   0.623311 seconds (395.09 k allocations: 23.199 MiB, 99.60% compilation time)
ellmax: 1202
lmaxcache: 1202
fell[:,1,1] = ComplexF64[3.9583795592771634e-52 - 9.695233714158177e-68im, 3.990121772925759e-52 - 9.772979714843386e-68im]
ell 1202, elapsed: 3.790855407714844e-5
ell 1201, elapsed: 1.311007022857666
ell 1200, elapsed: 0.0005660057067871094
ell 1199, elapsed: 0.00049591064453125
ell 1198, elapsed: 0.000492095947265625
ell 1002, elapsed: 0.010215044021606445
ell 1001, elapsed: 0.0005040168762207031
ell 1000, elapsed: 0.0004911422729492188
ell 999, elapsed: 0.0004889965057373047
ell 998, elapsed: 0.000492095947265625
ell 902, elapsed: 0.005259990692138672
ell 901, elapsed: 0.0005078315734863281
ell 900, elapsed: 0.0004909038543701172
ell 899, elapsed: 0.0004899501800537109
ell 898, elapsed: 0.0004918575286865234
ell 802, elapsed: 0.005259990692138672
ell 801, elapsed: 0.0004971027374267578
ell 800, elapsed: 0.0004999637603759766
ell 799, elapsed: 0.0004918575286865234
ell 798, elapsed: 0.0004899501800537109
ell 702, elapsed: 0.0052449703216552734
ell 701, elapsed: 0.00049591064453125
ell 700, elapsed: 0.0004911422729492188
ell 699, elapsed: 0.0004889965057373047
ell 698, elapsed: 0.0004990100860595703
ell 602, elapsed: 0.0052490234375
ell 601, elapsed: 0.00049591064453125
ell 600, elapsed: 0.0004899501800537109
ell 599, elapsed: 0.00048804283142089844
ell 598, elapsed: 0.00048804283142089844
ell 502, elapsed: 0.00525212287902832
ell 501, elapsed: 0.0004951953887939453
ell 500, elapsed: 0.0004909038543701172
ell 499, elapsed: 0.0004909038543701172
ell 498, elapsed: 0.0004889965057373047
ell 402, elapsed: 0.005254030227661133
ell 401, elapsed: 0.0004940032958984375
ell 400, elapsed: 0.000492095947265625
ell 399, elapsed: 0.0004901885986328125
ell 398, elapsed: 0.0004909038543701172
ell 302, elapsed: 0.005240917205810547
ell 301, elapsed: 0.0005068778991699219
ell 300, elapsed: 0.0004889965057373047
ell 299, elapsed: 0.0004899501800537109
ell 298, elapsed: 0.0004909038543701172
ell 202, elapsed: 0.005439043045043945
ell 201, elapsed: 0.0004971027374267578
ell 200, elapsed: 0.0005030632019042969
ell 199, elapsed: 0.0004899501800537109
ell 198, elapsed: 0.0004899501800537109
ell 152, elapsed: 0.0027871131896972656
ell 151, elapsed: 0.0004930496215820312
ell 150, elapsed: 0.0004909038543701172
ell 149, elapsed: 0.0004889965057373047
ell 148, elapsed: 0.0004911422729492188
ell 127, elapsed: 0.0015358924865722656
ell 126, elapsed: 0.0005021095275878906
ell 125, elapsed: 0.0004990100860595703
ell 124, elapsed: 0.0004889965057373047
ell 123, elapsed: 0.0004909038543701172
ell 114, elapsed: 0.0009510517120361328
ell 113, elapsed: 0.0004899501800537109
ell 112, elapsed: 0.0004909038543701172
ell 111, elapsed: 0.0005009174346923828
ell 110, elapsed: 0.0004889965057373047
ell 102, elapsed: 0.0008940696716308594
ell 101, elapsed: 0.0004909038543701172
ell 100, elapsed: 0.0004909038543701172
ell 99, elapsed: 0.00048804283142089844
ell 98, elapsed: 0.0004899501800537109
ell 97, elapsed: 0.0005609989166259766
ell 96, elapsed: 0.0005490779876708984
ell 95, elapsed: 0.0005481243133544922
ell 94, elapsed: 0.0005459785461425781
ell 93, elapsed: 0.0005459785461425781
ell 92, elapsed: 0.0005488395690917969
ell 91, elapsed: 0.0005481243133544922
ell 90, elapsed: 0.000553131103515625
ell 89, elapsed: 0.0005488395690917969
ell 88, elapsed: 0.0005481243133544922
ell 87, elapsed: 0.0005459785461425781
ell 86, elapsed: 0.0005519390106201172
ell 85, elapsed: 0.0005481243133544922
ell 84, elapsed: 0.0005660057067871094
ell 83, elapsed: 0.0005500316619873047
ell 82, elapsed: 0.0005488395690917969
ell 81, elapsed: 0.0005509853363037109
ell 80, elapsed: 0.0005490779876708984
ell 79, elapsed: 0.0005490779876708984
ell 78, elapsed: 0.0005488395690917969
ell 77, elapsed: 0.0005621910095214844
ell 76, elapsed: 0.0005550384521484375
ell 75, elapsed: 0.0005450248718261719
ell 74, elapsed: 0.0005509853363037109
ell 73, elapsed: 0.0005469322204589844
ell 72, elapsed: 0.0005500316619873047
ell 71, elapsed: 0.0005440711975097656
ell 70, elapsed: 0.0005598068237304688
ell 69, elapsed: 0.000553131103515625
ell 68, elapsed: 0.0005471706390380859
ell 67, elapsed: 0.0005490779876708984
ell 66, elapsed: 0.0005478858947753906
ell 65, elapsed: 0.0005459785461425781
ell 64, elapsed: 0.0007328987121582031
ell 63, elapsed: 0.0006279945373535156
ell 62, elapsed: 0.0007269382476806641
ell 61, elapsed: 0.0006968975067138672
ell 60, elapsed: 0.0006878376007080078
ell 59, elapsed: 0.0006241798400878906
ell 58, elapsed: 0.0007050037384033203
ell 57, elapsed: 0.0006248950958251953
ell 56, elapsed: 0.0006389617919921875
ell 55, elapsed: 0.0006458759307861328
ell 54, elapsed: 0.0006468296051025391
ell 53, elapsed: 0.0006949901580810547
ell 52, elapsed: 0.0007801055908203125
ell 51, elapsed: 0.0006990432739257812
ell 50, elapsed: 0.0006999969482421875
ell 49, elapsed: 0.0006909370422363281
ell 48, elapsed: 0.000698089599609375
ell 47, elapsed: 0.0007028579711914062
ell 46, elapsed: 0.0006921291351318359
ell 45, elapsed: 0.0006899833679199219
ell 44, elapsed: 0.0007069110870361328
ell 43, elapsed: 0.0005710124969482422
ell 42, elapsed: 0.0005619525909423828
ell 41, elapsed: 0.0005540847778320312
ell 40, elapsed: 0.0005521774291992188
ell 39, elapsed: 0.0005590915679931641
ell 38, elapsed: 0.0005519390106201172
ell 37, elapsed: 0.0005729198455810547
ell 36, elapsed: 0.0005469322204589844
ell 35, elapsed: 0.0005509853363037109
ell 34, elapsed: 0.0005700588226318359
ell 33, elapsed: 0.0005528926849365234
ell 32, elapsed: 0.0005588531494140625
ell 31, elapsed: 0.0005550384521484375
ell 30, elapsed: 0.0005729198455810547
ell 29, elapsed: 0.0005638599395751953
ell 28, elapsed: 0.0005550384521484375
ell 27, elapsed: 0.0005588531494140625
ell 26, elapsed: 0.0005528926849365234
ell 25, elapsed: 0.0005559921264648438
ell 24, elapsed: 0.0005588531494140625
ell 23, elapsed: 0.0005619525909423828
ell 22, elapsed: 0.0005619525909423828
ell 21, elapsed: 0.0005500316619873047
ell 20, elapsed: 0.0005650520324707031
ell 19, elapsed: 0.0005521774291992188
ell 18, elapsed: 0.0005550384521484375
ell 17, elapsed: 0.000553131103515625
ell 16, elapsed: 0.0005640983581542969
ell 15, elapsed: 0.0005571842193603516
ell 14, elapsed: 0.0005559921264648438
ell 13, elapsed: 0.0005559921264648438
ell 12, elapsed: 0.0005559921264648438
ell 11, elapsed: 0.0005490779876708984
ell 10, elapsed: 0.0005559921264648438
ell 9, elapsed: 0.0005519390106201172
ell 8, elapsed: 0.0006239414215087891
ell 7, elapsed: 0.0005590915679931641
ell 6, elapsed: 0.0005528926849365234
ell 5, elapsed: 0.0005528926849365234
ell 4, elapsed: 0.0005509853363037109
ell 3, elapsed: 0.0005788803100585938
ell 2, elapsed: 0.0005590915679931641
ell 1, elapsed: 0.0005509853363037109
ell 0, elapsed: 0.00055694580078125
  1.890941 seconds (1.38 M allocations: 74.486 MiB, 2.28% gc time, 91.76% compilation time)
elapsed: 0.0006818771362304688
step:          0.382264 sec (311.138 k allocations: 16.962 MB, 5.65% gc time)
swapping:      0.000516 sec (0 allocations: 0 byte, 0.0% gc time)
calc_Mellell!: 0.164377 sec (135.74 k allocations: 7.433 MB, 13.08% gc time)
  t0 :  0.0 sec (0 allocations: 0 byte, 0.0% gc time)
  tm2 : 0.0 sec (0 allocations: 0 byte, 0.0% gc time)
  tm2s: 0.0 sec (0 allocations: 0 byte, 0.0% gc time)
  tm4 : 0.0 sec (0 allocations: 0 byte, 0.0% gc time)
  tp2 : 0.0 sec (0 allocations: 0 byte, 0.0% gc time)
  tp2s: 0.0 sec (0 allocations: 0 byte, 0.0% gc time)
  tp4 : 0.0 sec (0 allocations: 0 byte, 0.0% gc time)
calc_wtdll!:   0.893998 sec (509.626 k allocations: 28.202 MB, 0.0% gc time)
calc_wljj!:    0.003486 sec (6 allocations: 96 byte, 0.0% gc time)
mult_prefac!:  0.0 sec (0 allocations: 0 byte, 0.0% gc time)
convert:       0.0 sec (0 allocations: 0 byte, 0.0% gc time)
write:         0.003314 sec (0 allocations: 0 byte, 0.0% gc time)
test_rand_2f1: 0.0 sec (0 allocations: 0 byte, 0.0% gc time)
Closing outfile out/Ml21-cache.bin...   0.000007 seconds
  1.153150 seconds (246.49 k allocations: 14.233 MiB, 41.55% compilation time)
make_phi():   0.013078 seconds (8.18 k allocations: 237.844 KiB)
  0.245495 seconds (87.57 k allocations: 4.749 MiB, 92.11% compilation time)
tskip:       2.0e-5 sec (0 allocations: 0 byte, 0.0% gc time)
tread:       0.002335 sec (17 allocations: 2.125 KB, 0.0% gc time)
tmultphi:    0.043324 sec (21.425 k allocations: 1.287 MB, 0.0% gc time)
tbrfft:      0.004335 sec (0 allocations: 0 byte, 0.0% gc time)
tmultprefac: 0.004132 sec (0 allocations: 0 byte, 0.0% gc time)
toutfunc:    0.153097 sec (64.484 k allocations: 3.33 MB, 0.0% gc time)
Testing R=1.1 ... passed
Calculating fmax: 
  dlrec    = 4
  dlrecRg1 = -4
  q=1.1, R=1.0:	  0.001616 seconds (3.20 k allocations: 275.344 KiB)

  0.001775 seconds (3.25 k allocations: 309.984 KiB)
ℓ = 1202
Δℓ = 4
ΔℓRg1 = -4
N = 1600
q = 1.1
kmin = 1.0e-5
kmax = 100000.00000000004
χ0 = 0.023029999999999995
RR = RR.tsv
ℓmax = ℓmax.bin
f21 = f21.bin
kmin = 1.0e-5
kmax = 100000.0
dlrec    = 4
dlrecRg1 = -4
Output size: 61465536 bytes = 0.05724424123764038 GiB
Output size: 51264 bytes = 4.774332046508789e-5 GiB
Reading 'out/F21EllCache'...   0.001077 seconds (197 allocations: 84.203 KiB)
ellmax: 1202
lmaxcache: 1202
fell[:,1,1] = ComplexF64[809.6031528389767 - 1.9829558194077161e-13im, 0.0 + 0.0im]
ell 1202, elapsed: 0.00018310546875
ell 1201, elapsed: 0.015668869018554688
ell 1200, elapsed: 0.01565408706665039
ell 1199, elapsed: 0.0004119873046875
ell 1198, elapsed: 0.0003788471221923828
ell 1197, elapsed: 0.0004210472106933594
ell 1196, elapsed: 0.0003960132598876953
ell 1195, elapsed: 0.0004019737243652344
ell 1194, elapsed: 0.0004050731658935547
ell 1193, elapsed: 0.0003981590270996094
ell 1192, elapsed: 0.00039887428283691406
ell 1191, elapsed: 0.0003960132598876953
ell 1190, elapsed: 0.0004189014434814453
ell 1189, elapsed: 0.0004038810729980469
ell 1188, elapsed: 0.0004029273986816406
ell 1187, elapsed: 0.0004048347473144531
ell 1186, elapsed: 0.0004279613494873047
ell 1185, elapsed: 0.0004570484161376953
ell 1184, elapsed: 0.0004639625549316406
ell 1183, elapsed: 0.000453948974609375
ell 1182, elapsed: 0.00045299530029296875
ell 1181, elapsed: 0.0004611015319824219
ell 1180, elapsed: 0.0004229545593261719
ell 1179, elapsed: 0.00045180320739746094
ell 1178, elapsed: 0.0004451274871826172
ell 1177, elapsed: 0.00044798851013183594
ell 1176, elapsed: 0.00045180320739746094
ell 1175, elapsed: 0.0004630088806152344
ell 1174, elapsed: 0.0004680156707763672
ell 1173, elapsed: 0.0004749298095703125
ell 1172, elapsed: 0.0004470348358154297
ell 1171, elapsed: 0.0003981590270996094
ell 1170, elapsed: 0.0003941059112548828
ell 1169, elapsed: 0.0004000663757324219
ell 1168, elapsed: 0.000392913818359375
ell 1167, elapsed: 0.00040912628173828125
ell 1166, elapsed: 0.00039005279541015625
ell 1165, elapsed: 0.000408172607421875
ell 1164, elapsed: 0.00047087669372558594
ell 1163, elapsed: 0.00045013427734375
ell 1162, elapsed: 0.0004298686981201172
ell 1161, elapsed: 0.0004420280456542969
ell 1160, elapsed: 0.0004451274871826172
ell 1159, elapsed: 0.0004611015319824219
ell 1158, elapsed: 0.0004611015319824219
ell 1157, elapsed: 0.0004589557647705078
ell 1156, elapsed: 0.0004961490631103516
ell 1155, elapsed: 0.0004508495330810547
ell 1154, elapsed: 0.00045299530029296875
ell 1153, elapsed: 0.00041604042053222656
ell 1152, elapsed: 0.0004620552062988281
ell 1151, elapsed: 0.0004439353942871094
ell 1150, elapsed: 0.0004439353942871094
ell 1149, elapsed: 0.00045800209045410156
ell 1148, elapsed: 0.0004570484161376953
ell 1147, elapsed: 0.0004839897155761719
ell 1146, elapsed: 0.00045990943908691406
ell 1145, elapsed: 0.0004608631134033203
ell 1144, elapsed: 0.0004620552062988281
ell 1143, elapsed: 0.0004591941833496094
ell 1142, elapsed: 0.0004699230194091797
ell 1141, elapsed: 0.0004601478576660156
ell 1140, elapsed: 0.0003979206085205078
ell 1139, elapsed: 0.0004401206970214844
ell 1138, elapsed: 0.00044798851013183594
ell 1137, elapsed: 0.0004150867462158203
ell 1136, elapsed: 0.0003979206085205078
ell 1135, elapsed: 0.00039505958557128906
ell 1134, elapsed: 0.0004200935363769531
ell 1133, elapsed: 0.00045418739318847656
ell 1132, elapsed: 0.0004718303680419922
ell 1131, elapsed: 0.0004639625549316406
ell 1130, elapsed: 0.00047898292541503906
ell 1129, elapsed: 0.00046515464782714844
ell 1128, elapsed: 0.0004589557647705078
ell 1127, elapsed: 0.00047206878662109375
ell 1126, elapsed: 0.0004639625549316406
ell 1125, elapsed: 0.0004589557647705078
ell 1124, elapsed: 0.00047397613525390625
ell 1123, elapsed: 0.0004639625549316406
ell 1122, elapsed: 0.0004870891571044922
ell 1121, elapsed: 0.0004680156707763672
ell 1120, elapsed: 0.0004649162292480469
ell 1119, elapsed: 0.00046896934509277344
ell 1118, elapsed: 0.0004642009735107422
ell 1117, elapsed: 0.00047397613525390625
ell 1116, elapsed: 0.0004711151123046875
ell 1115, elapsed: 0.00047707557678222656
ell 1114, elapsed: 0.00048613548278808594
ell 1113, elapsed: 0.00046896934509277344
ell 1112, elapsed: 0.00047016143798828125
ell 1111, elapsed: 0.00046515464782714844
ell 1110, elapsed: 0.0004730224609375
ell 1109, elapsed: 0.0004639625549316406
ell 1108, elapsed: 0.0004658699035644531
ell 1107, elapsed: 0.0004718303680419922
ell 1106, elapsed: 0.0004730224609375
ell 1105, elapsed: 0.00047707557678222656
ell 1104, elapsed: 0.0004642009735107422
ell 1103, elapsed: 0.0004649162292480469
ell 1102, elapsed: 0.00047397613525390625
ell 1101, elapsed: 0.0004661083221435547
ell 1100, elapsed: 0.0004711151123046875
ell 1099, elapsed: 0.0004889965057373047
ell 1098, elapsed: 0.0004658699035644531
ell 1097, elapsed: 0.0004749298095703125
ell 1096, elapsed: 0.0004680156707763672
ell 1095, elapsed: 0.0004792213439941406
ell 1094, elapsed: 0.0004699230194091797
ell 1093, elapsed: 0.00046896934509277344
ell 1092, elapsed: 0.0004761219024658203
ell 1091, elapsed: 0.0004761219024658203
ell 1090, elapsed: 0.0004749298095703125
ell 1089, elapsed: 0.0004639625549316406
ell 1088, elapsed: 0.0004658699035644531
ell 1087, elapsed: 0.0004680156707763672
ell 1086, elapsed: 0.0004570484161376953
ell 1085, elapsed: 0.0004661083221435547
ell 1084, elapsed: 0.00044989585876464844
ell 1083, elapsed: 0.00045990943908691406
ell 1082, elapsed: 0.00047016143798828125
ell 1081, elapsed: 0.0004470348358154297
ell 1080, elapsed: 0.0004761219024658203
ell 1079, elapsed: 0.0004439353942871094
ell 1078, elapsed: 0.00044798851013183594
ell 1077, elapsed: 0.0004470348358154297
ell 1076, elapsed: 0.0004029273986816406
ell 1075, elapsed: 0.0004131793975830078
ell 1074, elapsed: 0.00041604042053222656
ell 1073, elapsed: 0.000392913818359375
ell 1072, elapsed: 0.00039696693420410156
ell 1071, elapsed: 0.0003840923309326172
ell 1070, elapsed: 0.00039887428283691406
ell 1069, elapsed: 0.0003981590270996094
ell 1068, elapsed: 0.00039005279541015625
ell 1067, elapsed: 0.0004069805145263672
ell 1066, elapsed: 0.00039005279541015625
ell 1065, elapsed: 0.00041484832763671875
ell 1064, elapsed: 0.0003879070281982422
ell 1063, elapsed: 0.00039696693420410156
ell 1062, elapsed: 0.0004100799560546875
ell 1061, elapsed: 0.0004050731658935547
ell 1060, elapsed: 0.000415802001953125
ell 1059, elapsed: 0.0003991127014160156
ell 1058, elapsed: 0.00043201446533203125
ell 1057, elapsed: 0.0004470348358154297
ell 1056, elapsed: 0.0004639625549316406
ell 1055, elapsed: 0.00043010711669921875
ell 1054, elapsed: 0.00041294097900390625
ell 1053, elapsed: 0.0004611015319824219
ell 1052, elapsed: 0.0004558563232421875
ell 1051, elapsed: 0.0004730224609375
ell 1050, elapsed: 0.00046896934509277344
ell 1049, elapsed: 0.00039887428283691406
ell 1048, elapsed: 0.0004050731658935547
ell 1047, elapsed: 0.00040602684020996094
ell 1046, elapsed: 0.00039887428283691406
ell 1045, elapsed: 0.0004019737243652344
ell 1044, elapsed: 0.00039696693420410156
ell 1043, elapsed: 0.0004029273986816406
ell 1042, elapsed: 0.000392913818359375
ell 1041, elapsed: 0.000392913818359375
ell 1040, elapsed: 0.0003998279571533203
ell 1039, elapsed: 0.00038886070251464844
ell 1038, elapsed: 0.0004169940948486328
ell 1037, elapsed: 0.000392913818359375
ell 1036, elapsed: 0.00039577484130859375
ell 1035, elapsed: 0.00040793418884277344
ell 1034, elapsed: 0.00041604042053222656
ell 1033, elapsed: 0.00041103363037109375
ell 1032, elapsed: 0.0004038810729980469
ell 1031, elapsed: 0.0004048347473144531
ell 1030, elapsed: 0.0004019737243652344
ell 1029, elapsed: 0.0004119873046875
ell 1028, elapsed: 0.0004050731658935547
ell 1027, elapsed: 0.0004010200500488281
ell 1026, elapsed: 0.0004000663757324219
ell 1025, elapsed: 0.0004260540008544922
ell 1024, elapsed: 0.0004360675811767578
ell 1023, elapsed: 0.0004658699035644531
ell 1022, elapsed: 0.00042700767517089844
ell 1021, elapsed: 0.00045299530029296875
ell 1020, elapsed: 0.00046896934509277344
ell 1019, elapsed: 0.0004458427429199219
ell 1018, elapsed: 0.0004429817199707031
ell 1017, elapsed: 0.0004420280456542969
ell 1016, elapsed: 0.00046896934509277344
ell 1015, elapsed: 0.0004451274871826172
ell 1014, elapsed: 0.0004439353942871094
ell 1013, elapsed: 0.00044798851013183594
ell 1012, elapsed: 0.00040411949157714844
ell 1011, elapsed: 0.0004508495330810547
ell 1010, elapsed: 0.000453948974609375
ell 1009, elapsed: 0.00041413307189941406
ell 1008, elapsed: 0.00039196014404296875
ell 1007, elapsed: 0.0003859996795654297
ell 1006, elapsed: 0.0004210472106933594
ell 1005, elapsed: 0.0004451274871826172
ell 1004, elapsed: 0.0004401206970214844
ell 1003, elapsed: 0.0004811286926269531
ell 1002, elapsed: 0.0004420280456542969
ell 1001, elapsed: 0.0004570484161376953
ell 1000, elapsed: 0.00045299530029296875
ell 999, elapsed: 0.0004298686981201172
ell 998, elapsed: 0.00045800209045410156
ell 997, elapsed: 0.000453948974609375
ell 996, elapsed: 0.00045490264892578125
ell 995, elapsed: 0.00044989585876464844
ell 994, elapsed: 0.0004749298095703125
ell 993, elapsed: 0.0004138946533203125
ell 992, elapsed: 0.0004439353942871094
ell 991, elapsed: 0.0004520416259765625
ell 990, elapsed: 0.00045013427734375
ell 989, elapsed: 0.00042891502380371094
ell 988, elapsed: 0.0004520416259765625
ell 987, elapsed: 0.000431060791015625
ell 986, elapsed: 0.00045108795166015625
ell 985, elapsed: 0.0003800392150878906
ell 984, elapsed: 0.00036215782165527344
ell 983, elapsed: 0.00036597251892089844
ell 982, elapsed: 0.0003609657287597656
ell 981, elapsed: 0.00037097930908203125
ell 980, elapsed: 0.00036406517028808594
ell 979, elapsed: 0.0003650188446044922
ell 978, elapsed: 0.0003688335418701172
ell 977, elapsed: 0.0003809928894042969
ell 976, elapsed: 0.00043392181396484375
ell 975, elapsed: 0.0004489421844482422
ell 974, elapsed: 0.0004761219024658203
ell 973, elapsed: 0.00040793418884277344
ell 972, elapsed: 0.00039577484130859375
ell 971, elapsed: 0.0004019737243652344
ell 970, elapsed: 0.00039386749267578125
ell 969, elapsed: 0.0003941059112548828
ell 968, elapsed: 0.0004010200500488281
ell 967, elapsed: 0.0004119873046875
ell 966, elapsed: 0.00041604042053222656
ell 965, elapsed: 0.0004589557647705078
ell 964, elapsed: 0.0004410743713378906
ell 963, elapsed: 0.0004711151123046875
ell 962, elapsed: 0.0004100799560546875
ell 961, elapsed: 0.000431060791015625
ell 960, elapsed: 0.00045490264892578125
ell 959, elapsed: 0.0004520416259765625
ell 958, elapsed: 0.00043702125549316406
ell 957, elapsed: 0.0004029273986816406
ell 956, elapsed: 0.0004298686981201172
ell 955, elapsed: 0.00045800209045410156
ell 954, elapsed: 0.00044608116149902344
ell 953, elapsed: 0.0004520416259765625
ell 952, elapsed: 0.00045490264892578125
ell 951, elapsed: 0.0004382133483886719
ell 950, elapsed: 0.0004730224609375
ell 949, elapsed: 0.000453948974609375
ell 948, elapsed: 0.0004551410675048828
ell 947, elapsed: 0.00041413307189941406
ell 946, elapsed: 0.000408172607421875
ell 945, elapsed: 0.0004241466522216797
ell 944, elapsed: 0.0004620552062988281
ell 943, elapsed: 0.0004520416259765625
ell 942, elapsed: 0.00045800209045410156
ell 941, elapsed: 0.0004279613494873047
ell 940, elapsed: 0.00045609474182128906
ell 939, elapsed: 0.00045609474182128906
ell 938, elapsed: 0.0004570484161376953
ell 937, elapsed: 0.0004589557647705078
ell 936, elapsed: 0.0004608631134033203
ell 935, elapsed: 0.0004520416259765625
ell 934, elapsed: 0.0004591941833496094
ell 933, elapsed: 0.00045490264892578125
ell 932, elapsed: 0.0004742145538330078
ell 931, elapsed: 0.00042700767517089844
ell 930, elapsed: 0.00045108795166015625
ell 929, elapsed: 0.0004429817199707031
ell 928, elapsed: 0.00045108795166015625
ell 927, elapsed: 0.00045299530029296875
ell 926, elapsed: 0.0004341602325439453
ell 925, elapsed: 0.00047206878662109375
ell 924, elapsed: 0.0004630088806152344
ell 923, elapsed: 0.00045800209045410156
ell 922, elapsed: 0.00045800209045410156
ell 921, elapsed: 0.00043010711669921875
ell 920, elapsed: 0.00044083595275878906
ell 919, elapsed: 0.0004508495330810547
ell 918, elapsed: 0.0004210472106933594
ell 917, elapsed: 0.005300998687744141
ell 916, elapsed: 0.0005860328674316406
ell 915, elapsed: 0.0005469322204589844
ell 914, elapsed: 0.0005300045013427734
ell 913, elapsed: 0.0005381107330322266
ell 912, elapsed: 0.0005469322204589844
ell 911, elapsed: 0.00055694580078125
ell 910, elapsed: 0.0004820823669433594
ell 909, elapsed: 0.0005009174346923828
ell 908, elapsed: 0.0005199909210205078
ell 907, elapsed: 0.0005049705505371094
ell 906, elapsed: 0.00047898292541503906
ell 905, elapsed: 0.000576019287109375
ell 904, elapsed: 0.0005679130554199219
ell 903, elapsed: 0.0005381107330322266
ell 902, elapsed: 0.0005521774291992188
ell 901, elapsed: 0.0004968643188476562
ell 900, elapsed: 0.0004620552062988281
ell 899, elapsed: 0.0005099773406982422
ell 898, elapsed: 0.0005447864532470703
ell 897, elapsed: 0.0005440711975097656
ell 896, elapsed: 0.0005588531494140625
ell 895, elapsed: 0.0005619525909423828
ell 894, elapsed: 0.0005290508270263672
ell 893, elapsed: 0.0005271434783935547
ell 892, elapsed: 0.0004570484161376953
ell 891, elapsed: 0.0005381107330322266
ell 890, elapsed: 0.0005190372467041016
ell 889, elapsed: 0.0004868507385253906
ell 888, elapsed: 0.0005440711975097656
ell 887, elapsed: 0.0005650520324707031
ell 886, elapsed: 0.0005600452423095703
ell 885, elapsed: 0.0005550384521484375
ell 884, elapsed: 0.0005948543548583984
ell 883, elapsed: 0.0004839897155761719
ell 882, elapsed: 0.0006389617919921875
ell 881, elapsed: 0.0005519390106201172
ell 880, elapsed: 0.0005419254302978516
ell 879, elapsed: 0.0005719661712646484
ell 878, elapsed: 0.0004878044128417969
ell 877, elapsed: 0.0004961490631103516
ell 876, elapsed: 0.0005178451538085938
ell 875, elapsed: 0.0004961490631103516
ell 874, elapsed: 0.0005180835723876953
ell 873, elapsed: 0.0005528926849365234
ell 872, elapsed: 0.0004830360412597656
ell 871, elapsed: 0.0005309581756591797
ell 870, elapsed: 0.0004470348358154297
ell 869, elapsed: 0.0005650520324707031
ell 868, elapsed: 0.0005888938903808594
ell 867, elapsed: 0.0005099773406982422
ell 866, elapsed: 0.0005519390106201172
ell 865, elapsed: 0.0005738735198974609
ell 864, elapsed: 0.0006411075592041016
ell 863, elapsed: 0.0007269382476806641
ell 862, elapsed: 0.0005609989166259766
ell 861, elapsed: 0.00045299530029296875
ell 860, elapsed: 0.0005769729614257812
ell 859, elapsed: 0.000537872314453125
ell 858, elapsed: 0.0007379055023193359
ell 857, elapsed: 0.00043201446533203125
ell 856, elapsed: 0.0005311965942382812
ell 855, elapsed: 0.0005190372467041016
ell 854, elapsed: 0.0005440711975097656
ell 853, elapsed: 0.0005750656127929688
ell 852, elapsed: 0.0005040168762207031
ell 851, elapsed: 0.0005800724029541016
ell 850, elapsed: 0.0005691051483154297
ell 849, elapsed: 0.0005881786346435547
ell 848, elapsed: 0.0005691051483154297
ell 847, elapsed: 0.000518798828125
ell 846, elapsed: 0.0005140304565429688
ell 845, elapsed: 0.0005359649658203125
ell 844, elapsed: 0.0005340576171875
ell 843, elapsed: 0.0005471706390380859
ell 842, elapsed: 0.0005590915679931641
ell 841, elapsed: 0.0005650520324707031
ell 840, elapsed: 0.0005328655242919922
ell 839, elapsed: 0.0005240440368652344
ell 838, elapsed: 0.0005230903625488281
ell 837, elapsed: 0.0005161762237548828
ell 836, elapsed: 0.0005621910095214844
ell 835, elapsed: 0.0004949569702148438
ell 834, elapsed: 0.0005509853363037109
ell 833, elapsed: 0.0004520416259765625
ell 832, elapsed: 0.0004839897155761719
ell 831, elapsed: 0.0004780292510986328
ell 830, elapsed: 0.0005099773406982422
ell 829, elapsed: 0.0005218982696533203
ell 828, elapsed: 0.000492095947265625
ell 827, elapsed: 0.0005321502685546875
ell 826, elapsed: 0.0005080699920654297
ell 825, elapsed: 0.0006160736083984375
ell 824, elapsed: 0.0005400180816650391
ell 823, elapsed: 0.00047087669372558594
ell 822, elapsed: 0.00049591064453125
ell 821, elapsed: 0.0004889965057373047
ell 820, elapsed: 0.0004901885986328125
ell 819, elapsed: 0.0004949569702148438
ell 818, elapsed: 0.0005550384521484375
ell 817, elapsed: 0.0005221366882324219
ell 816, elapsed: 0.00047588348388671875
ell 815, elapsed: 0.0004680156707763672
ell 814, elapsed: 0.0005409717559814453
ell 813, elapsed: 0.0005578994750976562
ell 812, elapsed: 0.0005230903625488281
ell 811, elapsed: 0.0005211830139160156
ell 810, elapsed: 0.0005621910095214844
ell 809, elapsed: 0.0005447864532470703
ell 808, elapsed: 0.0005409717559814453
ell 807, elapsed: 0.0005869865417480469
ell 806, elapsed: 0.0005719661712646484
ell 805, elapsed: 0.0005931854248046875
ell 804, elapsed: 0.0004901885986328125
ell 803, elapsed: 0.0005278587341308594
ell 802, elapsed: 0.0005919933319091797
ell 801, elapsed: 0.0005249977111816406
ell 800, elapsed: 0.0004889965057373047
ell 799, elapsed: 0.0005140304565429688
ell 798, elapsed: 0.0005409717559814453
ell 797, elapsed: 0.0005021095275878906
ell 796, elapsed: 0.0005650520324707031
ell 795, elapsed: 0.0005240440368652344
ell 794, elapsed: 0.0004711151123046875
ell 793, elapsed: 0.0005528926849365234
ell 792, elapsed: 0.0005400180816650391
ell 791, elapsed: 0.0005381107330322266
ell 790, elapsed: 0.0005040168762207031
ell 789, elapsed: 0.0005159378051757812
ell 788, elapsed: 0.0005609989166259766
ell 787, elapsed: 0.0005390644073486328
ell 786, elapsed: 0.0005080699920654297
ell 785, elapsed: 0.0005090236663818359
ell 784, elapsed: 0.0005419254302978516
ell 783, elapsed: 0.0005409717559814453
ell 782, elapsed: 0.0004520416259765625
ell 781, elapsed: 0.0004520416259765625
ell 780, elapsed: 0.0004830360412597656
ell 779, elapsed: 0.00045299530029296875
ell 778, elapsed: 0.0004570484161376953
ell 777, elapsed: 0.0004520416259765625
ell 776, elapsed: 0.0004749298095703125
ell 775, elapsed: 0.0005300045013427734
ell 774, elapsed: 0.0005528926849365234
ell 773, elapsed: 0.0005719661712646484
ell 772, elapsed: 0.0005428791046142578
ell 771, elapsed: 0.0005512237548828125
ell 770, elapsed: 0.0005190372467041016
ell 769, elapsed: 0.0005340576171875
ell 768, elapsed: 0.0005669593811035156
ell 767, elapsed: 0.0005390644073486328
ell 766, elapsed: 0.0005249977111816406
ell 765, elapsed: 0.0005450248718261719
ell 764, elapsed: 0.0005710124969482422
ell 763, elapsed: 0.0005750656127929688
ell 762, elapsed: 0.0005350112915039062
ell 761, elapsed: 0.0005271434783935547
ell 760, elapsed: 0.0005750656127929688
ell 759, elapsed: 0.000576019287109375
ell 758, elapsed: 0.0005488395690917969
ell 757, elapsed: 0.0005788803100585938
ell 756, elapsed: 0.0005440711975097656
ell 755, elapsed: 0.0005309581756591797
ell 754, elapsed: 0.000579833984375
ell 753, elapsed: 0.000537872314453125
ell 752, elapsed: 0.0004868507385253906
ell 751, elapsed: 0.0005238056182861328
ell 750, elapsed: 0.0005779266357421875
ell 749, elapsed: 0.0005431175231933594
ell 748, elapsed: 0.0005838871002197266
ell 747, elapsed: 0.0005199909210205078
ell 746, elapsed: 0.0005500316619873047
ell 745, elapsed: 0.0005459785461425781
ell 744, elapsed: 0.0005490779876708984
ell 743, elapsed: 0.0005869865417480469
ell 742, elapsed: 0.0005638599395751953
ell 741, elapsed: 0.0005369186401367188
ell 740, elapsed: 0.0005619525909423828
ell 739, elapsed: 0.0005769729614257812
ell 738, elapsed: 0.0005440711975097656
ell 737, elapsed: 0.0005049705505371094
ell 736, elapsed: 0.0004949569702148438
ell 735, elapsed: 0.00047898292541503906
ell 734, elapsed: 0.00051116943359375
ell 733, elapsed: 0.0005161762237548828
ell 732, elapsed: 0.0005819797515869141
ell 731, elapsed: 0.0006060600280761719
ell 730, elapsed: 0.0005910396575927734
ell 729, elapsed: 0.00055694580078125
ell 728, elapsed: 0.0005319118499755859
ell 727, elapsed: 0.0005269050598144531
ell 726, elapsed: 0.0005459785461425781
ell 725, elapsed: 0.0006010532379150391
ell 724, elapsed: 0.0005550384521484375
ell 723, elapsed: 0.0005340576171875
ell 722, elapsed: 0.0005369186401367188
ell 721, elapsed: 0.0005540847778320312
ell 720, elapsed: 0.0005528926849365234
ell 719, elapsed: 0.0005381107330322266
ell 718, elapsed: 0.0006010532379150391
ell 717, elapsed: 0.0005528926849365234
ell 716, elapsed: 0.0005691051483154297
ell 715, elapsed: 0.0005500316619873047
ell 714, elapsed: 0.0005450248718261719
ell 713, elapsed: 0.0005941390991210938
ell 712, elapsed: 0.0006101131439208984
ell 711, elapsed: 0.0005550384521484375
ell 710, elapsed: 0.0005860328674316406
ell 709, elapsed: 0.0005581378936767578
ell 708, elapsed: 0.0005910396575927734
ell 707, elapsed: 0.0006198883056640625
ell 706, elapsed: 0.0006060600280761719
ell 705, elapsed: 0.0005900859832763672
ell 704, elapsed: 0.0005431175231933594
ell 703, elapsed: 0.0005769729614257812
ell 702, elapsed: 0.0004818439483642578
ell 701, elapsed: 0.0005369186401367188
ell 700, elapsed: 0.0004909038543701172
ell 699, elapsed: 0.0005550384521484375
ell 698, elapsed: 0.0005419254302978516
ell 697, elapsed: 0.0006139278411865234
ell 696, elapsed: 0.0005979537963867188
ell 695, elapsed: 0.0006020069122314453
ell 694, elapsed: 0.0005729198455810547
ell 693, elapsed: 0.0004971027374267578
ell 692, elapsed: 0.00051116943359375
ell 691, elapsed: 0.0004949569702148438
ell 690, elapsed: 0.0006291866302490234
ell 689, elapsed: 0.0005128383636474609
ell 688, elapsed: 0.0005729198455810547
ell 687, elapsed: 0.0005381107330322266
ell 686, elapsed: 0.0005037784576416016
ell 685, elapsed: 0.0004780292510986328
ell 684, elapsed: 0.0005409717559814453
ell 683, elapsed: 0.0004649162292480469
ell 682, elapsed: 0.0004649162292480469
ell 681, elapsed: 0.0004718303680419922
ell 680, elapsed: 0.0004258155822753906
ell 679, elapsed: 0.0004291534423828125
ell 678, elapsed: 0.00047016143798828125
ell 677, elapsed: 0.0004999637603759766
ell 676, elapsed: 0.0005390644073486328
ell 675, elapsed: 0.0005309581756591797
ell 674, elapsed: 0.0005471706390380859
ell 673, elapsed: 0.0004868507385253906
ell 672, elapsed: 0.00048804283142089844
ell 671, elapsed: 0.0005049705505371094
ell 670, elapsed: 0.0005431175231933594
ell 669, elapsed: 0.0005588531494140625
ell 668, elapsed: 0.0004811286926269531
ell 667, elapsed: 0.0004851818084716797
ell 666, elapsed: 0.0004780292510986328
ell 665, elapsed: 0.0004968643188476562
ell 664, elapsed: 0.0005369186401367188
ell 663, elapsed: 0.0004999637603759766
ell 662, elapsed: 0.00047206878662109375
ell 661, elapsed: 0.0004611015319824219
ell 660, elapsed: 0.0004830360412597656
ell 659, elapsed: 0.0004630088806152344
ell 658, elapsed: 0.00047898292541503906
ell 657, elapsed: 0.00048613548278808594
ell 656, elapsed: 0.0005099773406982422
ell 655, elapsed: 0.0005278587341308594
ell 654, elapsed: 0.0005459785461425781
ell 653, elapsed: 0.00047588348388671875
ell 652, elapsed: 0.0004830360412597656
ell 651, elapsed: 0.00047707557678222656
ell 650, elapsed: 0.0004911422729492188
ell 649, elapsed: 0.0004699230194091797
ell 648, elapsed: 0.0005400180816650391
ell 647, elapsed: 0.0005099773406982422
ell 646, elapsed: 0.0004620552062988281
ell 645, elapsed: 0.0004019737243652344
ell 644, elapsed: 0.0004520416259765625
ell 643, elapsed: 0.0004780292510986328
ell 642, elapsed: 0.00047397613525390625
ell 641, elapsed: 0.00046706199645996094
ell 640, elapsed: 0.0004980564117431641
ell 639, elapsed: 0.0006208419799804688
ell 638, elapsed: 0.0006060600280761719
ell 637, elapsed: 0.0005550384521484375
ell 636, elapsed: 0.0005331039428710938
ell 635, elapsed: 0.0005419254302978516
ell 634, elapsed: 0.0005321502685546875
ell 633, elapsed: 0.0005490779876708984
ell 632, elapsed: 0.0005400180816650391
ell 631, elapsed: 0.0005619525909423828
ell 630, elapsed: 0.0005030632019042969
ell 629, elapsed: 0.0004990100860595703
ell 628, elapsed: 0.0005009174346923828
ell 627, elapsed: 0.0005698204040527344
ell 626, elapsed: 0.0005190372467041016
ell 625, elapsed: 0.0004978179931640625
ell 624, elapsed: 0.0004968643188476562
ell 623, elapsed: 0.0004971027374267578
ell 622, elapsed: 0.0005190372467041016
ell 621, elapsed: 0.0004928112030029297
ell 620, elapsed: 0.0004990100860595703
ell 619, elapsed: 0.0004949569702148438
ell 618, elapsed: 0.0005290508270263672
ell 617, elapsed: 0.0005128383636474609
ell 616, elapsed: 0.0004990100860595703
ell 615, elapsed: 0.0004990100860595703
ell 614, elapsed: 0.0004949569702148438
ell 613, elapsed: 0.0005128383636474609
ell 612, elapsed: 0.0004990100860595703
ell 611, elapsed: 0.0005021095275878906
ell 610, elapsed: 0.0004999637603759766
ell 609, elapsed: 0.0004971027374267578
ell 608, elapsed: 0.0005040168762207031
ell 607, elapsed: 0.00049591064453125
ell 606, elapsed: 0.0006730556488037109
ell 605, elapsed: 0.0006158351898193359
ell 604, elapsed: 0.0005669593811035156
ell 603, elapsed: 0.0004820823669433594
ell 602, elapsed: 0.0004742145538330078
ell 601, elapsed: 0.00045013427734375
ell 600, elapsed: 0.0004470348358154297
ell 599, elapsed: 0.0004730224609375
ell 598, elapsed: 0.00047206878662109375
ell 597, elapsed: 0.00048804283142089844
ell 596, elapsed: 0.0004489421844482422
ell 595, elapsed: 0.0004811286926269531
ell 594, elapsed: 0.0004489421844482422
ell 593, elapsed: 0.0004570484161376953
ell 592, elapsed: 0.0004990100860595703
ell 591, elapsed: 0.00047516822814941406
ell 590, elapsed: 0.00044918060302734375
ell 589, elapsed: 0.00047588348388671875
ell 588, elapsed: 0.0004658699035644531
ell 587, elapsed: 0.00045800209045410156
ell 586, elapsed: 0.0004899501800537109
ell 585, elapsed: 0.0004520416259765625
ell 584, elapsed: 0.0004649162292480469
ell 583, elapsed: 0.00045609474182128906
ell 582, elapsed: 0.0004820823669433594
ell 581, elapsed: 0.0004658699035644531
ell 580, elapsed: 0.00045490264892578125
ell 579, elapsed: 0.0004630088806152344
ell 578, elapsed: 0.0004570484161376953
ell 577, elapsed: 0.00045180320739746094
ell 576, elapsed: 0.0004611015319824219
ell 575, elapsed: 0.00045108795166015625
ell 574, elapsed: 0.0004661083221435547
ell 573, elapsed: 0.00045800209045410156
ell 572, elapsed: 0.0004551410675048828
ell 571, elapsed: 0.0004749298095703125
ell 570, elapsed: 0.0005321502685546875
ell 569, elapsed: 0.0005500316619873047
ell 568, elapsed: 0.00045490264892578125
ell 567, elapsed: 0.000453948974609375
ell 566, elapsed: 0.0004658699035644531
ell 565, elapsed: 0.000453948974609375
ell 564, elapsed: 0.00046706199645996094
ell 563, elapsed: 0.00045299530029296875
ell 562, elapsed: 0.0004930496215820312
ell 561, elapsed: 0.0004811286926269531
ell 560, elapsed: 0.0004889965057373047
ell 559, elapsed: 0.0004658699035644531
ell 558, elapsed: 0.000453948974609375
ell 557, elapsed: 0.00045108795166015625
ell 556, elapsed: 0.0005049705505371094
ell 555, elapsed: 0.0005099773406982422
ell 554, elapsed: 0.0005099773406982422
ell 553, elapsed: 0.00048279762268066406
ell 552, elapsed: 0.0004820823669433594
ell 551, elapsed: 0.0004799365997314453
ell 550, elapsed: 0.00045680999755859375
ell 549, elapsed: 0.0004870891571044922
ell 548, elapsed: 0.0004661083221435547
ell 547, elapsed: 0.0005040168762207031
ell 546, elapsed: 0.00045299530029296875
ell 545, elapsed: 0.0004711151123046875
ell 544, elapsed: 0.0005049705505371094
ell 543, elapsed: 0.0004551410675048828
ell 542, elapsed: 0.0004820823669433594
ell 541, elapsed: 0.0004699230194091797
ell 540, elapsed: 0.00045490264892578125
ell 539, elapsed: 0.0004980564117431641
ell 538, elapsed: 0.00045609474182128906
ell 537, elapsed: 0.0004680156707763672
ell 536, elapsed: 0.00047397613525390625
ell 535, elapsed: 0.0005221366882324219
ell 534, elapsed: 0.00046706199645996094
ell 533, elapsed: 0.0004870891571044922
ell 532, elapsed: 0.0004661083221435547
ell 531, elapsed: 0.0004971027374267578
ell 530, elapsed: 0.0004677772521972656
ell 529, elapsed: 0.0005059242248535156
ell 528, elapsed: 0.00051116943359375
ell 527, elapsed: 0.0004909038543701172
ell 526, elapsed: 0.0004520416259765625
ell 525, elapsed: 0.00046896934509277344
ell 524, elapsed: 0.0004820823669433594
ell 523, elapsed: 0.0005011558532714844
ell 522, elapsed: 0.0004639625549316406
ell 521, elapsed: 0.0004711151123046875
ell 520, elapsed: 0.00048089027404785156
ell 519, elapsed: 0.00045990943908691406
ell 518, elapsed: 0.00046896934509277344
ell 517, elapsed: 0.0004820823669433594
ell 516, elapsed: 0.000453948974609375
ell 515, elapsed: 0.0004830360412597656
ell 514, elapsed: 0.0004980564117431641
ell 513, elapsed: 0.0005099773406982422
ell 512, elapsed: 0.0004830360412597656
ell 511, elapsed: 0.0005121231079101562
ell 510, elapsed: 0.0005209445953369141
ell 509, elapsed: 0.0004980564117431641
ell 508, elapsed: 0.0004820823669433594
ell 507, elapsed: 0.00047898292541503906
ell 506, elapsed: 0.0004761219024658203
ell 505, elapsed: 0.0004999637603759766
ell 504, elapsed: 0.0004699230194091797
ell 503, elapsed: 0.0005228519439697266
ell 502, elapsed: 0.0004761219024658203
ell 501, elapsed: 0.000553131103515625
ell 500, elapsed: 0.0005300045013427734
ell 499, elapsed: 0.00048089027404785156
ell 498, elapsed: 0.0004930496215820312
ell 497, elapsed: 0.00047707557678222656
ell 496, elapsed: 0.0004680156707763672
ell 495, elapsed: 0.0004870891571044922
ell 494, elapsed: 0.00045609474182128906
ell 493, elapsed: 0.0004839897155761719
ell 492, elapsed: 0.0004889965057373047
ell 491, elapsed: 0.0004570484161376953
ell 490, elapsed: 0.0004649162292480469
ell 489, elapsed: 0.0004699230194091797
ell 488, elapsed: 0.0004668235778808594
ell 487, elapsed: 0.0004570484161376953
ell 486, elapsed: 0.00045609474182128906
ell 485, elapsed: 0.0004591941833496094
ell 484, elapsed: 0.00045680999755859375
ell 483, elapsed: 0.0004570484161376953
ell 482, elapsed: 0.0004589557647705078
ell 481, elapsed: 0.0004620552062988281
ell 480, elapsed: 0.00045990943908691406
ell 479, elapsed: 0.00045609474182128906
ell 478, elapsed: 0.0004639625549316406
ell 477, elapsed: 0.00045609474182128906
ell 476, elapsed: 0.000453948974609375
ell 475, elapsed: 0.0005030632019042969
ell 474, elapsed: 0.0005271434783935547
ell 473, elapsed: 0.00045990943908691406
ell 472, elapsed: 0.0004570484161376953
ell 471, elapsed: 0.00045609474182128906
ell 470, elapsed: 0.0004620552062988281
ell 469, elapsed: 0.0004589557647705078
ell 468, elapsed: 0.0004889965057373047
ell 467, elapsed: 0.00047516822814941406
ell 466, elapsed: 0.0004589557647705078
ell 465, elapsed: 0.00045800209045410156
ell 464, elapsed: 0.0004570484161376953
ell 463, elapsed: 0.0004949569702148438
ell 462, elapsed: 0.00047278404235839844
ell 461, elapsed: 0.0004818439483642578
ell 460, elapsed: 0.00045418739318847656
ell 459, elapsed: 0.0004570484161376953
ell 458, elapsed: 0.0004601478576660156
ell 457, elapsed: 0.0005059242248535156
ell 456, elapsed: 0.0005412101745605469
ell 455, elapsed: 0.0005049705505371094
ell 454, elapsed: 0.0004630088806152344
ell 453, elapsed: 0.0005338191986083984
ell 452, elapsed: 0.0005240440368652344
ell 451, elapsed: 0.00047588348388671875
ell 450, elapsed: 0.0004930496215820312
ell 449, elapsed: 0.0005710124969482422
ell 448, elapsed: 0.0004858970642089844
ell 447, elapsed: 0.0004589557647705078
ell 446, elapsed: 0.0004780292510986328
ell 445, elapsed: 0.00047707557678222656
ell 444, elapsed: 0.0004611015319824219
ell 443, elapsed: 0.0004668235778808594
ell 442, elapsed: 0.0004570484161376953
ell 441, elapsed: 0.0004711151123046875
ell 440, elapsed: 0.0004968643188476562
ell 439, elapsed: 0.0005350112915039062
ell 438, elapsed: 0.00047087669372558594
ell 437, elapsed: 0.0004589557647705078
ell 436, elapsed: 0.00046181678771972656
ell 435, elapsed: 0.00045990943908691406
ell 434, elapsed: 0.00047898292541503906
ell 433, elapsed: 0.00048804283142089844
ell 432, elapsed: 0.00045990943908691406
ell 431, elapsed: 0.0004780292510986328
ell 430, elapsed: 0.0004570484161376953
ell 429, elapsed: 0.00046706199645996094
ell 428, elapsed: 0.00047206878662109375
ell 427, elapsed: 0.0004718303680419922
ell 426, elapsed: 0.0004630088806152344
ell 425, elapsed: 0.0004978179931640625
ell 424, elapsed: 0.0005438327789306641
ell 423, elapsed: 0.00045609474182128906
ell 422, elapsed: 0.00047016143798828125
ell 421, elapsed: 0.0004730224609375
ell 420, elapsed: 0.0004551410675048828
ell 419, elapsed: 0.00045490264892578125
ell 418, elapsed: 0.00044798851013183594
ell 417, elapsed: 0.0004558563232421875
ell 416, elapsed: 0.0004699230194091797
ell 415, elapsed: 0.0004918575286865234
ell 414, elapsed: 0.0004601478576660156
ell 413, elapsed: 0.0004558563232421875
ell 412, elapsed: 0.0004551410675048828
ell 411, elapsed: 0.00045990943908691406
ell 410, elapsed: 0.0004830360412597656
ell 409, elapsed: 0.0004639625549316406
ell 408, elapsed: 0.00045299530029296875
ell 407, elapsed: 0.0004601478576660156
ell 406, elapsed: 0.0004589557647705078
ell 405, elapsed: 0.000514984130859375
ell 404, elapsed: 0.0004980564117431641
ell 403, elapsed: 0.0004889965057373047
ell 402, elapsed: 0.00047397613525390625
ell 401, elapsed: 0.0004589557647705078
ell 400, elapsed: 0.00045800209045410156
ell 399, elapsed: 0.0004830360412597656
ell 398, elapsed: 0.0004820823669433594
ell 397, elapsed: 0.0004630088806152344
ell 396, elapsed: 0.0004711151123046875
ell 395, elapsed: 0.00045990943908691406
ell 394, elapsed: 0.0004630088806152344
ell 393, elapsed: 0.0004761219024658203
ell 392, elapsed: 0.0004589557647705078
ell 391, elapsed: 0.0004570484161376953
ell 390, elapsed: 0.00045609474182128906
ell 389, elapsed: 0.0004611015319824219
ell 388, elapsed: 0.00045609474182128906
ell 387, elapsed: 0.0004730224609375
ell 386, elapsed: 0.0004730224609375
ell 385, elapsed: 0.00045490264892578125
ell 384, elapsed: 0.0004749298095703125
ell 383, elapsed: 0.000453948974609375
ell 382, elapsed: 0.00045990943908691406
ell 381, elapsed: 0.0004668235778808594
ell 380, elapsed: 0.00045990943908691406
ell 379, elapsed: 0.00047206878662109375
ell 378, elapsed: 0.00045609474182128906
ell 377, elapsed: 0.00045609474182128906
ell 376, elapsed: 0.00045609474182128906
ell 375, elapsed: 0.0004990100860595703
ell 374, elapsed: 0.0004849433898925781
ell 373, elapsed: 0.00045800209045410156
ell 372, elapsed: 0.0004639625549316406
ell 371, elapsed: 0.0004570484161376953
ell 370, elapsed: 0.0004620552062988281
ell 369, elapsed: 0.0004730224609375
ell 368, elapsed: 0.00045800209045410156
ell 367, elapsed: 0.0004601478576660156
ell 366, elapsed: 0.0004589557647705078
ell 365, elapsed: 0.0004551410675048828
ell 364, elapsed: 0.00045490264892578125
ell 363, elapsed: 0.00047087669372558594
ell 362, elapsed: 0.00047206878662109375
ell 361, elapsed: 0.0004470348358154297
ell 360, elapsed: 0.00044918060302734375
ell 359, elapsed: 0.00045800209045410156
ell 358, elapsed: 0.00045990943908691406
ell 357, elapsed: 0.0004680156707763672
ell 356, elapsed: 0.0004839897155761719
ell 355, elapsed: 0.00045609474182128906
ell 354, elapsed: 0.00045299530029296875
ell 353, elapsed: 0.0004611015319824219
ell 352, elapsed: 0.0005609989166259766
ell 351, elapsed: 0.0005030632019042969
ell 350, elapsed: 0.000408172607421875
ell 349, elapsed: 0.00042891502380371094
ell 348, elapsed: 0.0004889965057373047
ell 347, elapsed: 0.0004899501800537109
ell 346, elapsed: 0.0004730224609375
ell 345, elapsed: 0.0004849433898925781
ell 344, elapsed: 0.0004558563232421875
ell 343, elapsed: 0.000453948974609375
ell 342, elapsed: 0.0004611015319824219
ell 341, elapsed: 0.00045609474182128906
ell 340, elapsed: 0.0004520416259765625
ell 339, elapsed: 0.0004551410675048828
ell 338, elapsed: 0.0004799365997314453
ell 337, elapsed: 0.00045299530029296875
ell 336, elapsed: 0.00045299530029296875
ell 335, elapsed: 0.00045800209045410156
ell 334, elapsed: 0.0004520416259765625
ell 333, elapsed: 0.0004589557647705078
ell 332, elapsed: 0.0004749298095703125
ell 331, elapsed: 0.00047707557678222656
ell 330, elapsed: 0.0005009174346923828
ell 329, elapsed: 0.0005230903625488281
ell 328, elapsed: 0.0004601478576660156
ell 327, elapsed: 0.00047397613525390625
ell 326, elapsed: 0.00048804283142089844
ell 325, elapsed: 0.0004971027374267578
ell 324, elapsed: 0.0004889965057373047
ell 323, elapsed: 0.0005190372467041016
ell 322, elapsed: 0.000469207763671875
ell 321, elapsed: 0.0004868507385253906
ell 320, elapsed: 0.00048279762268066406
ell 319, elapsed: 0.000453948974609375
ell 318, elapsed: 0.0004749298095703125
ell 317, elapsed: 0.0004668235778808594
ell 316, elapsed: 0.0004620552062988281
ell 315, elapsed: 0.00046706199645996094
ell 314, elapsed: 0.00047016143798828125
ell 313, elapsed: 0.00045609474182128906
ell 312, elapsed: 0.00046515464782714844
ell 311, elapsed: 0.0004570484161376953
ell 310, elapsed: 0.0004551410675048828
ell 309, elapsed: 0.00045108795166015625
ell 308, elapsed: 0.0004830360412597656
ell 307, elapsed: 0.00049591064453125
ell 306, elapsed: 0.0004980564117431641
ell 305, elapsed: 0.0005409717559814453
ell 304, elapsed: 0.0005090236663818359
ell 303, elapsed: 0.00047588348388671875
ell 302, elapsed: 0.0004699230194091797
ell 301, elapsed: 0.0005319118499755859
ell 300, elapsed: 0.0005209445953369141
ell 299, elapsed: 0.0004928112030029297
ell 298, elapsed: 0.0005080699920654297
ell 297, elapsed: 0.0005049705505371094
ell 296, elapsed: 0.0005419254302978516
ell 295, elapsed: 0.0005230903625488281
ell 294, elapsed: 0.0005068778991699219
ell 293, elapsed: 0.0005199909210205078
ell 292, elapsed: 0.000453948974609375
ell 291, elapsed: 0.0004730224609375
ell 290, elapsed: 0.0004520416259765625
ell 289, elapsed: 0.0004730224609375
ell 288, elapsed: 0.00045299530029296875
ell 287, elapsed: 0.0004591941833496094
ell 286, elapsed: 0.00047516822814941406
ell 285, elapsed: 0.00046706199645996094
ell 284, elapsed: 0.0004630088806152344
ell 283, elapsed: 0.0005071163177490234
ell 282, elapsed: 0.0005137920379638672
ell 281, elapsed: 0.0004680156707763672
ell 280, elapsed: 0.00045299530029296875
ell 279, elapsed: 0.0005280971527099609
ell 278, elapsed: 0.000514984130859375
ell 277, elapsed: 0.0004749298095703125
ell 276, elapsed: 0.00046706199645996094
ell 275, elapsed: 0.0004520416259765625
ell 274, elapsed: 0.0004601478576660156
ell 273, elapsed: 0.0004870891571044922
ell 272, elapsed: 0.0004649162292480469
ell 271, elapsed: 0.00047707557678222656
ell 270, elapsed: 0.0004661083221435547
ell 269, elapsed: 0.0004820823669433594
ell 268, elapsed: 0.000469207763671875
ell 267, elapsed: 0.0004811286926269531
ell 266, elapsed: 0.0005030632019042969
ell 265, elapsed: 0.00048279762268066406
ell 264, elapsed: 0.0005109310150146484
ell 263, elapsed: 0.0005168914794921875
ell 262, elapsed: 0.00046181678771972656
ell 261, elapsed: 0.000492095947265625
ell 260, elapsed: 0.00045490264892578125
ell 259, elapsed: 0.0004780292510986328
ell 258, elapsed: 0.0004532337188720703
ell 257, elapsed: 0.0004611015319824219
ell 256, elapsed: 0.00047016143798828125
ell 255, elapsed: 0.0004630088806152344
ell 254, elapsed: 0.0004611015319824219
ell 253, elapsed: 0.00045108795166015625
ell 252, elapsed: 0.0004661083221435547
ell 251, elapsed: 0.0004680156707763672
ell 250, elapsed: 0.0004558563232421875
ell 249, elapsed: 0.0004830360412597656
ell 248, elapsed: 0.00045490264892578125
ell 247, elapsed: 0.0004630088806152344
ell 246, elapsed: 0.0005059242248535156
ell 245, elapsed: 0.0005609989166259766
ell 244, elapsed: 0.0005929470062255859
ell 243, elapsed: 0.0005650520324707031
ell 242, elapsed: 0.0005040168762207031
ell 241, elapsed: 0.0005278587341308594
ell 240, elapsed: 0.0005078315734863281
ell 239, elapsed: 0.0005459785461425781
ell 238, elapsed: 0.0005500316619873047
ell 237, elapsed: 0.0005419254302978516
ell 236, elapsed: 0.0005371570587158203
ell 235, elapsed: 0.0005140304565429688
ell 234, elapsed: 0.0005390644073486328
ell 233, elapsed: 0.0005259513854980469
ell 232, elapsed: 0.0005581378936767578
ell 231, elapsed: 0.0005700588226318359
ell 230, elapsed: 0.0005500316619873047
ell 229, elapsed: 0.0005741119384765625
ell 228, elapsed: 0.0005960464477539062
ell 227, elapsed: 0.0005280971527099609
ell 226, elapsed: 0.0004889965057373047
ell 225, elapsed: 0.0005390644073486328
ell 224, elapsed: 0.0005359649658203125
ell 223, elapsed: 0.0005609989166259766
ell 222, elapsed: 0.0005428791046142578
ell 221, elapsed: 0.0005300045013427734
ell 220, elapsed: 0.0005810260772705078
ell 219, elapsed: 0.0005099773406982422
ell 218, elapsed: 0.0005278587341308594
ell 217, elapsed: 0.0005550384521484375
ell 216, elapsed: 0.0005040168762207031
ell 215, elapsed: 0.000537872314453125
ell 214, elapsed: 0.0005490779876708984
ell 213, elapsed: 0.0005099773406982422
ell 212, elapsed: 0.0005578994750976562
ell 211, elapsed: 0.0005509853363037109
ell 210, elapsed: 0.0005729198455810547
ell 209, elapsed: 0.0005500316619873047
ell 208, elapsed: 0.0005218982696533203
ell 207, elapsed: 0.0005061626434326172
ell 206, elapsed: 0.0005497932434082031
ell 205, elapsed: 0.0005619525909423828
ell 204, elapsed: 0.00051116943359375
ell 203, elapsed: 0.0004990100860595703
ell 202, elapsed: 0.0005071163177490234
ell 201, elapsed: 0.0005011558532714844
ell 200, elapsed: 0.00047898292541503906
ell 199, elapsed: 0.0005259513854980469
ell 198, elapsed: 0.0005679130554199219
ell 197, elapsed: 0.0005249977111816406
ell 196, elapsed: 0.0005271434783935547
ell 195, elapsed: 0.0005700588226318359
ell 194, elapsed: 0.0005450248718261719
ell 193, elapsed: 0.00055694580078125
ell 192, elapsed: 0.0005409717559814453
ell 191, elapsed: 0.0004940032958984375
ell 190, elapsed: 0.0005078315734863281
ell 189, elapsed: 0.0005459785461425781
ell 188, elapsed: 0.0005710124969482422
ell 187, elapsed: 0.0005068778991699219
ell 186, elapsed: 0.0005300045013427734
ell 185, elapsed: 0.0005249977111816406
ell 184, elapsed: 0.0005459785461425781
ell 183, elapsed: 0.0005619525909423828
ell 182, elapsed: 0.0005688667297363281
ell 181, elapsed: 0.0005578994750976562
ell 180, elapsed: 0.0005478858947753906
ell 179, elapsed: 0.000553131103515625
ell 178, elapsed: 0.0005309581756591797
ell 177, elapsed: 0.0004949569702148438
ell 176, elapsed: 0.0005640983581542969
ell 175, elapsed: 0.0005428791046142578
ell 174, elapsed: 0.0005168914794921875
ell 173, elapsed: 0.0005600452423095703
ell 172, elapsed: 0.0005140304565429688
ell 171, elapsed: 0.0005228519439697266
ell 170, elapsed: 0.0005588531494140625
ell 169, elapsed: 0.0005459785461425781
ell 168, elapsed: 0.0005900859832763672
ell 167, elapsed: 0.000537872314453125
ell 166, elapsed: 0.0005309581756591797
ell 165, elapsed: 0.0005331039428710938
ell 164, elapsed: 0.0005400180816650391
ell 163, elapsed: 0.0005319118499755859
ell 162, elapsed: 0.0005259513854980469
ell 161, elapsed: 0.0005509853363037109
ell 160, elapsed: 0.0005259513854980469
ell 159, elapsed: 0.0005328655242919922
ell 158, elapsed: 0.0005290508270263672
ell 157, elapsed: 0.00048804283142089844
ell 156, elapsed: 0.0004870891571044922
ell 155, elapsed: 0.0005249977111816406
ell 154, elapsed: 0.0005381107330322266
ell 153, elapsed: 0.0005369186401367188
ell 152, elapsed: 0.0005290508270263672
ell 151, elapsed: 0.0005068778991699219
ell 150, elapsed: 0.0004949569702148438
ell 149, elapsed: 0.0004940032958984375
ell 148, elapsed: 0.0005450248718261719
ell 147, elapsed: 0.0005061626434326172
ell 146, elapsed: 0.0005588531494140625
ell 145, elapsed: 0.0005018711090087891
ell 144, elapsed: 0.0004940032958984375
ell 143, elapsed: 0.0005059242248535156
ell 142, elapsed: 0.000492095947265625
ell 141, elapsed: 0.0005300045013427734
ell 140, elapsed: 0.0004799365997314453
ell 139, elapsed: 0.0005249977111816406
ell 138, elapsed: 0.0005319118499755859
ell 137, elapsed: 0.0005421638488769531
ell 136, elapsed: 0.0005440711975097656
ell 135, elapsed: 0.000553131103515625
ell 134, elapsed: 0.0005829334259033203
ell 133, elapsed: 0.0005190372467041016
ell 132, elapsed: 0.00048804283142089844
ell 131, elapsed: 0.00055694580078125
ell 130, elapsed: 0.00055694580078125
ell 129, elapsed: 0.0005710124969482422
ell 128, elapsed: 0.0004990100860595703
ell 127, elapsed: 0.0005199909210205078
ell 126, elapsed: 0.0005431175231933594
ell 125, elapsed: 0.0004870891571044922
ell 124, elapsed: 0.0005049705505371094
ell 123, elapsed: 0.00047016143798828125
ell 122, elapsed: 0.0005459785461425781
ell 121, elapsed: 0.0005471706390380859
ell 120, elapsed: 0.0005240440368652344
ell 119, elapsed: 0.00051116943359375
ell 118, elapsed: 0.0004940032958984375
ell 117, elapsed: 0.000492095947265625
ell 116, elapsed: 0.0005478858947753906
ell 115, elapsed: 0.0004878044128417969
ell 114, elapsed: 0.0004961490631103516
ell 113, elapsed: 0.0005018711090087891
ell 112, elapsed: 0.0004899501800537109
ell 111, elapsed: 0.0004978179931640625
ell 110, elapsed: 0.00047206878662109375
ell 109, elapsed: 0.0005300045013427734
ell 108, elapsed: 0.0005099773406982422
ell 107, elapsed: 0.0005390644073486328
ell 106, elapsed: 0.0005309581756591797
ell 105, elapsed: 0.0004968643188476562
ell 104, elapsed: 0.0005061626434326172
ell 103, elapsed: 0.0005259513854980469
ell 102, elapsed: 0.0005049705505371094
ell 101, elapsed: 0.0004649162292480469
ell 100, elapsed: 0.0005469322204589844
ell 99, elapsed: 0.0005769729614257812
ell 98, elapsed: 0.0005588531494140625
ell 97, elapsed: 0.0005140304565429688
ell 96, elapsed: 0.0005259513854980469
ell 95, elapsed: 0.0005199909210205078
ell 94, elapsed: 0.0005638599395751953
ell 93, elapsed: 0.0006120204925537109
ell 92, elapsed: 0.0005831718444824219
ell 91, elapsed: 0.0006039142608642578
ell 90, elapsed: 0.0005879402160644531
ell 89, elapsed: 0.0005788803100585938
ell 88, elapsed: 0.0005819797515869141
ell 87, elapsed: 0.0005800724029541016
ell 86, elapsed: 0.0005691051483154297
ell 85, elapsed: 0.000553131103515625
ell 84, elapsed: 0.0005121231079101562
ell 83, elapsed: 0.0005280971527099609
ell 82, elapsed: 0.0005230903625488281
ell 81, elapsed: 0.0005240440368652344
ell 80, elapsed: 0.00048804283142089844
ell 79, elapsed: 0.0004889965057373047
ell 78, elapsed: 0.0005018711090087891
ell 77, elapsed: 0.0004961490631103516
ell 76, elapsed: 0.00047397613525390625
ell 75, elapsed: 0.0004799365997314453
ell 74, elapsed: 0.0004968643188476562
ell 73, elapsed: 0.0005078315734863281
ell 72, elapsed: 0.0005319118499755859
ell 71, elapsed: 0.0005240440368652344
ell 70, elapsed: 0.0005140304565429688
ell 69, elapsed: 0.0004949569702148438
ell 68, elapsed: 0.0004558563232421875
ell 67, elapsed: 0.0004658699035644531
ell 66, elapsed: 0.00046896934509277344
ell 65, elapsed: 0.0004668235778808594
ell 64, elapsed: 0.0004658699035644531
ell 63, elapsed: 0.0004718303680419922
ell 62, elapsed: 0.00048804283142089844
ell 61, elapsed: 0.00045800209045410156
ell 60, elapsed: 0.0004780292510986328
ell 59, elapsed: 0.0004668235778808594
ell 58, elapsed: 0.00047397613525390625
ell 57, elapsed: 0.0004761219024658203
ell 56, elapsed: 0.0004949569702148438
ell 55, elapsed: 0.0004830360412597656
ell 54, elapsed: 0.0005469322204589844
ell 53, elapsed: 0.0005171298980712891
ell 52, elapsed: 0.000514984130859375
ell 51, elapsed: 0.00046896934509277344
ell 50, elapsed: 0.0004940032958984375
ell 49, elapsed: 0.0004801750183105469
ell 48, elapsed: 0.0004839897155761719
ell 47, elapsed: 0.00047087669372558594
ell 46, elapsed: 0.00046896934509277344
ell 45, elapsed: 0.000453948974609375
ell 44, elapsed: 0.0004649162292480469
ell 43, elapsed: 0.0004570484161376953
ell 42, elapsed: 0.00045299530029296875
ell 41, elapsed: 0.00045490264892578125
ell 40, elapsed: 0.0004589557647705078
ell 39, elapsed: 0.000514984130859375
ell 38, elapsed: 0.0005071163177490234
ell 37, elapsed: 0.0004870891571044922
ell 36, elapsed: 0.00045490264892578125
ell 35, elapsed: 0.00046515464782714844
ell 34, elapsed: 0.0004508495330810547
ell 33, elapsed: 0.00045800209045410156
ell 32, elapsed: 0.0004730224609375
ell 31, elapsed: 0.00046896934509277344
ell 30, elapsed: 0.00046896934509277344
ell 29, elapsed: 0.0005168914794921875
ell 28, elapsed: 0.0004870891571044922
ell 27, elapsed: 0.0005309581756591797
ell 26, elapsed: 0.0005691051483154297
ell 25, elapsed: 0.0005300045013427734
ell 24, elapsed: 0.0004911422729492188
ell 23, elapsed: 0.0005118846893310547
ell 22, elapsed: 0.0005059242248535156
ell 21, elapsed: 0.0005581378936767578
ell 20, elapsed: 0.0005249977111816406
ell 19, elapsed: 0.0005049705505371094
ell 18, elapsed: 0.0005130767822265625
ell 17, elapsed: 0.0005390644073486328
ell 16, elapsed: 0.0005500316619873047
ell 15, elapsed: 0.0005810260772705078
ell 14, elapsed: 0.0005128383636474609
ell 13, elapsed: 0.0005230903625488281
ell 12, elapsed: 0.0005128383636474609
ell 11, elapsed: 0.0004968643188476562
ell 10, elapsed: 0.0005729198455810547
ell 9, elapsed: 0.0004818439483642578
ell 8, elapsed: 0.0005629062652587891
ell 7, elapsed: 0.0004999637603759766
ell 6, elapsed: 0.0005080699920654297
ell 5, elapsed: 0.0005328655242919922
ell 4, elapsed: 0.0005340576171875
ell 3, elapsed: 0.0005180835723876953
ell 2, elapsed: 0.0005061626434326172
ell 1, elapsed: 0.0005559921264648438
ell 0, elapsed: 0.0005130767822265625
  0.844269 seconds (46.03 k allocations: 3.091 MiB, 3.60% compilation time)
elapsed: 0.0013840198516845703
step:          0.066352 sec (0 allocations: 0 byte, 0.0% gc time)
swapping:      0.000681 sec (0 allocations: 0 byte, 0.0% gc time)
calc_Mellell!: 0.012054 sec (0 allocations: 0 byte, 0.0% gc time)
  t0 :  0.002357 sec (0 allocations: 0 byte, 0.0% gc time)
  tm2 : 0.094932 sec (0 allocations: 0 byte, 0.0% gc time)
  tm2s: 0.001431 sec (0 allocations: 0 byte, 0.0% gc time)
  tm4 : 0.238561 sec (0 allocations: 0 byte, 0.0% gc time)
  tp2 : 0.0 sec (0 allocations: 0 byte, 0.0% gc time)
  tp2s: 0.0 sec (0 allocations: 0 byte, 0.0% gc time)
  tp4 : 0.0 sec (0 allocations: 0 byte, 0.0% gc time)
calc_wtdll!:   0.372459 sec (9.9 k allocations: 1.047 MB, 0.0% gc time)
calc_wljj!:    0.037669 sec (689 allocations: 10.766 KB, 0.0% gc time)
mult_prefac!:  0.0 sec (0 allocations: 0 byte, 0.0% gc time)
convert:       0.0 sec (0 allocations: 0 byte, 0.0% gc time)
write:         0.043715 sec (0 allocations: 0 byte, 0.0% gc time)
test_rand_2f1: 0.0 sec (0 allocations: 0 byte, 0.0% gc time)
Closing outfile out/Ml21-cache.bin...   0.000029 seconds
  0.000444 seconds (36 allocations: 27.953 KiB)
make_phi():   0.002599 seconds (8.18 k allocations: 237.844 KiB)
  0.197911 seconds (141.90 k allocations: 3.483 MiB)
tskip:       0.001004 sec (0 allocations: 0 byte, 0.0% gc time)
tread:       0.025173 sec (17 allocations: 10.641 KB, 0.0% gc time)
tmultphi:    0.023166 sec (0 allocations: 0 byte, 0.0% gc time)
tbrfft:      0.044054 sec (0 allocations: 0 byte, 0.0% gc time)
tmultprefac: 0.042221 sec (0 allocations: 0 byte, 0.0% gc time)
toutfunc:    0.058451 sec (127.507 k allocations: 2.312 MB, 0.0% gc time)
Testing R=1.0 ... passed
Calculating fmax: 
  dlrec    = 4
  dlrecRg1 = -4
  q=1.1, R=0.9:	  0.506523 seconds (105.76 k allocations: 15.287 MiB, 3.14% gc time)

  0.507411 seconds (105.81 k allocations: 15.321 MiB, 3.14% gc time)
ℓ = 1202
Δℓ = 4
ΔℓRg1 = -4
N = 1600
q = 1.1
kmin = 1.0e-5
kmax = 100000.00000000004
χ0 = 0.023029999999999995
RR = RR.tsv
ℓmax = ℓmax.bin
f21 = f21.bin
kmin = 1.0e-5
kmax = 100000.0
dlrec    = 4
dlrecRg1 = -4
Output size: 5741568 bytes = 0.005347251892089844 GiB
Output size: 51264 bytes = 4.774332046508789e-5 GiB
Reading 'out/F21EllCache'...   0.001196 seconds (197 allocations: 84.203 KiB)
ellmax: 1202
lmaxcache: 1202
fell[:,1,1] = ComplexF64[1.3482014726274674e-57 - 3.302141236118086e-73im, 1.357860004724329e-57 - 3.3257978169518355e-73im]
ell 1202, elapsed: 4.601478576660156e-5
ell 1201, elapsed: 0.0004069805145263672
ell 1200, elapsed: 0.00040793418884277344
ell 1199, elapsed: 0.00040602684020996094
ell 1198, elapsed: 0.0004050731658935547
ell 1002, elapsed: 0.010977029800415039
ell 1001, elapsed: 0.00043392181396484375
ell 1000, elapsed: 0.0004088878631591797
ell 999, elapsed: 0.0004050731658935547
ell 998, elapsed: 0.00040411949157714844
ell 902, elapsed: 0.005608797073364258
ell 901, elapsed: 0.00037598609924316406
ell 900, elapsed: 0.0004119873046875
ell 899, elapsed: 0.0005340576171875
ell 898, elapsed: 0.0005168914794921875
ell 802, elapsed: 0.0055370330810546875
ell 801, elapsed: 0.0004138946533203125
ell 800, elapsed: 0.00037288665771484375
ell 799, elapsed: 0.0003879070281982422
ell 798, elapsed: 0.00037288665771484375
ell 702, elapsed: 0.005182027816772461
ell 701, elapsed: 0.00041413307189941406
ell 700, elapsed: 0.00037384033203125
ell 699, elapsed: 0.00037097930908203125
ell 698, elapsed: 0.00037097930908203125
ell 602, elapsed: 0.0052678585052490234
ell 601, elapsed: 0.0003859996795654297
ell 600, elapsed: 0.0003960132598876953
ell 599, elapsed: 0.0004150867462158203
ell 598, elapsed: 0.0004010200500488281
ell 502, elapsed: 0.005244016647338867
ell 501, elapsed: 0.00040221214294433594
ell 500, elapsed: 0.00034308433532714844
ell 499, elapsed: 0.0003409385681152344
ell 498, elapsed: 0.0003409385681152344
ell 402, elapsed: 0.005455970764160156
ell 401, elapsed: 0.0004398822784423828
ell 400, elapsed: 0.0004432201385498047
ell 399, elapsed: 0.0004470348358154297
ell 398, elapsed: 0.0004439353942871094
ell 302, elapsed: 0.005651950836181641
ell 301, elapsed: 0.0004329681396484375
ell 300, elapsed: 0.00040912628173828125
ell 299, elapsed: 0.0004210472106933594
ell 298, elapsed: 0.0004761219024658203
ell 202, elapsed: 0.005486011505126953
ell 201, elapsed: 0.0004429817199707031
ell 200, elapsed: 0.0004260540008544922
ell 199, elapsed: 0.0004229545593261719
ell 198, elapsed: 0.0004570484161376953
ell 152, elapsed: 0.003125905990600586
ell 151, elapsed: 0.000431060791015625
ell 150, elapsed: 0.0003859996795654297
ell 149, elapsed: 0.0004069805145263672
ell 148, elapsed: 0.0004069805145263672
ell 127, elapsed: 0.008564949035644531
ell 126, elapsed: 0.0004379749298095703
ell 125, elapsed: 0.0004558563232421875
ell 124, elapsed: 0.0007350444793701172
ell 123, elapsed: 0.000865936279296875
ell 114, elapsed: 0.0009739398956298828
ell 113, elapsed: 0.0003809928894042969
ell 112, elapsed: 0.0003960132598876953
ell 111, elapsed: 0.0004107952117919922
ell 110, elapsed: 0.0004069805145263672
ell 102, elapsed: 0.0008740425109863281
ell 101, elapsed: 0.0004069805145263672
ell 100, elapsed: 0.00042700767517089844
ell 99, elapsed: 0.0005238056182861328
ell 98, elapsed: 0.00041103363037109375
ell 97, elapsed: 0.0005049705505371094
ell 96, elapsed: 0.0005078315734863281
ell 95, elapsed: 0.0005009174346923828
ell 94, elapsed: 0.0005559921264648438
ell 93, elapsed: 0.0005099773406982422
ell 92, elapsed: 0.0004930496215820312
ell 91, elapsed: 0.0004901885986328125
ell 90, elapsed: 0.0005018711090087891
ell 89, elapsed: 0.0005011558532714844
ell 88, elapsed: 0.0005910396575927734
ell 87, elapsed: 0.0005478858947753906
ell 86, elapsed: 0.0005431175231933594
ell 85, elapsed: 0.0005550384521484375
ell 84, elapsed: 0.0005152225494384766
ell 83, elapsed: 0.0005171298980712891
ell 82, elapsed: 0.0005300045013427734
ell 81, elapsed: 0.0004801750183105469
ell 80, elapsed: 0.0004889965057373047
ell 79, elapsed: 0.0005218982696533203
ell 78, elapsed: 0.0005171298980712891
ell 77, elapsed: 0.0005199909210205078
ell 76, elapsed: 0.0005030632019042969
ell 75, elapsed: 0.0005080699920654297
ell 74, elapsed: 0.00047898292541503906
ell 73, elapsed: 0.0005140304565429688
ell 72, elapsed: 0.0004611015319824219
ell 71, elapsed: 0.00047588348388671875
ell 70, elapsed: 0.00047898292541503906
ell 69, elapsed: 0.00048804283142089844
ell 68, elapsed: 0.00046706199645996094
ell 67, elapsed: 0.00044989585876464844
ell 66, elapsed: 0.000576019287109375
ell 65, elapsed: 0.0005991458892822266
ell 64, elapsed: 0.0007841587066650391
ell 63, elapsed: 0.0008790493011474609
ell 62, elapsed: 0.0005178451538085938
ell 61, elapsed: 0.00057220458984375
ell 60, elapsed: 0.0005249977111816406
ell 59, elapsed: 0.0005199909210205078
ell 58, elapsed: 0.0005609989166259766
ell 57, elapsed: 0.0004680156707763672
ell 56, elapsed: 0.000476837158203125
ell 55, elapsed: 0.0004620552062988281
ell 54, elapsed: 0.0004630088806152344
ell 53, elapsed: 0.0004980564117431641
ell 52, elapsed: 0.0004630088806152344
ell 51, elapsed: 0.0004940032958984375
ell 50, elapsed: 0.0005331039428710938
ell 49, elapsed: 0.0005431175231933594
ell 48, elapsed: 0.0005900859832763672
ell 47, elapsed: 0.0007958412170410156
ell 46, elapsed: 0.00049591064453125
ell 45, elapsed: 0.000514984130859375
ell 44, elapsed: 0.0005068778991699219
ell 43, elapsed: 0.0005140304565429688
ell 42, elapsed: 0.0005199909210205078
ell 41, elapsed: 0.0005190372467041016
ell 40, elapsed: 0.0004799365997314453
ell 39, elapsed: 0.0005280971527099609
ell 38, elapsed: 0.0004780292510986328
ell 37, elapsed: 0.0004961490631103516
ell 36, elapsed: 0.0004780292510986328
ell 35, elapsed: 0.00043582916259765625
ell 34, elapsed: 0.0005960464477539062
ell 33, elapsed: 0.0006270408630371094
ell 32, elapsed: 0.000598907470703125
ell 31, elapsed: 0.0006389617919921875
ell 30, elapsed: 0.0005998611450195312
ell 29, elapsed: 0.0006260871887207031
ell 28, elapsed: 0.0005950927734375
ell 27, elapsed: 0.0005750656127929688
ell 26, elapsed: 0.0005879402160644531
ell 25, elapsed: 0.0005559921264648438
ell 24, elapsed: 0.0005929470062255859
ell 23, elapsed: 0.0006661415100097656
ell 22, elapsed: 0.0006601810455322266
ell 21, elapsed: 0.000598907470703125
ell 20, elapsed: 0.0005640983581542969
ell 19, elapsed: 0.0005800724029541016
ell 18, elapsed: 0.0005550384521484375
ell 17, elapsed: 0.0005488395690917969
ell 16, elapsed: 0.0006539821624755859
ell 15, elapsed: 0.0006070137023925781
ell 14, elapsed: 0.0006830692291259766
ell 13, elapsed: 0.0005898475646972656
ell 12, elapsed: 0.0006000995635986328
ell 11, elapsed: 0.0005919933319091797
ell 10, elapsed: 0.0006110668182373047
ell 9, elapsed: 0.0007948875427246094
ell 8, elapsed: 0.0007901191711425781
ell 7, elapsed: 0.0007789134979248047
ell 6, elapsed: 0.0006890296936035156
ell 5, elapsed: 0.0008969306945800781
ell 4, elapsed: 0.0005841255187988281
ell 3, elapsed: 0.0006051063537597656
ell 2, elapsed: 0.0006089210510253906
ell 1, elapsed: 0.0006151199340820312
ell 0, elapsed: 0.0005898475646972656
  0.177886 seconds (11.51 k allocations: 719.594 KiB)
elapsed: 0.0013120174407958984
step:          0.068804 sec (0 allocations: 0 byte, 0.0% gc time)
swapping:      0.000483 sec (0 allocations: 0 byte, 0.0% gc time)
calc_Mellell!: 0.001912 sec (0 allocations: 0 byte, 0.0% gc time)
  t0 :  0.000442 sec (0 allocations: 0 byte, 0.0% gc time)
  tm2 : 0.017222 sec (0 allocations: 0 byte, 0.0% gc time)
  tm2s: 0.000326 sec (0 allocations: 0 byte, 0.0% gc time)
  tm4 : 0.03623 sec (0 allocations: 0 byte, 0.0% gc time)
  tp2 : 0.0 sec (0 allocations: 0 byte, 0.0% gc time)
  tp2s: 0.0 sec (0 allocations: 0 byte, 0.0% gc time)
  tp4 : 0.0 sec (0 allocations: 0 byte, 0.0% gc time)
calc_wtdll!:   0.055055 sec (1.344 k allocations: 147.0 KB, 0.0% gc time)
calc_wljj!:    0.003543 sec (6 allocations: 96 byte, 0.0% gc time)
mult_prefac!:  0.0 sec (0 allocations: 0 byte, 0.0% gc time)
convert:       0.0 sec (0 allocations: 0 byte, 0.0% gc time)
write:         0.00416 sec (0 allocations: 0 byte, 0.0% gc time)
test_rand_2f1: 0.0 sec (0 allocations: 0 byte, 0.0% gc time)
Closing outfile out/Ml21-cache.bin...   0.000005 seconds
  0.000421 seconds (36 allocations: 27.953 KiB)
make_phi():   0.002733 seconds (8.18 k allocations: 237.844 KiB)
  0.019061 seconds (11.65 k allocations: 308.688 KiB)
tskip:       1.9e-5 sec (0 allocations: 0 byte, 0.0% gc time)
tread:       0.00256 sec (17 allocations: 2.125 KB, 0.0% gc time)
tmultphi:    0.002174 sec (0 allocations: 0 byte, 0.0% gc time)
tbrfft:      0.005138 sec (0 allocations: 0 byte, 0.0% gc time)
tmultprefac: 0.003581 sec (0 allocations: 0 byte, 0.0% gc time)
toutfunc:    0.005235 sec (10.304 k allocations: 196.0 KB, 0.0% gc time)
Testing R=0.9 ... passed
Calculating fmax: 
  dlrec    = 4
  dlrecRg1 = -4
  q=1.1, R=0.8:	  0.487255 seconds (103.25 k allocations: 14.856 MiB)

  0.487594 seconds (103.30 k allocations: 14.890 MiB)
ℓ = 1202
Δℓ = 4
ΔℓRg1 = -4
N = 1600
q = 1.1
kmin = 1.0e-5
kmax = 100000.00000000004
χ0 = 0.023029999999999995
RR = RR.tsv
ℓmax = ℓmax.bin
f21 = f21.bin
kmin = 1.0e-5
kmax = 100000.0
dlrec    = 4
dlrecRg1 = -4
Output size: 5741568 bytes = 0.005347251892089844 GiB
Output size: 51264 bytes = 4.774332046508789e-5 GiB
Reading 'out/F21EllCache'...   0.001247 seconds (197 allocations: 84.203 KiB)
ellmax: 1202
lmaxcache: 1202
fell[:,1,1] = ComplexF64[7.519068145690986e-120 - 1.8416405474382574e-135im, 7.541664537386155e-120 - 1.847175067190611e-135im]
ell 1202, elapsed: 3.3855438232421875e-5
ell 1201, elapsed: 0.0005211830139160156
ell 1200, elapsed: 0.0004570484161376953
ell 1199, elapsed: 0.0004520416259765625
ell 1198, elapsed: 0.0004570484161376953
ell 1002, elapsed: 0.010589122772216797
ell 1001, elapsed: 0.0004057884216308594
ell 1000, elapsed: 0.00038886070251464844
ell 999, elapsed: 0.0003859996795654297
ell 998, elapsed: 0.0003960132598876953
ell 902, elapsed: 0.0054779052734375
ell 901, elapsed: 0.0003829002380371094
ell 900, elapsed: 0.00039196014404296875
ell 899, elapsed: 0.0004169940948486328
ell 898, elapsed: 0.0004169940948486328
ell 802, elapsed: 0.005841970443725586
ell 801, elapsed: 0.0004119873046875
ell 800, elapsed: 0.0003819465637207031
ell 799, elapsed: 0.0003859996795654297
ell 798, elapsed: 0.0003631114959716797
ell 702, elapsed: 0.005460023880004883
ell 701, elapsed: 0.0004150867462158203
ell 700, elapsed: 0.0003840923309326172
ell 699, elapsed: 0.0003859996795654297
ell 698, elapsed: 0.00038909912109375
ell 602, elapsed: 0.005287885665893555
ell 601, elapsed: 0.0008509159088134766
ell 600, elapsed: 0.0005638599395751953
ell 599, elapsed: 0.0004119873046875
ell 598, elapsed: 0.0004811286926269531
ell 502, elapsed: 0.005630970001220703
ell 501, elapsed: 0.0007278919219970703
ell 500, elapsed: 0.00047206878662109375
ell 499, elapsed: 0.0004718303680419922
ell 498, elapsed: 0.0004470348358154297
ell 402, elapsed: 0.005715131759643555
ell 401, elapsed: 0.0004470348358154297
ell 400, elapsed: 0.0004589557647705078
ell 399, elapsed: 0.00047397613525390625
ell 398, elapsed: 0.0004611015319824219
ell 302, elapsed: 0.005448102951049805
ell 301, elapsed: 0.0004711151123046875
ell 300, elapsed: 0.0004379749298095703
ell 299, elapsed: 0.00043082237243652344
ell 298, elapsed: 0.0004630088806152344
ell 202, elapsed: 0.005651950836181641
ell 201, elapsed: 0.0004489421844482422
ell 200, elapsed: 0.0004260540008544922
ell 199, elapsed: 0.00041294097900390625
ell 198, elapsed: 0.0004119873046875
ell 152, elapsed: 0.002714872360229492
ell 151, elapsed: 0.0004649162292480469
ell 150, elapsed: 0.0004551410675048828
ell 149, elapsed: 0.00044608116149902344
ell 148, elapsed: 0.00045299530029296875
ell 127, elapsed: 0.0015170574188232422
ell 126, elapsed: 0.00047016143798828125
ell 125, elapsed: 0.00047898292541503906
ell 124, elapsed: 0.0004699230194091797
ell 123, elapsed: 0.0004467964172363281
ell 114, elapsed: 0.000982046127319336
ell 113, elapsed: 0.0004649162292480469
ell 112, elapsed: 0.00043702125549316406
ell 111, elapsed: 0.0004220008850097656
ell 110, elapsed: 0.00042510032653808594
ell 102, elapsed: 0.0008058547973632812
ell 101, elapsed: 0.0004329681396484375
ell 100, elapsed: 0.0004899501800537109
ell 99, elapsed: 0.00040984153747558594
ell 98, elapsed: 0.00047206878662109375
ell 97, elapsed: 0.0005068778991699219
ell 96, elapsed: 0.0005211830139160156
ell 95, elapsed: 0.0005249977111816406
ell 94, elapsed: 0.0004899501800537109
ell 93, elapsed: 0.0005080699920654297
ell 92, elapsed: 0.0004918575286865234
ell 91, elapsed: 0.00045800209045410156
ell 90, elapsed: 0.0005450248718261719
ell 89, elapsed: 0.0005588531494140625
ell 88, elapsed: 0.0005538463592529297
ell 87, elapsed: 0.0005009174346923828
ell 86, elapsed: 0.0004749298095703125
ell 85, elapsed: 0.0005030632019042969
ell 84, elapsed: 0.0005087852478027344
ell 83, elapsed: 0.0004978179931640625
ell 82, elapsed: 0.0005300045013427734
ell 81, elapsed: 0.0007710456848144531
ell 80, elapsed: 0.0004489421844482422
ell 79, elapsed: 0.0004611015319824219
ell 78, elapsed: 0.0004489421844482422
ell 77, elapsed: 0.0004429817199707031
ell 76, elapsed: 0.0004858970642089844
ell 75, elapsed: 0.0005629062652587891
ell 74, elapsed: 0.0004999637603759766
ell 73, elapsed: 0.0007119178771972656
ell 72, elapsed: 0.0006270408630371094
ell 71, elapsed: 0.000492095947265625
ell 70, elapsed: 0.0005269050598144531
ell 69, elapsed: 0.0004699230194091797
ell 68, elapsed: 0.0004820823669433594
ell 67, elapsed: 0.0005078315734863281
ell 66, elapsed: 0.0006449222564697266
ell 65, elapsed: 0.0005190372467041016
ell 64, elapsed: 0.0004999637603759766
ell 63, elapsed: 0.0005390644073486328
ell 62, elapsed: 0.000514984130859375
ell 61, elapsed: 0.0004949569702148438
ell 60, elapsed: 0.0004949569702148438
ell 59, elapsed: 0.00044989585876464844
ell 58, elapsed: 0.00045609474182128906
ell 57, elapsed: 0.000518798828125
ell 56, elapsed: 0.0005002021789550781
ell 55, elapsed: 0.0004780292510986328
ell 54, elapsed: 0.0005052089691162109
ell 53, elapsed: 0.0005497932434082031
ell 52, elapsed: 0.0005300045013427734
ell 51, elapsed: 0.0005240440368652344
ell 50, elapsed: 0.0004899501800537109
ell 49, elapsed: 0.0004930496215820312
[...]
ell 782, elapsed: 0.0014138221740722656
ell 781, elapsed: 0.0007519721984863281
ell 780, elapsed: 0.0007348060607910156
ell 779, elapsed: 0.0007059574127197266
ell 778, elapsed: 0.0007259845733642578
ell 772, elapsed: 0.0014951229095458984
ell 771, elapsed: 0.0007801055908203125
ell 770, elapsed: 0.0007619857788085938
ell 769, elapsed: 0.0007250308990478516
ell 768, elapsed: 0.0008120536804199219
ell 762, elapsed: 0.0013968944549560547
ell 761, elapsed: 0.0007598400115966797
ell 760, elapsed: 0.0007350444793701172
ell 759, elapsed: 0.000820159912109375
ell 758, elapsed: 0.0007290840148925781
ell 752, elapsed: 0.0014278888702392578
ell 751, elapsed: 0.0007259845733642578
ell 750, elapsed: 0.0007739067077636719
ell 749, elapsed: 0.0007169246673583984
ell 748, elapsed: 0.0007519721984863281
ell 742, elapsed: 0.0014338493347167969
ell 741, elapsed: 0.0008080005645751953
ell 740, elapsed: 0.0008139610290527344
ell 739, elapsed: 0.0007419586181640625
ell 738, elapsed: 0.0007610321044921875
ell 732, elapsed: 0.0014710426330566406
ell 731, elapsed: 0.0008199214935302734
ell 730, elapsed: 0.0007519721984863281
ell 729, elapsed: 0.0008149147033691406
ell 728, elapsed: 0.0007760524749755859
ell 722, elapsed: 0.001461029052734375
ell 721, elapsed: 0.0007469654083251953
ell 720, elapsed: 0.0007529258728027344
ell 719, elapsed: 0.0007431507110595703
ell 718, elapsed: 0.0007491111755371094
ell 712, elapsed: 0.001447916030883789
ell 711, elapsed: 0.0007448196411132812
ell 710, elapsed: 0.0007500648498535156
ell 709, elapsed: 0.0007410049438476562
ell 708, elapsed: 0.0008418560028076172
ell 702, elapsed: 0.001455068588256836
ell 701, elapsed: 0.0007469654083251953
ell 700, elapsed: 0.0008189678192138672
ell 699, elapsed: 0.0007941722869873047
ell 698, elapsed: 0.0007610321044921875
ell 692, elapsed: 0.0014071464538574219
ell 691, elapsed: 0.0007450580596923828
ell 690, elapsed: 0.0007488727569580078
ell 689, elapsed: 0.0008199214935302734
ell 688, elapsed: 0.0007519721984863281
ell 682, elapsed: 0.0013799667358398438
ell 681, elapsed: 0.0007441043853759766
ell 680, elapsed: 0.0009081363677978516
ell 679, elapsed: 0.0007410049438476562
ell 678, elapsed: 0.0007538795471191406
ell 672, elapsed: 0.0013821125030517578
ell 671, elapsed: 0.0008039474487304688
ell 670, elapsed: 0.0007498264312744141
ell 669, elapsed: 0.0007431507110595703
ell 668, elapsed: 0.0007519721984863281
ell 662, elapsed: 0.0014448165893554688
ell 661, elapsed: 0.0007479190826416016
ell 660, elapsed: 0.0007519721984863281
ell 659, elapsed: 0.0007431507110595703
ell 658, elapsed: 0.0007510185241699219
ell 652, elapsed: 0.0014688968658447266
ell 651, elapsed: 0.0007510185241699219
ell 650, elapsed: 0.0007519721984863281
ell 649, elapsed: 0.0007989406585693359
ell 648, elapsed: 0.0008749961853027344
ell 642, elapsed: 0.0013959407806396484
ell 641, elapsed: 0.0007450580596923828
ell 640, elapsed: 0.0007560253143310547
ell 639, elapsed: 0.00074005126953125
ell 638, elapsed: 0.0008258819580078125
ell 632, elapsed: 0.0014660358428955078
ell 631, elapsed: 0.0007839202880859375
ell 630, elapsed: 0.0007529258728027344
ell 629, elapsed: 0.0008211135864257812
ell 628, elapsed: 0.0008120536804199219
ell 622, elapsed: 0.001435995101928711
ell 621, elapsed: 0.00080108642578125
ell 620, elapsed: 0.0008981227874755859
ell 619, elapsed: 0.0007510185241699219
ell 618, elapsed: 0.0007557868957519531
ell 612, elapsed: 0.0014760494232177734
ell 611, elapsed: 0.0008180141448974609
ell 610, elapsed: 0.0007560253143310547
ell 609, elapsed: 0.0007519721984863281
ell 608, elapsed: 0.0007579326629638672
ell 602, elapsed: 0.0015709400177001953
ell 601, elapsed: 0.0007519721984863281
ell 600, elapsed: 0.0007569789886474609
ell 599, elapsed: 0.000743865966796875
ell 598, elapsed: 0.0007500648498535156
ell 592, elapsed: 0.0015518665313720703
ell 591, elapsed: 0.0007529258728027344
ell 590, elapsed: 0.0007538795471191406
ell 589, elapsed: 0.0007450580596923828
ell 588, elapsed: 0.0008158683776855469
ell 582, elapsed: 0.0014162063598632812
ell 581, elapsed: 0.0007479190826416016
ell 580, elapsed: 0.0007550716400146484
ell 579, elapsed: 0.00078582763671875
ell 578, elapsed: 0.0007700920104980469
ell 572, elapsed: 0.0015461444854736328
ell 571, elapsed: 0.0007700920104980469
ell 570, elapsed: 0.0008370876312255859
ell 569, elapsed: 0.0007600784301757812
ell 568, elapsed: 0.0007538795471191406
ell 562, elapsed: 0.0014710426330566406
ell 561, elapsed: 0.0008199214935302734
ell 560, elapsed: 0.0007550716400146484
ell 559, elapsed: 0.0007929801940917969
ell 558, elapsed: 0.0007979869842529297
ell 552, elapsed: 0.0014798641204833984
ell 551, elapsed: 0.0007510185241699219
ell 550, elapsed: 0.0007500648498535156
ell 549, elapsed: 0.0007441043853759766
ell 548, elapsed: 0.0007610321044921875
ell 542, elapsed: 0.0014789104461669922
ell 541, elapsed: 0.0007569789886474609
ell 540, elapsed: 0.000762939453125
ell 539, elapsed: 0.0007460117340087891
ell 538, elapsed: 0.0007600784301757812
ell 532, elapsed: 0.001477956771850586
ell 531, elapsed: 0.0007510185241699219
ell 530, elapsed: 0.0007560253143310547
ell 529, elapsed: 0.0007448196411132812
ell 528, elapsed: 0.0008289813995361328
ell 522, elapsed: 0.0014138221740722656
ell 521, elapsed: 0.0007510185241699219
ell 520, elapsed: 0.0007600784301757812
ell 519, elapsed: 0.0007679462432861328
ell 518, elapsed: 0.0007557868957519531
ell 512, elapsed: 0.0014140605926513672
ell 511, elapsed: 0.0007569789886474609
ell 510, elapsed: 0.0007791519165039062
ell 509, elapsed: 0.0007529258728027344
ell 508, elapsed: 0.0007550716400146484
ell 502, elapsed: 0.001463174819946289
ell 501, elapsed: 0.000782012939453125
ell 500, elapsed: 0.0008258819580078125
ell 499, elapsed: 0.0007710456848144531
ell 498, elapsed: 0.0007569789886474609
ell 492, elapsed: 0.0014309883117675781
ell 491, elapsed: 0.0007669925689697266
ell 490, elapsed: 0.0007610321044921875
ell 489, elapsed: 0.0007460117340087891
ell 488, elapsed: 0.0008389949798583984
ell 482, elapsed: 0.0015048980712890625
ell 481, elapsed: 0.0007522106170654297
ell 480, elapsed: 0.0007569789886474609
ell 479, elapsed: 0.0007491111755371094
ell 478, elapsed: 0.0008389949798583984
ell 472, elapsed: 0.0014989376068115234
ell 471, elapsed: 0.0007710456848144531
ell 470, elapsed: 0.0007548332214355469
ell 469, elapsed: 0.0007431507110595703
ell 468, elapsed: 0.0007710456848144531
ell 462, elapsed: 0.0014619827270507812
ell 461, elapsed: 0.0007560253143310547
ell 460, elapsed: 0.0007581710815429688
ell 459, elapsed: 0.0009019374847412109
ell 458, elapsed: 0.0007951259613037109
ell 452, elapsed: 0.0015239715576171875
ell 451, elapsed: 0.0008320808410644531
ell 450, elapsed: 0.0007941722869873047
ell 449, elapsed: 0.0007541179656982422
ell 448, elapsed: 0.0007638931274414062
ell 442, elapsed: 0.0015010833740234375
ell 441, elapsed: 0.0007531642913818359
ell 440, elapsed: 0.0007619857788085938
ell 439, elapsed: 0.0008020401000976562
ell 438, elapsed: 0.00080108642578125
ell 432, elapsed: 0.0013899803161621094
ell 431, elapsed: 0.0007231235504150391
ell 430, elapsed: 0.0007350444793701172
ell 429, elapsed: 0.0007297992706298828
ell 428, elapsed: 0.0007419586181640625
ell 422, elapsed: 0.0014629364013671875
ell 421, elapsed: 0.0007767677307128906
ell 420, elapsed: 0.0007519721984863281
ell 419, elapsed: 0.0007338523864746094
ell 418, elapsed: 0.0007700920104980469
ell 412, elapsed: 0.0013179779052734375
ell 411, elapsed: 0.0007231235504150391
ell 410, elapsed: 0.0007390975952148438
ell 409, elapsed: 0.0007319450378417969
ell 408, elapsed: 0.0008199214935302734
ell 402, elapsed: 0.0014350414276123047
ell 401, elapsed: 0.0007832050323486328
ell 400, elapsed: 0.0007588863372802734
ell 399, elapsed: 0.0007579326629638672
ell 398, elapsed: 0.0007200241088867188
ell 392, elapsed: 0.0012619495391845703
ell 391, elapsed: 0.0007350444793701172
ell 390, elapsed: 0.0007550716400146484
ell 389, elapsed: 0.0006821155548095703
ell 388, elapsed: 0.0007371902465820312
ell 382, elapsed: 0.0013768672943115234
ell 381, elapsed: 0.000782012939453125
ell 380, elapsed: 0.0007569789886474609
ell 379, elapsed: 0.00074005126953125
ell 378, elapsed: 0.0007390975952148438
ell 372, elapsed: 0.0013659000396728516
ell 371, elapsed: 0.0007259845733642578
ell 370, elapsed: 0.0007281303405761719
ell 369, elapsed: 0.0007109642028808594
ell 368, elapsed: 0.0007350444793701172
ell 362, elapsed: 0.0014510154724121094
ell 361, elapsed: 0.0007410049438476562
ell 360, elapsed: 0.0007441043853759766
ell 359, elapsed: 0.0007281303405761719
ell 358, elapsed: 0.0007147789001464844
ell 352, elapsed: 0.0014739036560058594
ell 351, elapsed: 0.0007600784301757812
ell 350, elapsed: 0.0007369518280029297
ell 349, elapsed: 0.0007379055023193359
ell 348, elapsed: 0.0007429122924804688
ell 342, elapsed: 0.0014469623565673828
ell 341, elapsed: 0.0007688999176025391
ell 340, elapsed: 0.00074005126953125
ell 339, elapsed: 0.000743865966796875
ell 338, elapsed: 0.0007910728454589844
ell 332, elapsed: 0.0013861656188964844
ell 331, elapsed: 0.0007441043853759766
ell 330, elapsed: 0.0007021427154541016
ell 329, elapsed: 0.0007119178771972656
ell 328, elapsed: 0.0007088184356689453
ell 322, elapsed: 0.0013260841369628906
ell 321, elapsed: 0.0007040500640869141
ell 320, elapsed: 0.0007071495056152344
ell 319, elapsed: 0.0007958412170410156
ell 318, elapsed: 0.0007569789886474609
ell 312, elapsed: 0.0013730525970458984
ell 311, elapsed: 0.0007619857788085938
ell 310, elapsed: 0.0008540153503417969
ell 309, elapsed: 0.0007519721984863281
ell 308, elapsed: 0.0007731914520263672
ell 302, elapsed: 0.0014529228210449219
ell 301, elapsed: 0.0008370876312255859
ell 300, elapsed: 0.0007660388946533203
ell 299, elapsed: 0.0007588863372802734
ell 298, elapsed: 0.0007178783416748047
ell 292, elapsed: 0.0014390945434570312
ell 291, elapsed: 0.0007510185241699219
ell 290, elapsed: 0.0007340908050537109
ell 289, elapsed: 0.0007200241088867188
ell 288, elapsed: 0.0007469654083251953
ell 282, elapsed: 0.0013840198516845703
ell 281, elapsed: 0.0007181167602539062
ell 280, elapsed: 0.0007281303405761719
ell 279, elapsed: 0.0007269382476806641
ell 278, elapsed: 0.0007379055023193359
ell 272, elapsed: 0.0015599727630615234
ell 271, elapsed: 0.0007259845733642578
ell 270, elapsed: 0.0007290840148925781
ell 269, elapsed: 0.0007290840148925781
ell 268, elapsed: 0.0007460117340087891
ell 262, elapsed: 0.0013890266418457031
ell 261, elapsed: 0.0007450580596923828
ell 260, elapsed: 0.0007259845733642578
ell 259, elapsed: 0.0007581710815429688
ell 258, elapsed: 0.0007498264312744141
ell 252, elapsed: 0.0013689994812011719
ell 251, elapsed: 0.0007441043853759766
ell 250, elapsed: 0.0007240772247314453
ell 249, elapsed: 0.000743865966796875
ell 248, elapsed: 0.0007388591766357422
ell 242, elapsed: 0.001399993896484375
ell 241, elapsed: 0.0007369518280029297
ell 240, elapsed: 0.0007398128509521484
ell 239, elapsed: 0.000720977783203125
ell 238, elapsed: 0.0007309913635253906
ell 232, elapsed: 0.0014078617095947266
ell 231, elapsed: 0.0007870197296142578
ell 230, elapsed: 0.0007488727569580078
ell 229, elapsed: 0.0007870197296142578
ell 228, elapsed: 0.000762939453125
ell 222, elapsed: 0.0014121532440185547
ell 221, elapsed: 0.0007929801940917969
ell 220, elapsed: 0.0007359981536865234
ell 219, elapsed: 0.0007100105285644531
ell 218, elapsed: 0.0007288455963134766
ell 212, elapsed: 0.001435995101928711
ell 211, elapsed: 0.0007159709930419922
ell 210, elapsed: 0.0007321834564208984
ell 209, elapsed: 0.0007300376892089844
ell 208, elapsed: 0.0007288455963134766
ell 202, elapsed: 0.0014529228210449219
ell 201, elapsed: 0.000759124755859375
ell 200, elapsed: 0.0007410049438476562
ell 199, elapsed: 0.0007269382476806641
ell 198, elapsed: 0.0007450580596923828
ell 192, elapsed: 0.001394033432006836
ell 191, elapsed: 0.0007379055023193359
ell 190, elapsed: 0.0007429122924804688
ell 189, elapsed: 0.0007340908050537109
ell 188, elapsed: 0.0007388591766357422
ell 182, elapsed: 0.0013887882232666016
ell 181, elapsed: 0.0007228851318359375
ell 180, elapsed: 0.0007419586181640625
ell 179, elapsed: 0.0007419586181640625
ell 178, elapsed: 0.0007300376892089844
ell 172, elapsed: 0.0013852119445800781
ell 171, elapsed: 0.0007429122924804688
ell 170, elapsed: 0.0007410049438476562
ell 169, elapsed: 0.0007419586181640625
ell 168, elapsed: 0.0007300376892089844
ell 162, elapsed: 0.0014197826385498047
ell 161, elapsed: 0.0007410049438476562
ell 160, elapsed: 0.0007832050323486328
ell 159, elapsed: 0.0007331371307373047
ell 158, elapsed: 0.0007460117340087891
ell 152, elapsed: 0.001322031021118164
ell 151, elapsed: 0.0007569789886474609
ell 150, elapsed: 0.0007240772247314453
ell 149, elapsed: 0.0007309913635253906
ell 148, elapsed: 0.0007450580596923828
ell 142, elapsed: 0.0014581680297851562
ell 141, elapsed: 0.0007448196411132812
ell 140, elapsed: 0.0007269382476806641
ell 139, elapsed: 0.0007269382476806641
ell 138, elapsed: 0.0007259845733642578
ell 132, elapsed: 0.0013968944549560547
ell 131, elapsed: 0.0007548332214355469
ell 130, elapsed: 0.0007259845733642578
ell 129, elapsed: 0.0007197856903076172
ell 128, elapsed: 0.0007240772247314453
ell 122, elapsed: 0.0014431476593017578
ell 121, elapsed: 0.000720977783203125
ell 120, elapsed: 0.0007250308990478516
ell 119, elapsed: 0.0007269382476806641
ell 118, elapsed: 0.0007491111755371094
ell 112, elapsed: 0.0014071464538574219
ell 111, elapsed: 0.0007429122924804688
ell 110, elapsed: 0.0007350444793701172
ell 109, elapsed: 0.0007250308990478516
ell 108, elapsed: 0.0007829666137695312
ell 102, elapsed: 0.0014338493347167969
ell 101, elapsed: 0.0030660629272460938
ell 100, elapsed: 0.0031690597534179688
ell 99, elapsed: 0.0031731128692626953
ell 98, elapsed: 0.003177165985107422
ell 92, elapsed: 0.0058290958404541016
ell 91, elapsed: 0.0032150745391845703
ell 90, elapsed: 0.0032579898834228516
ell 89, elapsed: 0.003139019012451172
ell 88, elapsed: 0.0031058788299560547
ell 82, elapsed: 0.006471157073974609
ell 81, elapsed: 0.0033431053161621094
ell 80, elapsed: 0.003195047378540039
ell 79, elapsed: 0.0041811466217041016
ell 78, elapsed: 0.003422975540161133
ell 72, elapsed: 0.007059812545776367
ell 71, elapsed: 0.0038919448852539062
ell 70, elapsed: 0.005249977111816406
ell 69, elapsed: 0.0040400028228759766
ell 68, elapsed: 0.0034799575805664062
ell 62, elapsed: 0.0073680877685546875
ell 61, elapsed: 0.0042378902435302734
ell 60, elapsed: 0.0037407875061035156
ell 59, elapsed: 0.004191875457763672
ell 58, elapsed: 0.0034630298614501953
ell 52, elapsed: 0.007400035858154297
ell 51, elapsed: 0.003329038619995117
ell 50, elapsed: 0.003421783447265625
ell 49, elapsed: 0.004004001617431641
ell 48, elapsed: 0.0034248828887939453
ell 42, elapsed: 0.007861137390136719
ell 41, elapsed: 0.005739927291870117
ell 40, elapsed: 0.004274845123291016
ell 39, elapsed: 0.00450897216796875
ell 38, elapsed: 0.0044138431549072266
ell 32, elapsed: 0.007884979248046875
ell 31, elapsed: 0.0035920143127441406
ell 30, elapsed: 0.00415802001953125
ell 29, elapsed: 0.0036101341247558594
ell 28, elapsed: 0.0042819976806640625
ell 22, elapsed: 0.006647825241088867
ell 21, elapsed: 0.0044708251953125
ell 20, elapsed: 0.004048824310302734
ell 19, elapsed: 0.003553152084350586
ell 18, elapsed: 0.004248857498168945
ell 12, elapsed: 0.006246805191040039
ell 11, elapsed: 0.003020048141479492
ell 10, elapsed: 0.003058910369873047
ell 9, elapsed: 0.0030639171600341797
ell 8, elapsed: 0.003052949905395508
  0.735545 seconds (68.56 k allocations: 12.176 MiB)
elapsed: 0.0037250518798828125
step:          0.069232 sec (0 allocations: 0 byte, 0.0% gc time)
swapping:      0.000617 sec (0 allocations: 0 byte, 0.0% gc time)
calc_Mellell!: 0.037025 sec (0 allocations: 0 byte, 0.0% gc time)
  t0 :  0.009218 sec (0 allocations: 0 byte, 0.0% gc time)
  tm2 : 0.079723 sec (0 allocations: 0 byte, 0.0% gc time)
  tm2s: 0.007077 sec (0 allocations: 0 byte, 0.0% gc time)
  tm4 : 0.17853 sec (0 allocations: 0 byte, 0.0% gc time)
  tp2 : 0.0 sec (0 allocations: 0 byte, 0.0% gc time)
  tp2s: 0.0 sec (0 allocations: 0 byte, 0.0% gc time)
  tp4 : 0.0 sec (0 allocations: 0 byte, 0.0% gc time)
calc_wtdll!:   0.520416 sec (48.6 k allocations: 11.096 MB, 0.0% gc time)
calc_wljj!:    0.035438 sec (69 allocations: 1.078 KB, 0.0% gc time)
mult_prefac!:  0.0 sec (0 allocations: 0 byte, 0.0% gc time)
convert:       0.0 sec (0 allocations: 0 byte, 0.0% gc time)
write:         0.032865 sec (0 allocations: 0 byte, 0.0% gc time)
test_rand_2f1: 0.0 sec (0 allocations: 0 byte, 0.0% gc time)
Closing outfile out/MlCache/MlCache.bin...   0.000006 seconds
xi, l=0, nu=0:   0.351036 seconds (603.12 k allocations: 32.986 MiB, 99.30% compilation time)
xi, l=0, nu=-2:  0.002236 seconds (114 allocations: 148.969 KiB)
Created 'out/xi.tsv'.
  q=1.1, R=0.6:	  0.668295 seconds (264.51 k allocations: 38.097 MiB, 3.26% gc time)
  q=1.1, R=0.7:	  0.773605 seconds (276.48 k allocations: 40.118 MiB, 1.87% gc time)
  q=1.1, R=0.8:	  0.883557 seconds (271.73 k allocations: 39.310 MiB, 1.17% gc time)
  q=1.1, R=0.9:	  1.138030 seconds (266.62 k allocations: 38.459 MiB, 0.71% gc time)
  q=1.1, R=0.998:	 19.740216 seconds (114.96 k allocations: 7.588 MiB)
  q=1.1, R=1.0:	  0.004516 seconds (8.20 k allocations: 704.344 KiB)

ℓ = 1000
Δℓ = 4
ΔℓRg1 = -4
N = 4096
q = 1.1
kmin = 1.0e-5
kmax = 1000.0
χ0 = 0.001
RR = RR.tsv
ℓmax = ℓmax.bin
f21 = f21.bin
kmin = 1.0e-5
kmax = 1000.0
dlrec    = 4
dlrecRg1 = -4
Output size: 1573632 bytes = 0.0014655590057373047 GiB
Output size: 786816 bytes = 0.0007327795028686523 GiB
Reading 'out/F21EllCache'...   0.001431 seconds (198 allocations: 533.078 KiB)
ellmax: 1002
lmaxcache: 1000
fell[:,1,1] = ComplexF64[1.726292812820208e-224 - 4.2281979352226965e-240im, 1.7282693092099638e-224 - 4.233038955177178e-240im]
ell 1002, elapsed: 2.384185791015625e-5
ell 1001, elapsed: 0.0012178421020507812
ell 1000, elapsed: 0.000982046127319336
ell 999, elapsed: 0.005767822265625
ell 998, elapsed: 0.0058710575103759766
ell 44, elapsed: 0.7401790618896484
ell 43, elapsed: 0.00568699836730957
ell 42, elapsed: 0.005491018295288086
ell 41, elapsed: 0.005060911178588867
ell 40, elapsed: 0.005396842956542969
  0.782622 seconds (4.59 k allocations: 322.266 KiB)
elapsed: 0.006432056427001953
step:          0.736325 sec (0 allocations: 0 byte, 0.0% gc time)
swapping:      0.000537 sec (0 allocations: 0 byte, 0.0% gc time)
calc_Mellell!: 0.001184 sec (0 allocations: 0 byte, 0.0% gc time)
  t0 :  0.000776 sec (0 allocations: 0 byte, 0.0% gc time)
  tm2 : 0.009444 sec (0 allocations: 0 byte, 0.0% gc time)
  tm2s: 0.000635 sec (0 allocations: 0 byte, 0.0% gc time)
  tm4 : 0.027483 sec (0 allocations: 0 byte, 0.0% gc time)
  tp2 : 0.0 sec (0 allocations: 0 byte, 0.0% gc time)
  tp2s: 0.0 sec (0 allocations: 0 byte, 0.0% gc time)
  tp4 : 0.0 sec (0 allocations: 0 byte, 0.0% gc time)
calc_wtdll!:   0.038596 sec (480 allocations: 52.5 KB, 0.0% gc time)
calc_wljj!:    0.001413 sec (1 allocations: 16 byte, 0.0% gc time)
mult_prefac!:  0.0 sec (0 allocations: 0 byte, 0.0% gc time)
convert:       0.0 sec (0 allocations: 0 byte, 0.0% gc time)
write:         0.000898 sec (0 allocations: 0 byte, 0.0% gc time)
test_rand_2f1: 0.0 sec (0 allocations: 0 byte, 0.0% gc time)
Closing outfile out/MlCache/MlCache.bin...   0.000006 seconds
  0.770229 seconds (38 allocations: 66.859 KiB)
make_phi():   0.013394 seconds (65 allocations: 275.984 KiB)
  0.086530 seconds (11.42 k allocations: 711.960 KiB, 93.24% compilation time)
tskip:       1.0e-6 sec (0 allocations: 0 byte, 0.0% gc time)
tread:       0.000866 sec (17 allocations: 1.266 KB, 0.0% gc time)
tmultphi:    0.00064 sec (0 allocations: 0 byte, 0.0% gc time)
tbrfft:      0.001217 sec (0 allocations: 0 byte, 0.0% gc time)
tmultprefac: 0.001261 sec (0 allocations: 0 byte, 0.0% gc time)
toutfunc:    0.000387 sec (0 allocations: 0 byte, 0.0% gc time)
Created 'out/wl42_jj00.tsv'.
Created 'out/wl42_jj02.tsv'.
    Testing TwoFAST tests passed 
