Julia Version 1.6.0-DEV.1076
Commit da1d8373cd (2020-09-29 17:47 UTC)
Platform Info:
  OS: Linux (x86_64-linux-gnu)
  CPU: Intel(R) Xeon(R) Silver 4114 CPU @ 2.20GHz
  WORD_SIZE: 64
  LIBM: libopenlibm
  LLVM: libLLVM-10.0.1 (ORCJIT, skylake-avx512)
Environment:
  JULIA_DEPOT_PATH = ::/usr/local/share/julia
  JULIA_NUM_THREADS = 2

  Resolving package versions...
  Installed MKL_jll ────────────────────── v2020.2.254+0
  Installed Readables ──────────────────── v0.3.3
  Installed CompilerSupportLibraries_jll ─ v0.3.3+0
  Installed AbstractFFTs ───────────────── v0.5.0
  Installed FFTW ───────────────────────── v1.2.4
  Installed GenericSchur ───────────────── v0.4.0
  Installed ArbNumerics ────────────────── v1.2.1
  Installed Reexport ───────────────────── v0.2.0
  Installed GenericSVD ─────────────────── v0.3.0
  Installed BinaryProvider ─────────────── v0.5.10
  Installed IntelOpenMP_jll ────────────── v2018.0.3+0
  Installed SpecialFunctions ───────────── v0.10.3
  Installed OpenSpecFun_jll ────────────── v0.5.3+3
  Installed FFTW_jll ───────────────────── v3.3.9+5
  Installed TwoFAST ────────────────────── v0.1.3
Updating `~/.julia/environments/v1.6/Project.toml`
  [0dd23c3e] + TwoFAST v0.1.3
Updating `~/.julia/environments/v1.6/Manifest.toml`
  [621f4979] + AbstractFFTs v0.5.0
  [7e558dbc] + ArbNumerics v1.2.1
  [b99e7846] + BinaryProvider v0.5.10
  [e66e0078] + CompilerSupportLibraries_jll v0.3.3+0
  [7a1cc6ca] + FFTW v1.2.4
  [f5851436] + FFTW_jll v3.3.9+5
  [01680d73] + GenericSVD v0.3.0
  [c145ed77] + GenericSchur v0.4.0
  [1d5cc7b8] + IntelOpenMP_jll v2018.0.3+0
  [856f044c] + MKL_jll v2020.2.254+0
  [efe28fd5] + OpenSpecFun_jll v0.5.3+3
  [0d4725de] + Readables v0.3.3
  [189a3867] + Reexport v0.2.0
  [276daf66] + SpecialFunctions v0.10.3
  [0dd23c3e] + TwoFAST v0.1.3
  [56f22d72] + Artifacts
  [2a0f44e3] + Base64
  [ade2ca70] + Dates
  [8bb1440f] + DelimitedFiles
  [8ba89e20] + Distributed
  [b77e0a4c] + InteractiveUtils
  [76f85450] + LibGit2
  [8f399da3] + Libdl
  [37e2e46d] + LinearAlgebra
  [56ddb016] + Logging
  [d6f4376e] + Markdown
  [a63ad114] + Mmap
  [44cfe95a] + Pkg
  [de0858da] + Printf
  [3fa0cd96] + REPL
  [9a3f8284] + Random
  [ea8e919c] + SHA
  [9e88b42a] + Serialization
  [6462fe0b] + Sockets
  [fa267f1f] + TOML
  [8dfed614] + Test
  [cf7118a7] + UUIDs
  [4ec0a83e] + Unicode
   Building FFTW ───────→ `~/.julia/scratchspaces/44cfe95a-1eb2-52ea-b672-e2afdf69b78f/8b7c16b56936047ca41bf25effa137ae0b381ae8/build.log`
   Building ArbNumerics → `~/.julia/scratchspaces/44cfe95a-1eb2-52ea-b672-e2afdf69b78f/329a81d67c64e3a51c176a243b6424fbe39213d0/build.log`
    Testing TwoFAST
Status `/tmp/jl_H1ZDEn/Project.toml`
  [7e558dbc] ArbNumerics v1.2.1
  [39dd38d3] Dierckx v0.5.0
  [7a1cc6ca] FFTW v1.2.4
  [276daf66] SpecialFunctions v0.10.3
  [0dd23c3e] TwoFAST v0.1.3
  [8bb1440f] DelimitedFiles
  [37e2e46d] LinearAlgebra
  [56ddb016] Logging
  [8dfed614] Test
Status `/tmp/jl_H1ZDEn/Manifest.toml`
  [621f4979] AbstractFFTs v0.5.0
  [7e558dbc] ArbNumerics v1.2.1
  [b99e7846] BinaryProvider v0.5.10
  [e66e0078] CompilerSupportLibraries_jll v0.3.3+0
  [39dd38d3] Dierckx v0.5.0
  [cd4c43a9] Dierckx_jll v0.0.1+0
  [7a1cc6ca] FFTW v1.2.4
  [f5851436] FFTW_jll v3.3.9+5
  [01680d73] GenericSVD v0.3.0
  [c145ed77] GenericSchur v0.4.0
  [1d5cc7b8] IntelOpenMP_jll v2018.0.3+0
  [856f044c] MKL_jll v2020.2.254+0
  [efe28fd5] OpenSpecFun_jll v0.5.3+3
  [0d4725de] Readables v0.3.3
  [189a3867] Reexport v0.2.0
  [276daf66] SpecialFunctions v0.10.3
  [0dd23c3e] TwoFAST v0.1.3
  [56f22d72] Artifacts
  [2a0f44e3] Base64
  [ade2ca70] Dates
  [8bb1440f] DelimitedFiles
  [8ba89e20] Distributed
  [b77e0a4c] InteractiveUtils
  [76f85450] LibGit2
  [8f399da3] Libdl
  [37e2e46d] LinearAlgebra
  [56ddb016] Logging
  [d6f4376e] Markdown
  [a63ad114] Mmap
  [44cfe95a] Pkg
  [de0858da] Printf
  [3fa0cd96] REPL
  [9a3f8284] Random
  [ea8e919c] SHA
  [9e88b42a] Serialization
  [6462fe0b] Sockets
  [fa267f1f] TOML
  [8dfed614] Test
  [cf7118a7] UUIDs
  [4ec0a83e] Unicode
    Testing Running tests...
WARNING: could not import Printf.ini_hex into ArbNumerics
WARNING: could not import Printf.ini_HEX into ArbNumerics
t = 0.0 sec (0 allocations: 0 byte, 0.0% gc time)
typeof(t) = NamedTuple{(:value, :time, :bytes, :gctime, :gcstats), Tuple{DataType, Float64, Int64, Float64, Base.GC_Diff}}
TwoFAST.PerformanceStats.TimedType = Union{NamedTuple{(:value, :time, :bytes, :gctime, :gcstats), Tuple{T, Float64, Int64, Float64, Base.GC_Diff}}, Tuple{Any, Float64, Int64, Float64, Base.GC_Diff}} where T
t = 1.0e-6 sec (0 allocations: 0 byte, 0.0% gc time)
t: 1.0e-6 sec (0 allocations: 0 byte, 0.0% gc time)
Testing ξ(r), ℓ=0, ν=-1 ... passed
Testing ξ(r), ℓ=0, ν=0 ... passed
Testing ξ(r), ℓ=0, ν=1 ... passed
Testing ξ(r), ℓ=0, ν=2 ... passed
Testing ξ(r), ℓ=0, ν=3 ... passed
Testing ξ(r), ℓ=1, ν=0 ... passed
Testing ξ(r), ℓ=1, ν=1 ... passed
Testing ξ(r), ℓ=1, ν=2 ... passed
Testing ξ(r), ℓ=1, ν=3 ... passed
Testing ξ(r), ℓ=2, ν=-1 ... passed
Testing ξ(r), ℓ=2, ν=0 ... passed
Testing ξ(r), ℓ=2, ν=1 ... passed
Testing ξ(r), ℓ=2, ν=2 ... passed
Testing ξ(r), ℓ=2, ν=3 ... passed
Testing ξ(r), ℓ=3, ν=-1 ... passed
Testing ξ(r), ℓ=3, ν=0 ... passed
Testing ξ(r), ℓ=3, ν=1 ... passed
Testing ξ(r), ℓ=3, ν=2 ... passed
Testing ξ(r), ℓ=3, ν=3 ... passed
Testing ξ(r), ℓ=4, ν=-1 ... passed
Testing ξ(r), ℓ=4, ν=0 ... passed
Testing ξ(r), ℓ=4, ν=1 ... passed
Testing ξ(r), ℓ=4, ν=2 ... passed
Testing ξ(r), ℓ=4, ν=3 ... passed
Testing ξ(r) ... passed
Testing ξ′(r) ... passed
Testing ξ″(r) ... passed
Calculating fmax: 
  dlrec    = 4
  dlrecRg1 = -4
  q=1.1, R=1.1:	  4.794633 seconds (842.62 k allocations: 53.874 MiB, 0.63% gc time)

  4.812081 seconds (855.10 k allocations: 54.661 MiB, 0.63% gc time)
ℓ = 1202
Δℓ = 4
ΔℓRg1 = -4
N = 1600
q = 1.1
kmin = 1.0e-5
kmax = 100000.00000000004
χ0 = 0.023029999999999995
RR = RR.tsv
ℓmax = ℓmax.bin
f21 = f21.bin
kmin = 1.0e-5
kmax = 100000.0
dlrec    = 4
dlrecRg1 = -4
Output size: 5741568 bytes = 0.005347251892089844 GiB
Output size: 51264 bytes = 4.774332046508789e-5 GiB
Reading 'out/F21EllCache'...   0.748419 seconds (395.09 k allocations: 23.196 MiB, 3.12% gc time)
ellmax: 1202
lmaxcache: 1202
fell[:,1,1] = ComplexF64[3.9583795592771634e-52 - 9.695233714158177e-68im, 3.990121772925759e-52 - 9.772979714843386e-68im]
ell 1202, elapsed: 3.504753112792969e-5
ell 1201, elapsed: 1.5496361255645752
ell 1200, elapsed: 0.0014150142669677734
ell 1199, elapsed: 0.0005640983581542969
ell 1198, elapsed: 0.0005600452423095703
ell 1002, elapsed: 0.012792825698852539
ell 1001, elapsed: 0.0005040168762207031
ell 1000, elapsed: 0.001313924789428711
ell 999, elapsed: 0.0004940032958984375
ell 998, elapsed: 0.0004930496215820312
ell 902, elapsed: 0.006204843521118164
ell 901, elapsed: 0.0005030632019042969
ell 900, elapsed: 0.0004940032958984375
ell 899, elapsed: 0.0004940032958984375
ell 898, elapsed: 0.0007281303405761719
ell 802, elapsed: 0.00550389289855957
ell 801, elapsed: 0.0005190372467041016
ell 800, elapsed: 0.0004899501800537109
ell 799, elapsed: 0.0004870891571044922
ell 798, elapsed: 0.0004870891571044922
ell 702, elapsed: 0.005266904830932617
ell 701, elapsed: 0.0005099773406982422
ell 700, elapsed: 0.0004909038543701172
ell 699, elapsed: 0.0004940032958984375
ell 698, elapsed: 0.0004961490631103516
ell 602, elapsed: 0.005705118179321289
ell 601, elapsed: 0.0004990100860595703
ell 600, elapsed: 0.0005080699920654297
ell 599, elapsed: 0.0004918575286865234
ell 598, elapsed: 0.0004909038543701172
ell 502, elapsed: 0.005280971527099609
ell 501, elapsed: 0.0004940032958984375
ell 500, elapsed: 0.0007479190826416016
ell 499, elapsed: 0.0004911422729492188
ell 498, elapsed: 0.0004889965057373047
ell 402, elapsed: 0.0057680606842041016
ell 401, elapsed: 0.0005030632019042969
ell 400, elapsed: 0.0005950927734375
ell 399, elapsed: 0.0005519390106201172
ell 398, elapsed: 0.0005500316619873047
ell 302, elapsed: 0.006829977035522461
ell 301, elapsed: 0.0006589889526367188
ell 300, elapsed: 0.0005609989166259766
ell 299, elapsed: 0.0005559921264648438
ell 298, elapsed: 0.0005679130554199219
ell 202, elapsed: 0.0056688785552978516
ell 201, elapsed: 0.0004990100860595703
ell 200, elapsed: 0.00048804283142089844
ell 199, elapsed: 0.0004878044128417969
ell 198, elapsed: 0.00048804283142089844
ell 152, elapsed: 0.002869129180908203
ell 151, elapsed: 0.0004940032958984375
ell 150, elapsed: 0.0004911422729492188
ell 149, elapsed: 0.0004930496215820312
ell 148, elapsed: 0.0004889965057373047
ell 127, elapsed: 0.0016140937805175781
ell 126, elapsed: 0.0004940032958984375
ell 125, elapsed: 0.0004930496215820312
ell 124, elapsed: 0.0008451938629150391
ell 123, elapsed: 0.0004909038543701172
ell 114, elapsed: 0.0015189647674560547
ell 113, elapsed: 0.0006718635559082031
ell 112, elapsed: 0.0005550384521484375
ell 111, elapsed: 0.0005550384521484375
ell 110, elapsed: 0.0005578994750976562
ell 102, elapsed: 0.0011019706726074219
ell 101, elapsed: 0.0005629062652587891
ell 100, elapsed: 0.0005600452423095703
ell 99, elapsed: 0.0005640983581542969
ell 98, elapsed: 0.0005590915679931641
ell 97, elapsed: 0.0006310939788818359
ell 96, elapsed: 0.0007410049438476562
ell 95, elapsed: 0.0007660388946533203
ell 94, elapsed: 0.0006690025329589844
ell 93, elapsed: 0.0006299018859863281
ell 92, elapsed: 0.0006129741668701172
ell 91, elapsed: 0.0005559921264648438
ell 90, elapsed: 0.003534078598022461
ell 89, elapsed: 0.0018010139465332031
ell 88, elapsed: 0.0006330013275146484
ell 87, elapsed: 0.0005540847778320312
ell 86, elapsed: 0.0005488395690917969
ell 85, elapsed: 0.0005769729614257812
ell 84, elapsed: 0.0007710456848144531
ell 83, elapsed: 0.0006270408630371094
ell 82, elapsed: 0.0006279945373535156
ell 81, elapsed: 0.0006239414215087891
ell 80, elapsed: 0.0006310939788818359
ell 79, elapsed: 0.0006251335144042969
ell 78, elapsed: 0.004715919494628906
ell 77, elapsed: 0.0006308555603027344
ell 76, elapsed: 0.0006279945373535156
ell 75, elapsed: 0.0006251335144042969
ell 74, elapsed: 0.0006258487701416016
ell 73, elapsed: 0.0006208419799804688
ell 72, elapsed: 0.0042531490325927734
ell 71, elapsed: 0.0006279945373535156
ell 70, elapsed: 0.0006330013275146484
ell 69, elapsed: 0.0006229877471923828
ell 68, elapsed: 0.0006289482116699219
ell 67, elapsed: 0.0006279945373535156
ell 66, elapsed: 0.0007460117340087891
ell 65, elapsed: 0.0006289482116699219
ell 64, elapsed: 0.0006289482116699219
ell 63, elapsed: 0.0006330013275146484
ell 62, elapsed: 0.0006289482116699219
ell 61, elapsed: 0.0006308555603027344
ell 60, elapsed: 0.0016889572143554688
ell 59, elapsed: 0.0006289482116699219
ell 58, elapsed: 0.0006260871887207031
ell 57, elapsed: 0.0006201267242431641
ell 56, elapsed: 0.0006241798400878906
ell 55, elapsed: 0.000637054443359375
ell 54, elapsed: 0.0006201267242431641
ell 53, elapsed: 0.0006270408630371094
ell 52, elapsed: 0.0006210803985595703
ell 51, elapsed: 0.0006270408630371094
ell 50, elapsed: 0.0006208419799804688
ell 49, elapsed: 0.0007538795471191406
ell 48, elapsed: 0.0006310939788818359
ell 47, elapsed: 0.0006430149078369141
ell 46, elapsed: 0.0006430149078369141
ell 45, elapsed: 0.000701904296875
ell 44, elapsed: 0.0008571147918701172
ell 43, elapsed: 0.0005559921264648438
ell 42, elapsed: 0.0005481243133544922
ell 41, elapsed: 0.0005512237548828125
ell 40, elapsed: 0.0005459785461425781
ell 39, elapsed: 0.0005521774291992188
ell 38, elapsed: 0.0005450248718261719
ell 37, elapsed: 0.0008559226989746094
ell 36, elapsed: 0.0005519390106201172
ell 35, elapsed: 0.0006051063537597656
ell 34, elapsed: 0.0005619525909423828
ell 33, elapsed: 0.0005509853363037109
ell 32, elapsed: 0.0005450248718261719
ell 31, elapsed: 0.000762939453125
ell 30, elapsed: 0.0005731582641601562
ell 29, elapsed: 0.0006549358367919922
ell 28, elapsed: 0.0006198883056640625
ell 27, elapsed: 0.00061798095703125
ell 26, elapsed: 0.0006239414215087891
ell 25, elapsed: 0.0008959770202636719
ell 24, elapsed: 0.0007030963897705078
ell 23, elapsed: 0.0006489753723144531
ell 22, elapsed: 0.0006229877471923828
ell 21, elapsed: 0.0006229877471923828
ell 20, elapsed: 0.0006210803985595703
ell 19, elapsed: 0.0008609294891357422
ell 18, elapsed: 0.0006251335144042969
ell 17, elapsed: 0.0006189346313476562
ell 16, elapsed: 0.0006248950958251953
ell 15, elapsed: 0.0006189346313476562
ell 14, elapsed: 0.0006239414215087891
ell 13, elapsed: 0.0009520053863525391
ell 12, elapsed: 0.0006899833679199219
ell 11, elapsed: 0.0006279945373535156
ell 10, elapsed: 0.0006191730499267578
ell 9, elapsed: 0.0006229877471923828
ell 8, elapsed: 0.0008561611175537109
ell 7, elapsed: 0.0006220340728759766
ell 6, elapsed: 0.0006260871887207031
ell 5, elapsed: 0.00061798095703125
ell 4, elapsed: 0.0006270408630371094
ell 3, elapsed: 0.0006191730499267578
ell 2, elapsed: 0.0009319782257080078
ell 1, elapsed: 0.000701904296875
ell 0, elapsed: 0.0006248950958251953
  2.228479 seconds (1.38 M allocations: 74.485 MiB, 2.10% gc time)
elapsed: 0.0010080337524414062
step:          0.426405 sec (311.142 k allocations: 16.962 MB, 0.0% gc time)
swapping:      0.000508 sec (0 allocations: 0 byte, 0.0% gc time)
calc_Mellell!: 0.154588 sec (135.742 k allocations: 7.433 MB, 0.0% gc time)
  t0 :  0.0 sec (0 allocations: 0 byte, 0.0% gc time)
  tm2 : 0.0 sec (0 allocations: 0 byte, 0.0% gc time)
  tm2s: 0.0 sec (0 allocations: 0 byte, 0.0% gc time)
  tm4 : 0.0 sec (0 allocations: 0 byte, 0.0% gc time)
  tp2 : 0.0 sec (0 allocations: 0 byte, 0.0% gc time)
  tp2s: 0.0 sec (0 allocations: 0 byte, 0.0% gc time)
  tp4 : 0.0 sec (0 allocations: 0 byte, 0.0% gc time)
calc_wtdll!:   1.128418 sec (509.615 k allocations: 28.195 MB, 2.18% gc time)
calc_wljj!:    0.004097 sec (6 allocations: 96 byte, 0.0% gc time)
mult_prefac!:  0.0 sec (0 allocations: 0 byte, 0.0% gc time)
convert:       0.0 sec (0 allocations: 0 byte, 0.0% gc time)
write:         0.00399 sec (0 allocations: 0 byte, 0.0% gc time)
test_rand_2f1: 0.0 sec (0 allocations: 0 byte, 0.0% gc time)
Closing outfile out/Ml21-cache.bin...   0.000009 seconds
  1.110362 seconds (246.50 k allocations: 14.232 MiB)
make_phi():   0.013654 seconds (8.18 k allocations: 237.844 KiB)
  0.309621 seconds (87.57 k allocations: 4.765 MiB, 13.00% gc time)
tskip:       2.0e-5 sec (0 allocations: 0 byte, 0.0% gc time)
tread:       0.002614 sec (17 allocations: 2.125 KB, 0.0% gc time)
tmultphi:    0.044474 sec (21.425 k allocations: 1.287 MB, 0.0% gc time)
tbrfft:      0.004333 sec (0 allocations: 0 byte, 0.0% gc time)
tmultprefac: 0.004632 sec (0 allocations: 0 byte, 0.0% gc time)
toutfunc:    0.211906 sec (64.486 k allocations: 3.347 MB, 18.99% gc time)
Testing R=1.1 ... passed
Calculating fmax: 
  dlrec    = 4
  dlrecRg1 = -4
  q=1.1, R=1.0:	  0.001455 seconds (3.20 k allocations: 275.344 KiB)

  0.001577 seconds (3.25 k allocations: 309.984 KiB)
ℓ = 1202
Δℓ = 4
ΔℓRg1 = -4
N = 1600
q = 1.1
kmin = 1.0e-5
kmax = 100000.00000000004
χ0 = 0.023029999999999995
RR = RR.tsv
ℓmax = ℓmax.bin
f21 = f21.bin
kmin = 1.0e-5
kmax = 100000.0
dlrec    = 4
dlrecRg1 = -4
Output size: 61465536 bytes = 0.05724424123764038 GiB
Output size: 51264 bytes = 4.774332046508789e-5 GiB
Reading 'out/F21EllCache'...   0.001130 seconds (197 allocations: 84.203 KiB)
ellmax: 1202
lmaxcache: 1202
fell[:,1,1] = ComplexF64[809.6031528389767 - 1.9829558194077161e-13im, 0.0 + 0.0im]
ell 1202, elapsed: 9.202957153320312e-5
ell 1201, elapsed: 0.016475915908813477
ell 1200, elapsed: 0.01613903045654297
ell 1199, elapsed: 0.0005280971527099609
ell 1198, elapsed: 0.0005021095275878906
ell 1197, elapsed: 0.000614166259765625
ell 1196, elapsed: 0.0005440711975097656
ell 1195, elapsed: 0.000576019287109375
ell 1194, elapsed: 0.0005090236663818359
ell 1193, elapsed: 0.0005340576171875
ell 1192, elapsed: 0.0005660057067871094
ell 1191, elapsed: 0.0005309581756591797
ell 1190, elapsed: 0.0005650520324707031
ell 1189, elapsed: 0.0005650520324707031
ell 1188, elapsed: 0.0005600452423095703
ell 1187, elapsed: 0.0005550384521484375
ell 1186, elapsed: 0.0006010532379150391
ell 1185, elapsed: 0.0005838871002197266
ell 1184, elapsed: 0.0005671977996826172
ell 1183, elapsed: 0.0005719661712646484
ell 1182, elapsed: 0.0005872249603271484
ell 1181, elapsed: 0.0005741119384765625
ell 1180, elapsed: 0.0005609989166259766
ell 1179, elapsed: 0.0005629062652587891
ell 1178, elapsed: 0.0005950927734375
ell 1177, elapsed: 0.0005970001220703125
ell 1176, elapsed: 0.0005540847778320312
ell 1175, elapsed: 0.0005550384521484375
ell 1174, elapsed: 0.0005788803100585938
ell 1173, elapsed: 0.0005559921264648438
ell 1172, elapsed: 0.0005950927734375
ell 1171, elapsed: 0.0005600452423095703
ell 1170, elapsed: 0.0005590915679931641
ell 1169, elapsed: 0.000579833984375
ell 1168, elapsed: 0.0005829334259033203
ell 1167, elapsed: 0.0005309581756591797
ell 1166, elapsed: 0.0005948543548583984
ell 1165, elapsed: 0.0005929470062255859
ell 1164, elapsed: 0.0005669593811035156
ell 1163, elapsed: 0.0005578994750976562
ell 1162, elapsed: 0.0005559921264648438
ell 1161, elapsed: 0.000720977783203125
ell 1160, elapsed: 0.0005729198455810547
ell 1159, elapsed: 0.0004420280456542969
ell 1158, elapsed: 0.00045299530029296875
ell 1157, elapsed: 0.0004661083221435547
ell 1156, elapsed: 0.000453948974609375
ell 1155, elapsed: 0.0004398822784423828
ell 1154, elapsed: 0.0004949569702148438
ell 1153, elapsed: 0.00044798851013183594
ell 1152, elapsed: 0.00045800209045410156
ell 1151, elapsed: 0.0004489421844482422
ell 1150, elapsed: 0.0004520416259765625
ell 1149, elapsed: 0.00045800209045410156
ell 1148, elapsed: 0.0004780292510986328
ell 1147, elapsed: 0.0004589557647705078
ell 1146, elapsed: 0.00045180320739746094
ell 1145, elapsed: 0.00044989585876464844
ell 1144, elapsed: 0.000453948974609375
ell 1143, elapsed: 0.0004520416259765625
ell 1142, elapsed: 0.00045680999755859375
ell 1141, elapsed: 0.0004520416259765625
ell 1140, elapsed: 0.00045180320739746094
ell 1139, elapsed: 0.000453948974609375
ell 1138, elapsed: 0.00045108795166015625
ell 1137, elapsed: 0.000453948974609375
ell 1136, elapsed: 0.0006861686706542969
ell 1135, elapsed: 0.0004761219024658203
ell 1134, elapsed: 0.00045800209045410156
ell 1133, elapsed: 0.000453948974609375
ell 1132, elapsed: 0.0004558563232421875
ell 1131, elapsed: 0.00045299530029296875
ell 1130, elapsed: 0.0004649162292480469
ell 1129, elapsed: 0.00045299530029296875
ell 1128, elapsed: 0.0004520416259765625
ell 1127, elapsed: 0.00045299530029296875
ell 1126, elapsed: 0.00045108795166015625
ell 1125, elapsed: 0.00043487548828125
ell 1124, elapsed: 0.00045299530029296875
ell 1123, elapsed: 0.0004711151123046875
ell 1122, elapsed: 0.0004520416259765625
ell 1121, elapsed: 0.0004520416259765625
ell 1120, elapsed: 0.00044989585876464844
ell 1119, elapsed: 0.0004589557647705078
ell 1118, elapsed: 0.00045013427734375
ell 1117, elapsed: 0.0004711151123046875
ell 1116, elapsed: 0.00044798851013183594
ell 1115, elapsed: 0.0004520416259765625
ell 1114, elapsed: 0.00045299530029296875
ell 1113, elapsed: 0.00045299530029296875
ell 1112, elapsed: 0.00045299530029296875
ell 1111, elapsed: 0.0007350444793701172
ell 1110, elapsed: 0.00045800209045410156
ell 1109, elapsed: 0.00045680999755859375
ell 1108, elapsed: 0.0004508495330810547
ell 1107, elapsed: 0.000453948974609375
ell 1106, elapsed: 0.0004429817199707031
ell 1105, elapsed: 0.0004680156707763672
ell 1104, elapsed: 0.00045490264892578125
ell 1103, elapsed: 0.000453948974609375
ell 1102, elapsed: 0.0004398822784423828
ell 1101, elapsed: 0.00047206878662109375
ell 1100, elapsed: 0.0004508495330810547
ell 1099, elapsed: 0.00046896934509277344
ell 1098, elapsed: 0.00045108795166015625
ell 1097, elapsed: 0.00045299530029296875
ell 1096, elapsed: 0.0004520416259765625
ell 1095, elapsed: 0.0004589557647705078
ell 1094, elapsed: 0.0004489421844482422
ell 1093, elapsed: 0.0004620552062988281
ell 1092, elapsed: 0.0004401206970214844
ell 1091, elapsed: 0.00045013427734375
ell 1090, elapsed: 0.0004570484161376953
ell 1089, elapsed: 0.0004489421844482422
ell 1088, elapsed: 0.000453948974609375
ell 1087, elapsed: 0.0004649162292480469
ell 1086, elapsed: 0.0008029937744140625
ell 1085, elapsed: 0.00047898292541503906
ell 1084, elapsed: 0.0004558563232421875
ell 1083, elapsed: 0.00045490264892578125
ell 1082, elapsed: 0.0004448890686035156
ell 1081, elapsed: 0.0004470348358154297
ell 1080, elapsed: 0.00045800209045410156
ell 1079, elapsed: 0.00045609474182128906
ell 1078, elapsed: 0.0004520416259765625
ell 1077, elapsed: 0.000453948974609375
ell 1076, elapsed: 0.000453948974609375
ell 1075, elapsed: 0.0004520416259765625
ell 1074, elapsed: 0.00044798851013183594
ell 1073, elapsed: 0.0004520416259765625
ell 1072, elapsed: 0.0004570484161376953
ell 1071, elapsed: 0.0004379749298095703
ell 1070, elapsed: 0.0004589557647705078
ell 1069, elapsed: 0.0004642009735107422
ell 1068, elapsed: 0.00045013427734375
ell 1067, elapsed: 0.0004420280456542969
ell 1066, elapsed: 0.0004508495330810547
ell 1065, elapsed: 0.0004417896270751953
ell 1064, elapsed: 0.0004401206970214844
ell 1063, elapsed: 0.00044989585876464844
ell 1062, elapsed: 0.0004401206970214844
ell 1061, elapsed: 0.0005588531494140625
ell 1060, elapsed: 0.0005259513854980469
ell 1059, elapsed: 0.0005099773406982422
ell 1058, elapsed: 0.0005128383636474609
ell 1057, elapsed: 0.0005397796630859375
ell 1056, elapsed: 0.0005240440368652344
ell 1055, elapsed: 0.0005290508270263672
ell 1054, elapsed: 0.0005249977111816406
ell 1053, elapsed: 0.0005259513854980469
ell 1052, elapsed: 0.0005481243133544922
ell 1051, elapsed: 0.0005290508270263672
ell 1050, elapsed: 0.0005099773406982422
ell 1049, elapsed: 0.0005290508270263672
ell 1048, elapsed: 0.0005412101745605469
ell 1047, elapsed: 0.0005190372467041016
ell 1046, elapsed: 0.0005340576171875
ell 1045, elapsed: 0.0005290508270263672
ell 1044, elapsed: 0.0005280971527099609
ell 1043, elapsed: 0.0005331039428710938
ell 1042, elapsed: 0.0005300045013427734
ell 1041, elapsed: 0.0005369186401367188
ell 1040, elapsed: 0.00051116943359375
ell 1039, elapsed: 0.0005278587341308594
ell 1038, elapsed: 0.0005280971527099609
ell 1037, elapsed: 0.000514984130859375
ell 1036, elapsed: 0.0007860660552978516
ell 1035, elapsed: 0.00047397613525390625
ell 1034, elapsed: 0.0004398822784423828
ell 1033, elapsed: 0.0004401206970214844
ell 1032, elapsed: 0.0004379749298095703
ell 1031, elapsed: 0.00043582916259765625
ell 1030, elapsed: 0.00043702125549316406
ell 1029, elapsed: 0.00044989585876464844
ell 1028, elapsed: 0.00043892860412597656
ell 1027, elapsed: 0.0004379749298095703
ell 1026, elapsed: 0.00043702125549316406
ell 1025, elapsed: 0.0004398822784423828
ell 1024, elapsed: 0.0004398822784423828
ell 1023, elapsed: 0.00047397613525390625
ell 1022, elapsed: 0.0004570484161376953
ell 1021, elapsed: 0.00045013427734375
ell 1020, elapsed: 0.000453948974609375
ell 1019, elapsed: 0.0004520416259765625
ell 1018, elapsed: 0.00043892860412597656
ell 1017, elapsed: 0.0004379749298095703
ell 1016, elapsed: 0.0004451274871826172
ell 1015, elapsed: 0.0004589557647705078
ell 1014, elapsed: 0.0004379749298095703
ell 1013, elapsed: 0.0004401206970214844
ell 1012, elapsed: 0.00043511390686035156
ell 1011, elapsed: 0.0004360675811767578
ell 1010, elapsed: 0.0007808208465576172
ell 1009, elapsed: 0.00047278404235839844
ell 1008, elapsed: 0.0004429817199707031
ell 1007, elapsed: 0.0004379749298095703
ell 1006, elapsed: 0.0004382133483886719
ell 1005, elapsed: 0.0004658699035644531
ell 1004, elapsed: 0.0004730224609375
ell 1003, elapsed: 0.00043892860412597656
ell 1002, elapsed: 0.00043892860412597656
ell 1001, elapsed: 0.0004360675811767578
ell 1000, elapsed: 0.00043892860412597656
ell 999, elapsed: 0.00043487548828125
ell 998, elapsed: 0.0004410743713378906
ell 997, elapsed: 0.000453948974609375
ell 996, elapsed: 0.0004391670227050781
ell 995, elapsed: 0.0004558563232421875
ell 994, elapsed: 0.0004391670227050781
ell 993, elapsed: 0.0004570484161376953
ell 992, elapsed: 0.0004382133483886719
ell 991, elapsed: 0.0004649162292480469
ell 990, elapsed: 0.00043702125549316406
ell 989, elapsed: 0.0004520416259765625
ell 988, elapsed: 0.0004401206970214844
ell 987, elapsed: 0.00043702125549316406
ell 986, elapsed: 0.0004379749298095703
ell 985, elapsed: 0.00044608116149902344
ell 984, elapsed: 0.0005481243133544922
ell 983, elapsed: 0.0005230903625488281
ell 982, elapsed: 0.0005140304565429688
ell 981, elapsed: 0.0005190372467041016
ell 980, elapsed: 0.0004971027374267578
ell 979, elapsed: 0.0005230903625488281
ell 978, elapsed: 0.0005340576171875
ell 977, elapsed: 0.0005121231079101562
ell 976, elapsed: 0.0005168914794921875
ell 975, elapsed: 0.0005159378051757812
ell 974, elapsed: 0.0005609989166259766
ell 973, elapsed: 0.0005068778991699219
ell 972, elapsed: 0.00051116943359375
ell 971, elapsed: 0.0005199909210205078
ell 970, elapsed: 0.0005130767822265625
ell 969, elapsed: 0.0004928112030029297
ell 968, elapsed: 0.0005280971527099609
ell 967, elapsed: 0.0005140304565429688
ell 966, elapsed: 0.0005118846893310547
ell 965, elapsed: 0.0005128383636474609
ell 964, elapsed: 0.000514984130859375
ell 963, elapsed: 0.0005071163177490234
ell 962, elapsed: 0.0005140304565429688
ell 961, elapsed: 0.000514984130859375
ell 960, elapsed: 0.0005140304565429688
ell 959, elapsed: 0.0005440711975097656
ell 958, elapsed: 0.0005230903625488281
ell 957, elapsed: 0.0005199909210205078
ell 956, elapsed: 0.0005440711975097656
ell 955, elapsed: 0.0005130767822265625
ell 954, elapsed: 0.000514984130859375
ell 953, elapsed: 0.0005140304565429688
ell 952, elapsed: 0.0005419254302978516
ell 951, elapsed: 0.0005161762237548828
ell 950, elapsed: 0.000514984130859375
ell 949, elapsed: 0.0005130767822265625
ell 948, elapsed: 0.0005238056182861328
ell 947, elapsed: 0.0005290508270263672
ell 946, elapsed: 0.000514984130859375
ell 945, elapsed: 0.0005190372467041016
ell 944, elapsed: 0.0005159378051757812
ell 943, elapsed: 0.0005171298980712891
ell 942, elapsed: 0.0005159378051757812
ell 941, elapsed: 0.0005130767822265625
ell 940, elapsed: 0.0005140304565429688
ell 939, elapsed: 0.0005140304565429688
ell 938, elapsed: 0.0004990100860595703
ell 937, elapsed: 0.0005118846893310547
ell 936, elapsed: 0.0005159378051757812
ell 935, elapsed: 0.0005390644073486328
ell 934, elapsed: 0.0005347728729248047
ell 933, elapsed: 0.0005171298980712891
ell 932, elapsed: 0.0005171298980712891
ell 931, elapsed: 0.0004990100860595703
ell 930, elapsed: 0.0005240440368652344
ell 929, elapsed: 0.0005178451538085938
ell 928, elapsed: 0.0005159378051757812
ell 927, elapsed: 0.0005159378051757812
ell 926, elapsed: 0.0005152225494384766
ell 925, elapsed: 0.0005240440368652344
ell 924, elapsed: 0.0005180835723876953
ell 923, elapsed: 0.0005171298980712891
ell 922, elapsed: 0.000514984130859375
ell 921, elapsed: 0.0005209445953369141
ell 920, elapsed: 0.0004949569702148438
ell 919, elapsed: 0.0005300045013427734
ell 918, elapsed: 0.0004951953887939453
ell 917, elapsed: 0.0005159378051757812
ell 916, elapsed: 0.0005161762237548828
ell 915, elapsed: 0.0005171298980712891
ell 914, elapsed: 0.0005278587341308594
ell 913, elapsed: 0.0005280971527099609
ell 912, elapsed: 0.0005099773406982422
ell 911, elapsed: 0.0005199909210205078
ell 910, elapsed: 0.0005400180816650391
ell 909, elapsed: 0.0005190372467041016
ell 908, elapsed: 0.0004980564117431641
ell 907, elapsed: 0.000514984130859375
ell 906, elapsed: 0.0005159378051757812
ell 905, elapsed: 0.0005140304565429688
ell 904, elapsed: 0.0005152225494384766
ell 903, elapsed: 0.0005259513854980469
ell 902, elapsed: 0.0005249977111816406
ell 901, elapsed: 0.0005190372467041016
ell 900, elapsed: 0.0005280971527099609
ell 899, elapsed: 0.0005269050598144531
ell 898, elapsed: 0.0005130767822265625
ell 897, elapsed: 0.00051116943359375
ell 896, elapsed: 0.0005190372467041016
ell 895, elapsed: 0.0005118846893310547
ell 894, elapsed: 0.000514984130859375
ell 893, elapsed: 0.0005099773406982422
ell 892, elapsed: 0.0005278587341308594
ell 891, elapsed: 0.0005300045013427734
ell 890, elapsed: 0.0005259513854980469
ell 889, elapsed: 0.0005259513854980469
ell 888, elapsed: 0.0005269050598144531
ell 887, elapsed: 0.0005259513854980469
ell 886, elapsed: 0.0005309581756591797
ell 885, elapsed: 0.0005290508270263672
ell 884, elapsed: 0.0005741119384765625
ell 883, elapsed: 0.0005090236663818359
ell 882, elapsed: 0.0005309581756591797
ell 881, elapsed: 0.0005240440368652344
ell 880, elapsed: 0.00051116943359375
ell 879, elapsed: 0.0005118846893310547
ell 878, elapsed: 0.000514984130859375
ell 877, elapsed: 0.0005159378051757812
ell 876, elapsed: 0.0005469322204589844
ell 875, elapsed: 0.0005271434783935547
ell 874, elapsed: 0.0005168914794921875
ell 873, elapsed: 0.0005259513854980469
ell 872, elapsed: 0.0005300045013427734
ell 871, elapsed: 0.0005259513854980469
ell 870, elapsed: 0.0005400180816650391
ell 869, elapsed: 0.0005288124084472656
ell 868, elapsed: 0.000514984130859375
ell 867, elapsed: 0.0005240440368652344
ell 866, elapsed: 0.0005137920379638672
ell 865, elapsed: 0.0005249977111816406
ell 864, elapsed: 0.0005290508270263672
ell 863, elapsed: 0.0005261898040771484
ell 862, elapsed: 0.0005271434783935547
ell 861, elapsed: 0.0005128383636474609
ell 860, elapsed: 0.0005328655242919922
ell 859, elapsed: 0.0005519390106201172
ell 858, elapsed: 0.0005300045013427734
ell 857, elapsed: 0.0005319118499755859
ell 856, elapsed: 0.0005259513854980469
ell 855, elapsed: 0.0005300045013427734
ell 854, elapsed: 0.0005249977111816406
ell 853, elapsed: 0.0005280971527099609
ell 852, elapsed: 0.0005249977111816406
ell 851, elapsed: 0.0005280971527099609
ell 850, elapsed: 0.0005300045013427734
ell 849, elapsed: 0.0005440711975097656
ell 848, elapsed: 0.0005130767822265625
ell 847, elapsed: 0.0005178451538085938
ell 846, elapsed: 0.0005259513854980469
ell 845, elapsed: 0.0005290508270263672
ell 844, elapsed: 0.0005159378051757812
ell 843, elapsed: 0.0005259513854980469
ell 842, elapsed: 0.0005269050598144531
ell 841, elapsed: 0.0005161762237548828
ell 840, elapsed: 0.000514984130859375
ell 839, elapsed: 0.0005331039428710938
ell 838, elapsed: 0.0005381107330322266
ell 837, elapsed: 0.0005180835723876953
ell 836, elapsed: 0.000514984130859375
ell 835, elapsed: 0.0005469322204589844
ell 834, elapsed: 0.0005311965942382812
ell 833, elapsed: 0.000514984130859375
ell 832, elapsed: 0.0005209445953369141
ell 831, elapsed: 0.0005140304565429688
ell 830, elapsed: 0.0005190372467041016
ell 829, elapsed: 0.0005249977111816406
ell 828, elapsed: 0.0005249977111816406
ell 827, elapsed: 0.0005259513854980469
ell 826, elapsed: 0.000514984130859375
ell 825, elapsed: 0.0005438327789306641
ell 824, elapsed: 0.0005278587341308594
ell 823, elapsed: 0.0005249977111816406
ell 822, elapsed: 0.0005300045013427734
ell 821, elapsed: 0.0005431175231933594
ell 820, elapsed: 0.0005309581756591797
ell 819, elapsed: 0.0005400180816650391
ell 818, elapsed: 0.0005300045013427734
ell 817, elapsed: 0.0005321502685546875
ell 816, elapsed: 0.0005290508270263672
ell 815, elapsed: 0.0005278587341308594
ell 814, elapsed: 0.0005309581756591797
ell 813, elapsed: 0.0005118846893310547
ell 812, elapsed: 0.0005300045013427734
ell 811, elapsed: 0.0005519390106201172
ell 810, elapsed: 0.0005578994750976562
ell 809, elapsed: 0.0005278587341308594
ell 808, elapsed: 0.0005171298980712891
ell 807, elapsed: 0.0005168914794921875
ell 806, elapsed: 0.000514984130859375
ell 805, elapsed: 0.0005199909210205078
ell 804, elapsed: 0.0005269050598144531
ell 803, elapsed: 0.000514984130859375
ell 802, elapsed: 0.0005288124084472656
ell 801, elapsed: 0.0005259513854980469
ell 800, elapsed: 0.0005428791046142578
ell 799, elapsed: 0.0005140304565429688
ell 798, elapsed: 0.0005128383636474609
ell 797, elapsed: 0.0005199909210205078
ell 796, elapsed: 0.0005190372467041016
ell 795, elapsed: 0.0005328655242919922
ell 794, elapsed: 0.0005271434783935547
ell 793, elapsed: 0.0005140304565429688
ell 792, elapsed: 0.0005300045013427734
ell 791, elapsed: 0.0005300045013427734
ell 790, elapsed: 0.0005190372467041016
ell 789, elapsed: 0.0005259513854980469
ell 788, elapsed: 0.0005290508270263672
ell 787, elapsed: 0.0005130767822265625
ell 786, elapsed: 0.00051116943359375
ell 785, elapsed: 0.0005280971527099609
ell 784, elapsed: 0.0006489753723144531
ell 783, elapsed: 0.0004589557647705078
ell 782, elapsed: 0.0004429817199707031
ell 781, elapsed: 0.0004391670227050781
ell 780, elapsed: 0.00044417381286621094
ell 779, elapsed: 0.0004429817199707031
ell 778, elapsed: 0.0004570484161376953
ell 777, elapsed: 0.0004451274871826172
ell 776, elapsed: 0.0004391670227050781
ell 775, elapsed: 0.0004420280456542969
ell 774, elapsed: 0.0004429817199707031
ell 773, elapsed: 0.0004429817199707031
ell 772, elapsed: 0.00044798851013183594
ell 771, elapsed: 0.0004379749298095703
ell 770, elapsed: 0.00044417381286621094
ell 769, elapsed: 0.00043892860412597656
ell 768, elapsed: 0.00043892860412597656
ell 767, elapsed: 0.0004379749298095703
ell 766, elapsed: 0.0004379749298095703
ell 765, elapsed: 0.000453948974609375
ell 764, elapsed: 0.00045299530029296875
ell 763, elapsed: 0.00043892860412597656
ell 762, elapsed: 0.0004410743713378906
ell 761, elapsed: 0.0004360675811767578
ell 760, elapsed: 0.0004420280456542969
ell 759, elapsed: 0.0006871223449707031
ell 758, elapsed: 0.0004699230194091797
ell 757, elapsed: 0.00045800209045410156
ell 756, elapsed: 0.0004410743713378906
ell 755, elapsed: 0.00043892860412597656
ell 754, elapsed: 0.0004642009735107422
ell 753, elapsed: 0.00046896934509277344
ell 752, elapsed: 0.0004360675811767578
ell 751, elapsed: 0.0004439353942871094
ell 750, elapsed: 0.0004489421844482422
ell 749, elapsed: 0.00043511390686035156
ell 748, elapsed: 0.00044417381286621094
ell 747, elapsed: 0.00045180320739746094
ell 746, elapsed: 0.0004470348358154297
ell 745, elapsed: 0.0004379749298095703
ell 744, elapsed: 0.00045013427734375
ell 743, elapsed: 0.0004401206970214844
ell 742, elapsed: 0.0004401206970214844
ell 741, elapsed: 0.0004520416259765625
ell 740, elapsed: 0.0004410743713378906
ell 739, elapsed: 0.00043892860412597656
ell 738, elapsed: 0.0004398822784423828
ell 737, elapsed: 0.0004429817199707031
ell 736, elapsed: 0.0004420280456542969
ell 735, elapsed: 0.00045108795166015625
ell 734, elapsed: 0.0005178451538085938
ell 733, elapsed: 0.0005261898040771484
ell 732, elapsed: 0.0005190372467041016
ell 731, elapsed: 0.0005190372467041016
ell 730, elapsed: 0.0005021095275878906
ell 729, elapsed: 0.0005190372467041016
ell 728, elapsed: 0.0005278587341308594
ell 727, elapsed: 0.0005331039428710938
ell 726, elapsed: 0.0005319118499755859
ell 725, elapsed: 0.0005311965942382812
ell 724, elapsed: 0.0005249977111816406
ell 723, elapsed: 0.0005300045013427734
ell 722, elapsed: 0.0005190372467041016
ell 721, elapsed: 0.0005338191986083984
ell 720, elapsed: 0.0005290508270263672
ell 719, elapsed: 0.0005300045013427734
ell 718, elapsed: 0.0005161762237548828
ell 717, elapsed: 0.0004980564117431641
ell 716, elapsed: 0.0004990100860595703
ell 715, elapsed: 0.0005180835723876953
ell 714, elapsed: 0.0005159378051757812
ell 713, elapsed: 0.0005240440368652344
ell 712, elapsed: 0.0005159378051757812
ell 711, elapsed: 0.0005331039428710938
ell 710, elapsed: 0.0005288124084472656
ell 709, elapsed: 0.0005488395690917969
ell 708, elapsed: 0.0005300045013427734
ell 707, elapsed: 0.0004999637603759766
ell 706, elapsed: 0.0005218982696533203
ell 705, elapsed: 0.0005331039428710938
ell 704, elapsed: 0.0005450248718261719
ell 703, elapsed: 0.0005331039428710938
ell 702, elapsed: 0.0005309581756591797
ell 701, elapsed: 0.0005350112915039062
ell 700, elapsed: 0.0005321502685546875
ell 699, elapsed: 0.0005519390106201172
ell 698, elapsed: 0.0005350112915039062
ell 697, elapsed: 0.0005340576171875
ell 696, elapsed: 0.000514984130859375
ell 695, elapsed: 0.0005180835723876953
ell 694, elapsed: 0.0005340576171875
ell 693, elapsed: 0.0005300045013427734
ell 692, elapsed: 0.0005238056182861328
ell 691, elapsed: 0.0005359649658203125
ell 690, elapsed: 0.0005161762237548828
ell 689, elapsed: 0.0005030632019042969
ell 688, elapsed: 0.0005199909210205078
ell 687, elapsed: 0.0005140304565429688
ell 686, elapsed: 0.0005469322204589844
ell 685, elapsed: 0.0004420280456542969
ell 684, elapsed: 0.00043702125549316406
ell 683, elapsed: 0.0006120204925537109
ell 682, elapsed: 0.00047707557678222656
ell 681, elapsed: 0.0003859996795654297
ell 680, elapsed: 0.0003840923309326172
ell 679, elapsed: 0.00038504600524902344
ell 678, elapsed: 0.0003960132598876953
ell 677, elapsed: 0.00038504600524902344
ell 676, elapsed: 0.000392913818359375
ell 675, elapsed: 0.0003829002380371094
ell 674, elapsed: 0.0003838539123535156
ell 673, elapsed: 0.0003829002380371094
ell 672, elapsed: 0.00038695335388183594
ell 671, elapsed: 0.0003819465637207031
ell 670, elapsed: 0.0003800392150878906
ell 669, elapsed: 0.0003840923309326172
ell 668, elapsed: 0.00039505958557128906
ell 667, elapsed: 0.0003859996795654297
ell 666, elapsed: 0.0003821849822998047
ell 665, elapsed: 0.00038695335388183594
ell 664, elapsed: 0.0003800392150878906
ell 663, elapsed: 0.00038504600524902344
ell 662, elapsed: 0.0003859996795654297
ell 661, elapsed: 0.0003859996795654297
ell 660, elapsed: 0.0003859996795654297
ell 659, elapsed: 0.0003840923309326172
ell 658, elapsed: 0.00039696693420410156
ell 657, elapsed: 0.00038504600524902344
ell 656, elapsed: 0.00038313865661621094
ell 655, elapsed: 0.0003859996795654297
ell 654, elapsed: 0.0003809928894042969
ell 653, elapsed: 0.0003840923309326172
ell 652, elapsed: 0.00038504600524902344
ell 651, elapsed: 0.00038695335388183594
ell 650, elapsed: 0.00038695335388183594
ell 649, elapsed: 0.00039386749267578125
ell 648, elapsed: 0.0003819465637207031
ell 647, elapsed: 0.0005769729614257812
ell 646, elapsed: 0.0005500316619873047
ell 645, elapsed: 0.0004417896270751953
ell 644, elapsed: 0.0004999637603759766
ell 643, elapsed: 0.0004949569702148438
ell 642, elapsed: 0.0005249977111816406
ell 641, elapsed: 0.0005118846893310547
ell 640, elapsed: 0.0005381107330322266
ell 639, elapsed: 0.0005319118499755859
ell 638, elapsed: 0.0005340576171875
ell 637, elapsed: 0.0005409717559814453
ell 636, elapsed: 0.0005190372467041016
ell 635, elapsed: 0.0005180835723876953
ell 634, elapsed: 0.0005309581756591797
ell 633, elapsed: 0.0005328655242919922
ell 632, elapsed: 0.0005340576171875
ell 631, elapsed: 0.0005130767822265625
ell 630, elapsed: 0.00046896934509277344
ell 629, elapsed: 0.00045299530029296875
ell 628, elapsed: 0.0004448890686035156
ell 627, elapsed: 0.0004429817199707031
ell 626, elapsed: 0.0004420280456542969
ell 625, elapsed: 0.000453948974609375
ell 624, elapsed: 0.00043702125549316406
ell 623, elapsed: 0.00045990943908691406
ell 622, elapsed: 0.00044417381286621094
ell 621, elapsed: 0.0005619525909423828
ell 620, elapsed: 0.0005259513854980469
ell 619, elapsed: 0.0005168914794921875
ell 618, elapsed: 0.0005340576171875
ell 617, elapsed: 0.0005118846893310547
ell 616, elapsed: 0.0005140304565429688
ell 615, elapsed: 0.0005309581756591797
ell 614, elapsed: 0.0005350112915039062
ell 613, elapsed: 0.0005319118499755859
ell 612, elapsed: 0.0005300045013427734
ell 611, elapsed: 0.0005159378051757812
ell 610, elapsed: 0.0005288124084472656
ell 609, elapsed: 0.0005152225494384766
ell 608, elapsed: 0.0005159378051757812
ell 607, elapsed: 0.0005311965942382812
ell 606, elapsed: 0.0005159378051757812
ell 605, elapsed: 0.0005309581756591797
ell 604, elapsed: 0.0005080699920654297
ell 603, elapsed: 0.0005500316619873047
ell 602, elapsed: 0.0005140304565429688
ell 601, elapsed: 0.000514984130859375
ell 600, elapsed: 0.0005128383636474609
ell 599, elapsed: 0.0005159378051757812
ell 598, elapsed: 0.000553131103515625
ell 597, elapsed: 0.0005140304565429688
ell 596, elapsed: 0.0005750656127929688
ell 595, elapsed: 0.0005309581756591797
ell 594, elapsed: 0.0005128383636474609
ell 593, elapsed: 0.0005309581756591797
ell 592, elapsed: 0.0005218982696533203
ell 591, elapsed: 0.0005331039428710938
ell 590, elapsed: 0.0005109310150146484
ell 589, elapsed: 0.0005309581756591797
ell 588, elapsed: 0.0005309581756591797
ell 587, elapsed: 0.0005362033843994141
ell 586, elapsed: 0.0005140304565429688
ell 585, elapsed: 0.000537872314453125
ell 584, elapsed: 0.0005300045013427734
ell 583, elapsed: 0.0005311965942382812
ell 582, elapsed: 0.0005278587341308594
ell 581, elapsed: 0.0005350112915039062
ell 580, elapsed: 0.0005290508270263672
ell 579, elapsed: 0.0005331039428710938
ell 578, elapsed: 0.0005340576171875
ell 577, elapsed: 0.0005269050598144531
ell 576, elapsed: 0.0005419254302978516
ell 575, elapsed: 0.0005280971527099609
ell 574, elapsed: 0.0005311965942382812
ell 573, elapsed: 0.0005259513854980469
ell 572, elapsed: 0.0005331039428710938
ell 571, elapsed: 0.0006082057952880859
ell 570, elapsed: 0.0005328655242919922
ell 569, elapsed: 0.0005319118499755859
ell 568, elapsed: 0.0005159378051757812
ell 567, elapsed: 0.0005249977111816406
ell 566, elapsed: 0.0005288124084472656
ell 565, elapsed: 0.0005249977111816406
ell 564, elapsed: 0.0005218982696533203
ell 563, elapsed: 0.0005221366882324219
ell 562, elapsed: 0.0005309581756591797
ell 561, elapsed: 0.0005168914794921875
ell 560, elapsed: 0.0005249977111816406
ell 559, elapsed: 0.0005271434783935547
ell 558, elapsed: 0.0005300045013427734
ell 557, elapsed: 0.0005259513854980469
ell 556, elapsed: 0.0005300045013427734
ell 555, elapsed: 0.0005130767822265625
ell 554, elapsed: 0.0004889965057373047
ell 553, elapsed: 0.00045800209045410156
ell 552, elapsed: 0.0004448890686035156
ell 551, elapsed: 0.0004630088806152344
ell 550, elapsed: 0.00046181678771972656
ell 549, elapsed: 0.00045990943908691406
ell 548, elapsed: 0.0004620552062988281
ell 547, elapsed: 0.0004570484161376953
ell 546, elapsed: 0.00043392181396484375
ell 545, elapsed: 0.000431060791015625
ell 544, elapsed: 0.0005311965942382812
ell 543, elapsed: 0.0005919933319091797
ell 542, elapsed: 0.00038504600524902344
ell 541, elapsed: 0.0003819465637207031
ell 540, elapsed: 0.0003788471221923828
ell 539, elapsed: 0.00039505958557128906
ell 538, elapsed: 0.000392913818359375
ell 537, elapsed: 0.0003848075866699219
ell 536, elapsed: 0.0003809928894042969
ell 535, elapsed: 0.00038313865661621094
ell 534, elapsed: 0.0003838539123535156
ell 533, elapsed: 0.0003838539123535156
ell 532, elapsed: 0.0003838539123535156
ell 531, elapsed: 0.00038504600524902344
ell 530, elapsed: 0.0003800392150878906
ell 529, elapsed: 0.00039696693420410156
ell 528, elapsed: 0.0003809928894042969
ell 527, elapsed: 0.0003859996795654297
ell 526, elapsed: 0.0003840923309326172
ell 525, elapsed: 0.00038504600524902344
ell 524, elapsed: 0.00038504600524902344
ell 523, elapsed: 0.00038504600524902344
ell 522, elapsed: 0.00038695335388183594
ell 521, elapsed: 0.0003840923309326172
ell 520, elapsed: 0.0003809928894042969
ell 519, elapsed: 0.0003960132598876953
ell 518, elapsed: 0.0003848075866699219
ell 517, elapsed: 0.0003859996795654297
ell 516, elapsed: 0.0003848075866699219
ell 515, elapsed: 0.0003819465637207031
ell 514, elapsed: 0.0003829002380371094
ell 513, elapsed: 0.00038695335388183594
ell 512, elapsed: 0.00038695335388183594
ell 511, elapsed: 0.0003829002380371094
ell 510, elapsed: 0.0003910064697265625
ell 509, elapsed: 0.0003910064697265625
ell 508, elapsed: 0.00037980079650878906
ell 507, elapsed: 0.0004889965057373047
ell 506, elapsed: 0.00043702125549316406
ell 505, elapsed: 0.0004360675811767578
ell 504, elapsed: 0.00043702125549316406
ell 503, elapsed: 0.00043010711669921875
ell 502, elapsed: 0.00043487548828125
ell 501, elapsed: 0.00043201446533203125
ell 500, elapsed: 0.00043892860412597656
ell 499, elapsed: 0.00043392181396484375
ell 498, elapsed: 0.00043511390686035156
ell 497, elapsed: 0.0004379749298095703
ell 496, elapsed: 0.00043511390686035156
ell 495, elapsed: 0.0004379749298095703
ell 494, elapsed: 0.00043702125549316406
ell 493, elapsed: 0.00043201446533203125
ell 492, elapsed: 0.0004508495330810547
ell 491, elapsed: 0.00043392181396484375
ell 490, elapsed: 0.0004401206970214844
ell 489, elapsed: 0.00043582916259765625
ell 488, elapsed: 0.0004379749298095703
ell 487, elapsed: 0.0004329681396484375
ell 486, elapsed: 0.00043487548828125
ell 485, elapsed: 0.0004379749298095703
ell 484, elapsed: 0.00043487548828125
ell 483, elapsed: 0.0004470348358154297
ell 482, elapsed: 0.0004329681396484375
ell 481, elapsed: 0.0004379749298095703
ell 480, elapsed: 0.0004360675811767578
ell 479, elapsed: 0.0004367828369140625
ell 478, elapsed: 0.00043582916259765625
ell 477, elapsed: 0.00043487548828125
ell 476, elapsed: 0.00043511390686035156
ell 475, elapsed: 0.0004520416259765625
ell 474, elapsed: 0.0004329681396484375
ell 473, elapsed: 0.0004379749298095703
ell 472, elapsed: 0.00043392181396484375
ell 471, elapsed: 0.0004940032958984375
ell 470, elapsed: 0.0006330013275146484
ell 469, elapsed: 0.0003840923309326172
ell 468, elapsed: 0.00038909912109375
ell 467, elapsed: 0.0003840923309326172
ell 466, elapsed: 0.00040411949157714844
ell 465, elapsed: 0.0003871917724609375
ell 464, elapsed: 0.0003819465637207031
ell 463, elapsed: 0.00038695335388183594
ell 462, elapsed: 0.0003821849822998047
ell 461, elapsed: 0.0003840923309326172
ell 460, elapsed: 0.00038504600524902344
ell 459, elapsed: 0.0003848075866699219
ell 458, elapsed: 0.0003879070281982422
ell 457, elapsed: 0.00039315223693847656
ell 456, elapsed: 0.00038504600524902344
ell 455, elapsed: 0.0003840923309326172
ell 454, elapsed: 0.0003809928894042969
ell 453, elapsed: 0.00039005279541015625
ell 452, elapsed: 0.0003859996795654297
ell 451, elapsed: 0.0003840923309326172
ell 450, elapsed: 0.0003871917724609375
ell 449, elapsed: 0.0003821849822998047
ell 448, elapsed: 0.0003840923309326172
ell 447, elapsed: 0.00039505958557128906
ell 446, elapsed: 0.00039005279541015625
ell 445, elapsed: 0.0003838539123535156
ell 444, elapsed: 0.0003829002380371094
ell 443, elapsed: 0.0003859996795654297
ell 442, elapsed: 0.0003838539123535156
ell 441, elapsed: 0.00038886070251464844
ell 440, elapsed: 0.00038504600524902344
ell 439, elapsed: 0.00038313865661621094
ell 438, elapsed: 0.00038909912109375
ell 437, elapsed: 0.0003921985626220703
ell 436, elapsed: 0.0003879070281982422
ell 435, elapsed: 0.00037598609924316406
ell 434, elapsed: 0.00048804283142089844
ell 433, elapsed: 0.00043702125549316406
ell 432, elapsed: 0.00043487548828125
ell 431, elapsed: 0.0004379749298095703
ell 430, elapsed: 0.0004329681396484375
ell 429, elapsed: 0.00043511390686035156
ell 428, elapsed: 0.00045108795166015625
ell 427, elapsed: 0.0004317760467529297
ell 426, elapsed: 0.0004379749298095703
ell 425, elapsed: 0.00043392181396484375
ell 424, elapsed: 0.0004391670227050781
ell 423, elapsed: 0.000431060791015625
ell 422, elapsed: 0.00043392181396484375
ell 421, elapsed: 0.00043582916259765625
ell 420, elapsed: 0.00044608116149902344
ell 419, elapsed: 0.0004410743713378906
ell 418, elapsed: 0.0004329681396484375
ell 417, elapsed: 0.0004329681396484375
ell 416, elapsed: 0.00043392181396484375
ell 415, elapsed: 0.00043487548828125
ell 414, elapsed: 0.00043702125549316406
ell 413, elapsed: 0.00043487548828125
ell 412, elapsed: 0.00043392181396484375
ell 411, elapsed: 0.00045013427734375
ell 410, elapsed: 0.00043702125549316406
ell 409, elapsed: 0.00043582916259765625
ell 408, elapsed: 0.00043201446533203125
ell 407, elapsed: 0.0004379749298095703
ell 406, elapsed: 0.00043892860412597656
ell 405, elapsed: 0.00043892860412597656
ell 404, elapsed: 0.00043511390686035156
ell 403, elapsed: 0.00043392181396484375
ell 402, elapsed: 0.00044417381286621094
ell 401, elapsed: 0.0004360675811767578
ell 400, elapsed: 0.00043487548828125
ell 399, elapsed: 0.0004382133483886719
ell 398, elapsed: 0.0005769729614257812
ell 397, elapsed: 0.0005199909210205078
ell 396, elapsed: 0.00043320655822753906
ell 395, elapsed: 0.0004570484161376953
ell 394, elapsed: 0.00039315223693847656
ell 393, elapsed: 0.0004069805145263672
ell 392, elapsed: 0.00040793418884277344
ell 391, elapsed: 0.0005519390106201172
ell 390, elapsed: 0.0005130767822265625
ell 389, elapsed: 0.0005459785461425781
ell 388, elapsed: 0.0005230903625488281
ell 387, elapsed: 0.0005269050598144531
ell 386, elapsed: 0.0005209445953369141
ell 385, elapsed: 0.0005249977111816406
ell 384, elapsed: 0.00048089027404785156
ell 383, elapsed: 0.0005230903625488281
ell 382, elapsed: 0.0005238056182861328
ell 381, elapsed: 0.0005221366882324219
ell 380, elapsed: 0.0005052089691162109
ell 379, elapsed: 0.0004968643188476562
ell 378, elapsed: 0.0004961490631103516
ell 377, elapsed: 0.0006039142608642578
ell 376, elapsed: 0.0005581378936767578
ell 375, elapsed: 0.0005879402160644531
ell 374, elapsed: 0.0005431175231933594
ell 373, elapsed: 0.0005390644073486328
ell 372, elapsed: 0.0005409717559814453
ell 371, elapsed: 0.0005359649658203125
ell 370, elapsed: 0.00044608116149902344
ell 369, elapsed: 0.0004317760467529297
ell 368, elapsed: 0.00043487548828125
ell 367, elapsed: 0.00043392181396484375
ell 366, elapsed: 0.00043201446533203125
ell 365, elapsed: 0.00043392181396484375
ell 364, elapsed: 0.00043201446533203125
ell 363, elapsed: 0.0004279613494873047
ell 362, elapsed: 0.0007789134979248047
ell 361, elapsed: 0.0004429817199707031
ell 360, elapsed: 0.0004360675811767578
ell 359, elapsed: 0.0004341602325439453
ell 358, elapsed: 0.0004279613494873047
ell 357, elapsed: 0.00043201446533203125
ell 356, elapsed: 0.000431060791015625
ell 355, elapsed: 0.0004379749298095703
ell 354, elapsed: 0.0007729530334472656
ell 353, elapsed: 0.0005431175231933594
ell 352, elapsed: 0.0005390644073486328
ell 351, elapsed: 0.0005469322204589844
ell 350, elapsed: 0.0004730224609375
ell 349, elapsed: 0.00043702125549316406
ell 348, elapsed: 0.000431060791015625
ell 347, elapsed: 0.0004329681396484375
ell 346, elapsed: 0.0004329681396484375
ell 345, elapsed: 0.00043392181396484375
ell 344, elapsed: 0.000431060791015625
ell 343, elapsed: 0.00043201446533203125
ell 342, elapsed: 0.0004279613494873047
ell 341, elapsed: 0.000453948974609375
ell 340, elapsed: 0.0004379749298095703
ell 339, elapsed: 0.0004360675811767578
ell 338, elapsed: 0.0004410743713378906
ell 337, elapsed: 0.0004360675811767578
ell 336, elapsed: 0.0004329681396484375
ell 335, elapsed: 0.0004379749298095703
ell 334, elapsed: 0.00043392181396484375
ell 333, elapsed: 0.0005090236663818359
ell 332, elapsed: 0.00044417381286621094
ell 331, elapsed: 0.00043702125549316406
ell 330, elapsed: 0.0004360675811767578
ell 329, elapsed: 0.00043320655822753906
ell 328, elapsed: 0.00043892860412597656
ell 327, elapsed: 0.00043392181396484375
ell 326, elapsed: 0.00043010711669921875
ell 325, elapsed: 0.0004470348358154297
ell 324, elapsed: 0.00043487548828125
ell 323, elapsed: 0.00043320655822753906
ell 322, elapsed: 0.00043487548828125
ell 321, elapsed: 0.000431060791015625
ell 320, elapsed: 0.00043487548828125
ell 319, elapsed: 0.0004360675811767578
ell 318, elapsed: 0.00043702125549316406
ell 317, elapsed: 0.00043702125549316406
ell 316, elapsed: 0.0004329681396484375
ell 315, elapsed: 0.0006909370422363281
ell 314, elapsed: 0.0004100799560546875
ell 313, elapsed: 0.0003819465637207031
ell 312, elapsed: 0.0003819465637207031
ell 311, elapsed: 0.0003788471221923828
ell 310, elapsed: 0.0003819465637207031
ell 309, elapsed: 0.0003769397735595703
ell 308, elapsed: 0.0004699230194091797
ell 307, elapsed: 0.0003809928894042969
ell 306, elapsed: 0.0003819465637207031
ell 305, elapsed: 0.0003819465637207031
ell 304, elapsed: 0.0003809928894042969
ell 303, elapsed: 0.0003819465637207031
ell 302, elapsed: 0.0003829002380371094
ell 301, elapsed: 0.0003788471221923828
ell 300, elapsed: 0.0003809928894042969
ell 299, elapsed: 0.0003790855407714844
ell 298, elapsed: 0.00047397613525390625
ell 297, elapsed: 0.00037980079650878906
ell 296, elapsed: 0.0003859996795654297
ell 295, elapsed: 0.0003800392150878906
ell 294, elapsed: 0.0003809928894042969
ell 293, elapsed: 0.0003829002380371094
ell 292, elapsed: 0.0003790855407714844
ell 291, elapsed: 0.0003809928894042969
ell 290, elapsed: 0.0003769397735595703
ell 289, elapsed: 0.00045800209045410156
ell 288, elapsed: 0.00038814544677734375
ell 287, elapsed: 0.0003838539123535156
ell 286, elapsed: 0.0003800392150878906
ell 285, elapsed: 0.0003790855407714844
ell 284, elapsed: 0.0003809928894042969
ell 283, elapsed: 0.0003800392150878906
ell 282, elapsed: 0.0003781318664550781
ell 281, elapsed: 0.0003809928894042969
ell 280, elapsed: 0.00037789344787597656
ell 279, elapsed: 0.0007200241088867188
ell 278, elapsed: 0.0004420280456542969
ell 277, elapsed: 0.0003859996795654297
ell 276, elapsed: 0.0003781318664550781
ell 275, elapsed: 0.00039005279541015625
ell 274, elapsed: 0.00038695335388183594
ell 273, elapsed: 0.00038504600524902344
ell 272, elapsed: 0.0003819465637207031
ell 271, elapsed: 0.0003859996795654297
ell 270, elapsed: 0.00041484832763671875
ell 269, elapsed: 0.00038695335388183594
ell 268, elapsed: 0.0003800392150878906
ell 267, elapsed: 0.00038313865661621094
ell 266, elapsed: 0.0003809928894042969
ell 265, elapsed: 0.0003840923309326172
ell 264, elapsed: 0.0003809928894042969
ell 263, elapsed: 0.0003809928894042969
ell 262, elapsed: 0.0003788471221923828
ell 261, elapsed: 0.0003809928894042969
ell 260, elapsed: 0.00039505958557128906
ell 259, elapsed: 0.0003840923309326172
ell 258, elapsed: 0.0003859996795654297
ell 257, elapsed: 0.0003840923309326172
ell 256, elapsed: 0.0003859996795654297
ell 255, elapsed: 0.0003819465637207031
ell 254, elapsed: 0.00038504600524902344
ell 253, elapsed: 0.0003829002380371094
ell 252, elapsed: 0.00039887428283691406
ell 251, elapsed: 0.000392913818359375
ell 250, elapsed: 0.0003879070281982422
ell 249, elapsed: 0.0003859996795654297
ell 248, elapsed: 0.0003848075866699219
ell 247, elapsed: 0.0003829002380371094
ell 246, elapsed: 0.0003809928894042969
ell 245, elapsed: 0.0003819465637207031
ell 244, elapsed: 0.0003859996795654297
ell 243, elapsed: 0.000408172607421875
ell 242, elapsed: 0.0004799365997314453
ell 241, elapsed: 0.0004429817199707031
ell 240, elapsed: 0.00043892860412597656
ell 239, elapsed: 0.00043201446533203125
ell 238, elapsed: 0.00043392181396484375
ell 237, elapsed: 0.00043582916259765625
ell 236, elapsed: 0.0004329681396484375
ell 235, elapsed: 0.00043320655822753906
ell 234, elapsed: 0.00043702125549316406
ell 233, elapsed: 0.0004439353942871094
ell 232, elapsed: 0.00043511390686035156
ell 231, elapsed: 0.0004279613494873047
ell 230, elapsed: 0.000431060791015625
ell 229, elapsed: 0.00043201446533203125
ell 228, elapsed: 0.00043201446533203125
ell 227, elapsed: 0.0004329681396484375
ell 226, elapsed: 0.00042891502380371094
ell 225, elapsed: 0.0004329681396484375
ell 224, elapsed: 0.00044798851013183594
ell 223, elapsed: 0.00043582916259765625
ell 222, elapsed: 0.0004410743713378906
ell 221, elapsed: 0.0004391670227050781
ell 220, elapsed: 0.0004367828369140625
ell 219, elapsed: 0.00043582916259765625
ell 218, elapsed: 0.0004341602325439453
ell 217, elapsed: 0.00043892860412597656
ell 216, elapsed: 0.00043392181396484375
ell 215, elapsed: 0.0004508495330810547
ell 214, elapsed: 0.00043392181396484375
ell 213, elapsed: 0.00045013427734375
ell 212, elapsed: 0.00043582916259765625
ell 211, elapsed: 0.00043511390686035156
ell 210, elapsed: 0.00043702125549316406
ell 209, elapsed: 0.0004329681396484375
ell 208, elapsed: 0.00043487548828125
ell 207, elapsed: 0.0004589557647705078
ell 206, elapsed: 0.0006389617919921875
ell 205, elapsed: 0.0004851818084716797
ell 204, elapsed: 0.0003829002380371094
ell 203, elapsed: 0.0003840923309326172
ell 202, elapsed: 0.0003859996795654297
ell 201, elapsed: 0.0003819465637207031
ell 200, elapsed: 0.0003819465637207031
ell 199, elapsed: 0.0003848075866699219
ell 198, elapsed: 0.000392913818359375
ell 197, elapsed: 0.0003859996795654297
ell 196, elapsed: 0.0003800392150878906
ell 195, elapsed: 0.00038504600524902344
ell 194, elapsed: 0.0003809928894042969
ell 193, elapsed: 0.0003809928894042969
ell 192, elapsed: 0.0003809928894042969
ell 191, elapsed: 0.00038313865661621094
ell 190, elapsed: 0.0003921985626220703
ell 189, elapsed: 0.0003819465637207031
ell 188, elapsed: 0.00039696693420410156
ell 187, elapsed: 0.0003829002380371094
ell 186, elapsed: 0.00038504600524902344
ell 185, elapsed: 0.0003829002380371094
ell 184, elapsed: 0.00038695335388183594
ell 183, elapsed: 0.00038313865661621094
ell 182, elapsed: 0.0003840923309326172
ell 181, elapsed: 0.0003859996795654297
ell 180, elapsed: 0.0003859996795654297
ell 179, elapsed: 0.0003859996795654297
ell 178, elapsed: 0.0004000663757324219
ell 177, elapsed: 0.0003790855407714844
ell 176, elapsed: 0.0003809928894042969
ell 175, elapsed: 0.0003819465637207031
ell 174, elapsed: 0.0003809928894042969
ell 173, elapsed: 0.00038313865661621094
ell 172, elapsed: 0.00038313865661621094
ell 171, elapsed: 0.0003800392150878906
ell 170, elapsed: 0.00041604042053222656
ell 169, elapsed: 0.00048804283142089844
ell 168, elapsed: 0.0004329681396484375
ell 167, elapsed: 0.00043392181396484375
ell 166, elapsed: 0.0004379749298095703
ell 165, elapsed: 0.0004298686981201172
ell 164, elapsed: 0.00043082237243652344
ell 163, elapsed: 0.00043010711669921875
ell 162, elapsed: 0.000431060791015625
ell 161, elapsed: 0.00043201446533203125
ell 160, elapsed: 0.0004780292510986328
ell 159, elapsed: 0.000431060791015625
ell 158, elapsed: 0.00043201446533203125
ell 157, elapsed: 0.00043487548828125
ell 156, elapsed: 0.00042891502380371094
ell 155, elapsed: 0.00043392181396484375
ell 154, elapsed: 0.0004279613494873047
ell 153, elapsed: 0.00043201446533203125
ell 152, elapsed: 0.00042700767517089844
ell 151, elapsed: 0.00043487548828125
ell 150, elapsed: 0.00042891502380371094
ell 149, elapsed: 0.0004341602325439453
ell 148, elapsed: 0.000431060791015625
ell 147, elapsed: 0.00043201446533203125
ell 146, elapsed: 0.00043201446533203125
ell 145, elapsed: 0.0004329681396484375
ell 144, elapsed: 0.00043010711669921875
ell 143, elapsed: 0.0004420280456542969
ell 142, elapsed: 0.0004279613494873047
ell 141, elapsed: 0.000431060791015625
ell 140, elapsed: 0.0004291534423828125
ell 139, elapsed: 0.00043201446533203125
ell 138, elapsed: 0.00042700767517089844
ell 137, elapsed: 0.0004298686981201172
ell 136, elapsed: 0.00043010711669921875
ell 135, elapsed: 0.00043010711669921875
ell 134, elapsed: 0.00044083595275878906
ell 133, elapsed: 0.00042319297790527344
ell 132, elapsed: 0.00047707557678222656
ell 131, elapsed: 0.00043320655822753906
ell 130, elapsed: 0.00043010711669921875
ell 129, elapsed: 0.00043082237243652344
ell 128, elapsed: 0.00043082237243652344
ell 127, elapsed: 0.000431060791015625
ell 126, elapsed: 0.000431060791015625
ell 125, elapsed: 0.0004420280456542969
ell 124, elapsed: 0.00043010711669921875
ell 123, elapsed: 0.00042700767517089844
ell 122, elapsed: 0.00042891502380371094
ell 121, elapsed: 0.0004329681396484375
ell 120, elapsed: 0.000431060791015625
ell 119, elapsed: 0.00043511390686035156
ell 118, elapsed: 0.00042891502380371094
ell 117, elapsed: 0.0004458427429199219
ell 116, elapsed: 0.0004329681396484375
ell 115, elapsed: 0.0004298686981201172
ell 114, elapsed: 0.0004410743713378906
ell 113, elapsed: 0.00043010711669921875
ell 112, elapsed: 0.00043201446533203125
ell 111, elapsed: 0.000431060791015625
ell 110, elapsed: 0.0004279613494873047
ell 109, elapsed: 0.00043487548828125
ell 108, elapsed: 0.0004417896270751953
ell 107, elapsed: 0.00042700767517089844
ell 106, elapsed: 0.00043010711669921875
ell 105, elapsed: 0.0004298686981201172
ell 104, elapsed: 0.00043010711669921875
ell 103, elapsed: 0.00042891502380371094
ell 102, elapsed: 0.00043082237243652344
ell 101, elapsed: 0.0004279613494873047
ell 100, elapsed: 0.00043082237243652344
ell 99, elapsed: 0.0004467964172363281
ell 98, elapsed: 0.0004291534423828125
ell 97, elapsed: 0.00043487548828125
ell 96, elapsed: 0.0004458427429199219
ell 95, elapsed: 0.0006840229034423828
ell 94, elapsed: 0.0003840923309326172
ell 93, elapsed: 0.0003809928894042969
ell 92, elapsed: 0.00038123130798339844
ell 91, elapsed: 0.0003941059112548828
ell 90, elapsed: 0.0003821849822998047
ell 89, elapsed: 0.0003840923309326172
ell 88, elapsed: 0.0003790855407714844
ell 87, elapsed: 0.0003809928894042969
ell 86, elapsed: 0.0003788471221923828
ell 85, elapsed: 0.0003809928894042969
ell 84, elapsed: 0.0003800392150878906
ell 83, elapsed: 0.0003829002380371094
ell 82, elapsed: 0.0003809928894042969
ell 81, elapsed: 0.0003960132598876953
ell 80, elapsed: 0.0003809928894042969
ell 79, elapsed: 0.0003829002380371094
ell 78, elapsed: 0.0003788471221923828
ell 77, elapsed: 0.00038695335388183594
ell 76, elapsed: 0.0003829002380371094
ell 75, elapsed: 0.0003859996795654297
ell 74, elapsed: 0.0003800392150878906
ell 73, elapsed: 0.0003800392150878906
ell 72, elapsed: 0.00038504600524902344
ell 71, elapsed: 0.0003948211669921875
ell 70, elapsed: 0.00037789344787597656
ell 69, elapsed: 0.0003829002380371094
ell 68, elapsed: 0.00038504600524902344
ell 67, elapsed: 0.00038504600524902344
ell 66, elapsed: 0.0003819465637207031
ell 65, elapsed: 0.0003800392150878906
ell 64, elapsed: 0.00038313865661621094
ell 63, elapsed: 0.0003800392150878906
ell 62, elapsed: 0.00038313865661621094
ell 61, elapsed: 0.0003879070281982422
ell 60, elapsed: 0.0003960132598876953
ell 59, elapsed: 0.0005428791046142578
ell 58, elapsed: 0.0005640983581542969
ell 57, elapsed: 0.0003819465637207031
ell 56, elapsed: 0.0003829002380371094
ell 55, elapsed: 0.0003829002380371094
ell 54, elapsed: 0.0003800392150878906
ell 53, elapsed: 0.0003769397735595703
ell 52, elapsed: 0.0003910064697265625
ell 51, elapsed: 0.0003809928894042969
ell 50, elapsed: 0.00038695335388183594
ell 49, elapsed: 0.0003809928894042969
ell 48, elapsed: 0.00038695335388183594
ell 47, elapsed: 0.0003838539123535156
ell 46, elapsed: 0.0003821849822998047
ell 45, elapsed: 0.0003821849822998047
ell 44, elapsed: 0.00038695335388183594
ell 43, elapsed: 0.0003948211669921875
ell 42, elapsed: 0.0003829002380371094
ell 41, elapsed: 0.0003800392150878906
ell 40, elapsed: 0.00038695335388183594
ell 39, elapsed: 0.00038123130798339844
ell 38, elapsed: 0.00038695335388183594
ell 37, elapsed: 0.0003838539123535156
ell 36, elapsed: 0.0003829002380371094
ell 35, elapsed: 0.00038695335388183594
ell 34, elapsed: 0.0003838539123535156
ell 33, elapsed: 0.0003979206085205078
ell 32, elapsed: 0.0003879070281982422
ell 31, elapsed: 0.0003859996795654297
ell 30, elapsed: 0.00038504600524902344
ell 29, elapsed: 0.0003829002380371094
ell 28, elapsed: 0.00038504600524902344
ell 27, elapsed: 0.00038909912109375
ell 26, elapsed: 0.00038504600524902344
ell 25, elapsed: 0.00038695335388183594
ell 24, elapsed: 0.0003910064697265625
ell 23, elapsed: 0.0004239082336425781
ell 22, elapsed: 0.0004830360412597656
ell 21, elapsed: 0.0004420280456542969
ell 20, elapsed: 0.00043487548828125
ell 19, elapsed: 0.0004410743713378906
ell 18, elapsed: 0.0004379749298095703
ell 17, elapsed: 0.0004410743713378906
ell 16, elapsed: 0.0004379749298095703
ell 15, elapsed: 0.00045299530029296875
ell 14, elapsed: 0.0004329681396484375
ell 13, elapsed: 0.00043892860412597656
ell 12, elapsed: 0.00043392181396484375
ell 11, elapsed: 0.0004391670227050781
ell 10, elapsed: 0.0004379749298095703
ell 9, elapsed: 0.00043511390686035156
ell 8, elapsed: 0.00044083595275878906
ell 7, elapsed: 0.0004379749298095703
ell 6, elapsed: 0.00044989585876464844
ell 5, elapsed: 0.0004410743713378906
ell 4, elapsed: 0.00043511390686035156
ell 3, elapsed: 0.0004360675811767578
ell 2, elapsed: 0.0004379749298095703
ell 1, elapsed: 0.00043702125549316406
ell 0, elapsed: 0.0004382133483886719
  0.744575 seconds (46.03 k allocations: 3.091 MiB)
elapsed: 0.0005300045013427734
step:          0.062367 sec (0 allocations: 0 byte, 0.0% gc time)
swapping:      0.00061 sec (0 allocations: 0 byte, 0.0% gc time)
calc_Mellell!: 0.010562 sec (0 allocations: 0 byte, 0.0% gc time)
  t0 :  0.002137 sec (0 allocations: 0 byte, 0.0% gc time)
  tm2 : 0.09586 sec (0 allocations: 0 byte, 0.0% gc time)
  tm2s: 0.001296 sec (0 allocations: 0 byte, 0.0% gc time)
  tm4 : 0.242617 sec (0 allocations: 0 byte, 0.0% gc time)
  tp2 : 0.0 sec (0 allocations: 0 byte, 0.0% gc time)
  tp2s: 0.0 sec (0 allocations: 0 byte, 0.0% gc time)
  tp4 : 0.0 sec (0 allocations: 0 byte, 0.0% gc time)
calc_wtdll!:   0.376708 sec (9.9 k allocations: 1.047 MB, 0.0% gc time)
calc_wljj!:    0.041271 sec (689 allocations: 10.766 KB, 0.0% gc time)
mult_prefac!:  0.0 sec (0 allocations: 0 byte, 0.0% gc time)
convert:       0.0 sec (0 allocations: 0 byte, 0.0% gc time)
write:         0.034716 sec (0 allocations: 0 byte, 0.0% gc time)
test_rand_2f1: 0.0 sec (0 allocations: 0 byte, 0.0% gc time)
Closing outfile out/Ml21-cache.bin...   0.000008 seconds
  0.000615 seconds (36 allocations: 27.953 KiB)
make_phi():   0.002737 seconds (8.18 k allocations: 237.844 KiB)
  0.214534 seconds (141.90 k allocations: 3.483 MiB)
tskip:       0.001026 sec (0 allocations: 0 byte, 0.0% gc time)
tread:       0.023179 sec (17 allocations: 10.641 KB, 0.0% gc time)
tmultphi:    0.022061 sec (0 allocations: 0 byte, 0.0% gc time)
tbrfft:      0.045555 sec (0 allocations: 0 byte, 0.0% gc time)
tmultprefac: 0.051489 sec (0 allocations: 0 byte, 0.0% gc time)
toutfunc:    0.067617 sec (127.507 k allocations: 2.312 MB, 0.0% gc time)
Testing R=1.0 ... passed
Calculating fmax: 
  dlrec    = 4
  dlrecRg1 = -4
  q=1.1, R=0.9:	  0.491908 seconds (105.76 k allocations: 15.287 MiB)

  0.494131 seconds (105.81 k allocations: 15.321 MiB)
ℓ = 1202
Δℓ = 4
ΔℓRg1 = -4
N = 1600
q = 1.1
kmin = 1.0e-5
kmax = 100000.00000000004
χ0 = 0.023029999999999995
RR = RR.tsv
ℓmax = ℓmax.bin
f21 = f21.bin
kmin = 1.0e-5
kmax = 100000.0
dlrec    = 4
dlrecRg1 = -4
Output size: 5741568 bytes = 0.005347251892089844 GiB
Output size: 51264 bytes = 4.774332046508789e-5 GiB
Reading 'out/F21EllCache'...   0.001137 seconds (197 allocations: 84.203 KiB)
ellmax: 1202
lmaxcache: 1202
fell[:,1,1] = ComplexF64[1.3482014726274674e-57 - 3.302141236118086e-73im, 1.357860004724329e-57 - 3.3257978169518355e-73im]
ell 1202, elapsed: 0.00011682510375976562
ell 1201, elapsed: 0.000431060791015625
ell 1200, elapsed: 0.00038504600524902344
ell 1199, elapsed: 0.0004088878631591797
ell 1198, elapsed: 0.0003821849822998047
ell 1002, elapsed: 0.00997018814086914
ell 1001, elapsed: 0.00042700767517089844
ell 1000, elapsed: 0.0006260871887207031
ell 999, elapsed: 0.0004189014434814453
ell 998, elapsed: 0.0003371238708496094
ell 902, elapsed: 0.005043983459472656
ell 901, elapsed: 0.00042510032653808594
ell 900, elapsed: 0.00041103363037109375
ell 899, elapsed: 0.0004019737243652344
ell 898, elapsed: 0.0003809928894042969
ell 802, elapsed: 0.0052471160888671875
ell 801, elapsed: 0.00041294097900390625
ell 800, elapsed: 0.00041794776916503906
ell 799, elapsed: 0.0007398128509521484
ell 798, elapsed: 0.0003838539123535156
ell 702, elapsed: 0.005089998245239258
ell 701, elapsed: 0.0004069805145263672
ell 700, elapsed: 0.0004470348358154297
ell 699, elapsed: 0.00039505958557128906
ell 698, elapsed: 0.0004050731658935547
ell 602, elapsed: 0.005115985870361328
ell 601, elapsed: 0.00040984153747558594
ell 600, elapsed: 0.0004169940948486328
ell 599, elapsed: 0.0005819797515869141
ell 598, elapsed: 0.0005400180816650391
ell 502, elapsed: 0.005327939987182617
ell 501, elapsed: 0.0005340576171875
ell 500, elapsed: 0.0005168914794921875
ell 499, elapsed: 0.00047779083251953125
ell 498, elapsed: 0.0005049705505371094
ell 402, elapsed: 0.005197048187255859
ell 401, elapsed: 0.0004899501800537109
ell 400, elapsed: 0.00045609474182128906
ell 399, elapsed: 0.0004329681396484375
ell 398, elapsed: 0.00043892860412597656
ell 302, elapsed: 0.005228996276855469
ell 301, elapsed: 0.00040602684020996094
ell 300, elapsed: 0.0004899501800537109
ell 299, elapsed: 0.0004119873046875
ell 298, elapsed: 0.0004849433898925781
ell 202, elapsed: 0.005270957946777344
ell 201, elapsed: 0.0006699562072753906
ell 200, elapsed: 0.0005810260772705078
ell 199, elapsed: 0.0005259513854980469
ell 198, elapsed: 0.0004949569702148438
ell 152, elapsed: 0.002897977828979492
ell 151, elapsed: 0.00044608116149902344
ell 150, elapsed: 0.0004439353942871094
ell 149, elapsed: 0.00043582916259765625
ell 148, elapsed: 0.00045299530029296875
ell 127, elapsed: 0.0015342235565185547
ell 126, elapsed: 0.0004200935363769531
ell 125, elapsed: 0.0004191398620605469
ell 124, elapsed: 0.00043392181396484375
ell 123, elapsed: 0.0004191398620605469
ell 114, elapsed: 0.0009551048278808594
ell 113, elapsed: 0.0005068778991699219
ell 112, elapsed: 0.0005121231079101562
ell 111, elapsed: 0.0004899501800537109
ell 110, elapsed: 0.0004918575286865234
ell 102, elapsed: 0.0009839534759521484
ell 101, elapsed: 0.0004949569702148438
ell 100, elapsed: 0.0004918575286865234
ell 99, elapsed: 0.0004909038543701172
ell 98, elapsed: 0.0004971027374267578
ell 97, elapsed: 0.0006330013275146484
ell 96, elapsed: 0.0005772113800048828
ell 95, elapsed: 0.000576019287109375
ell 94, elapsed: 0.0005860328674316406
ell 93, elapsed: 0.0005879402160644531
ell 92, elapsed: 0.0005719661712646484
ell 91, elapsed: 0.0005629062652587891
ell 90, elapsed: 0.0005960464477539062
ell 89, elapsed: 0.0006070137023925781
ell 88, elapsed: 0.001043081283569336
ell 87, elapsed: 0.0005230903625488281
ell 86, elapsed: 0.0005259513854980469
ell 85, elapsed: 0.0005459785461425781
ell 84, elapsed: 0.0005381107330322266
ell 83, elapsed: 0.0005400180816650391
ell 82, elapsed: 0.0005099773406982422
ell 81, elapsed: 0.0005049705505371094
ell 80, elapsed: 0.0005090236663818359
ell 79, elapsed: 0.0005321502685546875
ell 78, elapsed: 0.0004918575286865234
ell 77, elapsed: 0.0005400180816650391
ell 76, elapsed: 0.0005230903625488281
ell 75, elapsed: 0.0005190372467041016
ell 74, elapsed: 0.0005049705505371094
ell 73, elapsed: 0.0005059242248535156
ell 72, elapsed: 0.0005049705505371094
ell 71, elapsed: 0.0005171298980712891
ell 70, elapsed: 0.0006330013275146484
ell 69, elapsed: 0.0005810260772705078
ell 68, elapsed: 0.0006041526794433594
ell 67, elapsed: 0.0005869865417480469
ell 66, elapsed: 0.0005860328674316406
ell 65, elapsed: 0.0005841255187988281
ell 64, elapsed: 0.0005860328674316406
ell 63, elapsed: 0.0006010532379150391
ell 62, elapsed: 0.0005850791931152344
ell 61, elapsed: 0.0005888938903808594
ell 60, elapsed: 0.0005919933319091797
ell 59, elapsed: 0.0005829334259033203
ell 58, elapsed: 0.0005700588226318359
ell 57, elapsed: 0.0005819797515869141
ell 56, elapsed: 0.0005750656127929688
ell 55, elapsed: 0.0006000995635986328
ell 54, elapsed: 0.0005769729614257812
ell 53, elapsed: 0.0005941390991210938
ell 52, elapsed: 0.0006160736083984375
ell 51, elapsed: 0.0005881786346435547
ell 50, elapsed: 0.0005660057067871094
ell 49, elapsed: 0.0005879402160644531
ell 48, elapsed: 0.0005810260772705078
ell 47, elapsed: 0.0005970001220703125
ell 46, elapsed: 0.0005829334259033203
ell 45, elapsed: 0.0006041526794433594
ell 44, elapsed: 0.0005879402160644531
ell 43, elapsed: 0.0006089210510253906
ell 42, elapsed: 0.0005750656127929688
ell 41, elapsed: 0.0005810260772705078
ell 40, elapsed: 0.0005829334259033203
ell 39, elapsed: 0.0005781650543212891
ell 38, elapsed: 0.0005900859832763672
ell 37, elapsed: 0.000579833984375
ell 36, elapsed: 0.0005869865417480469
ell 35, elapsed: 0.0006041526794433594
ell 34, elapsed: 0.0008788108825683594
ell 33, elapsed: 0.0004940032958984375
ell 32, elapsed: 0.0004858970642089844
ell 31, elapsed: 0.0005211830139160156
ell 30, elapsed: 0.0005018711090087891
ell 29, elapsed: 0.0005221366882324219
ell 28, elapsed: 0.0005018711090087891
ell 27, elapsed: 0.0005061626434326172
ell 26, elapsed: 0.0005509853363037109
ell 25, elapsed: 0.0005331039428710938
ell 24, elapsed: 0.0005331039428710938
ell 23, elapsed: 0.0005350112915039062
ell 22, elapsed: 0.000553131103515625
ell 21, elapsed: 0.0005390644073486328
ell 20, elapsed: 0.0005290508270263672
ell 19, elapsed: 0.0005068778991699219
ell 18, elapsed: 0.0005078315734863281
ell 17, elapsed: 0.0008587837219238281
ell 16, elapsed: 0.0005080699920654297
ell 15, elapsed: 0.0004990100860595703
ell 14, elapsed: 0.00048422813415527344
ell 13, elapsed: 0.0005209445953369141
ell 12, elapsed: 0.0006170272827148438
ell 11, elapsed: 0.0004680156707763672
ell 10, elapsed: 0.00048089027404785156
ell 9, elapsed: 0.00047016143798828125
ell 8, elapsed: 0.0005397796630859375
ell 7, elapsed: 0.00047516822814941406
ell 6, elapsed: 0.0005261898040771484
ell 5, elapsed: 0.0004820823669433594
ell 4, elapsed: 0.00048804283142089844
ell 3, elapsed: 0.0005259513854980469
ell 2, elapsed: 0.0005011558532714844
ell 1, elapsed: 0.0004870891571044922
ell 0, elapsed: 0.0005209445953369141
  0.195615 seconds (11.51 k allocations: 719.594 KiB)
elapsed: 0.001371145248413086
step:          0.057925 sec (0 allocations: 0 byte, 0.0% gc time)
swapping:      0.000481 sec (0 allocations: 0 byte, 0.0% gc time)
calc_Mellell!: 0.001836 sec (0 allocations: 0 byte, 0.0% gc time)
  t0 :  0.000468 sec (0 allocations: 0 byte, 0.0% gc time)
  tm2 : 0.013875 sec (0 allocations: 0 byte, 0.0% gc time)
  tm2s: 0.000259 sec (0 allocations: 0 byte, 0.0% gc time)
  tm4 : 0.034392 sec (0 allocations: 0 byte, 0.0% gc time)
  tp2 : 0.0 sec (0 allocations: 0 byte, 0.0% gc time)
  tp2s: 0.0 sec (0 allocations: 0 byte, 0.0% gc time)
  tp4 : 0.0 sec (0 allocations: 0 byte, 0.0% gc time)
calc_wtdll!:   0.049841 sec (1.344 k allocations: 147.0 KB, 0.0% gc time)
calc_wljj!:    0.004058 sec (6 allocations: 96 byte, 0.0% gc time)
mult_prefac!:  0.0 sec (0 allocations: 0 byte, 0.0% gc time)
convert:       0.0 sec (0 allocations: 0 byte, 0.0% gc time)
write:         0.003728 sec (0 allocations: 0 byte, 0.0% gc time)
test_rand_2f1: 0.0 sec (0 allocations: 0 byte, 0.0% gc time)
Closing outfile out/Ml21-cache.bin...   0.000006 seconds
  0.000299 seconds (36 allocations: 27.953 KiB)
make_phi():   0.002878 seconds (8.18 k allocations: 237.844 KiB)
  0.019205 seconds (11.65 k allocations: 308.688 KiB)
tskip:       1.8e-5 sec (0 allocations: 0 byte, 0.0% gc time)
tread:       0.002176 sec (17 allocations: 2.125 KB, 0.0% gc time)
tmultphi:    0.001964 sec (0 allocations: 0 byte, 0.0% gc time)
tbrfft:      0.004087 sec (0 allocations: 0 byte, 0.0% gc time)
tmultprefac: 0.004595 sec (0 allocations: 0 byte, 0.0% gc time)
toutfunc:    0.006028 sec (10.304 k allocations: 196.0 KB, 0.0% gc time)
Testing R=0.9 ... passed
Calculating fmax: 
  dlrec    = 4
  dlrecRg1 = -4
  q=1.1, R=0.8:	  0.403453 seconds (103.25 k allocations: 14.856 MiB)

  0.404287 seconds (103.30 k allocations: 14.890 MiB)
ℓ = 1202
Δℓ = 4
ΔℓRg1 = -4
N = 1600
q = 1.1
kmin = 1.0e-5
kmax = 100000.00000000004
χ0 = 0.023029999999999995
RR = RR.tsv
ℓmax = ℓmax.bin
f21 = f21.bin
kmin = 1.0e-5
kmax = 100000.0
dlrec    = 4
dlrecRg1 = -4
Output size: 5741568 bytes = 0.005347251892089844 GiB
Output size: 51264 bytes = 4.774332046508789e-5 GiB
Reading 'out/F21EllCache'...   0.001079 seconds (197 allocations: 84.203 KiB)
ellmax: 1202
lmaxcache: 1202
fell[:,1,1] = ComplexF64[7.519068145690986e-120 - 1.8416405474382574e-135im, 7.541664537386155e-120 - 1.847175067190611e-135im]
ell 1202, elapsed: 0.00014495849609375
ell 1201, elapsed: 0.0005509853363037109
ell 1200, elapsed: 0.0005049705505371094
ell 1199, elapsed: 0.0005998611450195312
ell 1198, elapsed: 0.0006029605865478516
ell 1002, elapsed: 0.010425090789794922
ell 1001, elapsed: 0.0004801750183105469
ell 1000, elapsed: 0.0004630088806152344
ell 999, elapsed: 0.0004811286926269531
ell 998, elapsed: 0.0008502006530761719
ell 902, elapsed: 0.005279064178466797
ell 901, elapsed: 0.0004658699035644531
ell 900, elapsed: 0.00045990943908691406
ell 899, elapsed: 0.0004649162292480469
ell 898, elapsed: 0.00045990943908691406
ell 802, elapsed: 0.005184173583984375
ell 801, elapsed: 0.0005898475646972656
ell 800, elapsed: 0.0005381107330322266
ell 799, elapsed: 0.0005211830139160156
ell 798, elapsed: 0.0005259513854980469
ell 702, elapsed: 0.0053730010986328125
ell 701, elapsed: 0.0004630088806152344
ell 700, elapsed: 0.0004630088806152344
ell 699, elapsed: 0.000457763671875
ell 698, elapsed: 0.00045800209045410156
ell 602, elapsed: 0.0055561065673828125
ell 601, elapsed: 0.00047016143798828125
ell 600, elapsed: 0.0004639625549316406
ell 599, elapsed: 0.0004820823669433594
ell 598, elapsed: 0.0004630088806152344
ell 502, elapsed: 0.0052721500396728516
ell 501, elapsed: 0.00047206878662109375
ell 500, elapsed: 0.0004818439483642578
ell 499, elapsed: 0.0004591941833496094
ell 498, elapsed: 0.0004658699035644531
ell 402, elapsed: 0.005681037902832031
ell 401, elapsed: 0.0004749298095703125
ell 400, elapsed: 0.0004639625549316406
ell 399, elapsed: 0.0004658699035644531
ell 398, elapsed: 0.0004718303680419922
ell 302, elapsed: 0.0052471160888671875
ell 301, elapsed: 0.0004630088806152344
ell 300, elapsed: 0.0007300376892089844
ell 299, elapsed: 0.0004630088806152344
ell 298, elapsed: 0.00045990943908691406
ell 202, elapsed: 0.005290031433105469
ell 201, elapsed: 0.00048279762268066406
ell 200, elapsed: 0.0004730224609375
ell 199, elapsed: 0.00047087669372558594
ell 198, elapsed: 0.00047206878662109375
ell 152, elapsed: 0.0028111934661865234
ell 151, elapsed: 0.00048613548278808594
ell 150, elapsed: 0.0005578994750976562
ell 149, elapsed: 0.0005230903625488281
ell 148, elapsed: 0.0005159378051757812
ell 127, elapsed: 0.0016698837280273438
ell 126, elapsed: 0.00045990943908691406
ell 125, elapsed: 0.0004661083221435547
ell 124, elapsed: 0.0004658699035644531
ell 123, elapsed: 0.00047016143798828125
ell 114, elapsed: 0.0008149147033691406
ell 113, elapsed: 0.00045680999755859375
ell 112, elapsed: 0.00043010711669921875
ell 111, elapsed: 0.0004248619079589844
ell 110, elapsed: 0.00042700767517089844
ell 102, elapsed: 0.000843048095703125
ell 101, elapsed: 0.0004601478576660156
ell 100, elapsed: 0.0004279613494873047
ell 99, elapsed: 0.0004229545593261719
ell 98, elapsed: 0.0004239082336425781
ell 97, elapsed: 0.0005021095275878906
ell 96, elapsed: 0.0004980564117431641
ell 95, elapsed: 0.0004990100860595703
ell 94, elapsed: 0.0006229877471923828
ell 93, elapsed: 0.0005781650543212891
ell 92, elapsed: 0.0005650520324707031
ell 91, elapsed: 0.0005550384521484375
ell 90, elapsed: 0.0005609989166259766
ell 89, elapsed: 0.0005548000335693359
ell 88, elapsed: 0.0005559921264648438
ell 87, elapsed: 0.0005550384521484375
ell 86, elapsed: 0.0005719661712646484
ell 85, elapsed: 0.0005621910095214844
ell 84, elapsed: 0.0005910396575927734
ell 83, elapsed: 0.0005600452423095703
ell 82, elapsed: 0.0005679130554199219
ell 81, elapsed: 0.0004870891571044922
ell 80, elapsed: 0.0004940032958984375
ell 79, elapsed: 0.0004990100860595703
ell 78, elapsed: 0.000492095947265625
ell 77, elapsed: 0.0004868507385253906
ell 76, elapsed: 0.0004889965057373047
ell 75, elapsed: 0.0004889965057373047
ell 74, elapsed: 0.00048804283142089844
ell 73, elapsed: 0.00048804283142089844
ell 72, elapsed: 0.0005009174346923828
ell 71, elapsed: 0.00048804283142089844
ell 70, elapsed: 0.0004911422729492188
ell 69, elapsed: 0.0004839897155761719
ell 68, elapsed: 0.0004911422729492188
ell 67, elapsed: 0.0004868507385253906
ell 66, elapsed: 0.00048804283142089844
ell 65, elapsed: 0.0004849433898925781
ell 64, elapsed: 0.0004940032958984375
ell 63, elapsed: 0.0007729530334472656
ell 62, elapsed: 0.0004439353942871094
ell 61, elapsed: 0.0004341602325439453
ell 60, elapsed: 0.0004329681396484375
ell 59, elapsed: 0.0004360675811767578
ell 58, elapsed: 0.0004329681396484375
ell 57, elapsed: 0.00043010711669921875
ell 56, elapsed: 0.00045299530029296875
ell 55, elapsed: 0.00043201446533203125
ell 54, elapsed: 0.00042700767517089844
ell 53, elapsed: 0.0004329681396484375
ell 52, elapsed: 0.00042700767517089844
ell 51, elapsed: 0.00042891502380371094
ell 50, elapsed: 0.00043201446533203125
ell 49, elapsed: 0.00044083595275878906
ell 48, elapsed: 0.00043320655822753906
ell 47, elapsed: 0.0004448890686035156
ell 46, elapsed: 0.0004279613494873047
[...]
ell 788, elapsed: 0.0007760524749755859
ell 782, elapsed: 0.0014259815216064453
ell 781, elapsed: 0.0008108615875244141
ell 780, elapsed: 0.0008001327514648438
ell 779, elapsed: 0.0007719993591308594
ell 778, elapsed: 0.0007281303405761719
ell 772, elapsed: 0.001508951187133789
ell 771, elapsed: 0.0008709430694580078
ell 770, elapsed: 0.0008728504180908203
ell 769, elapsed: 0.0007798671722412109
ell 768, elapsed: 0.0007889270782470703
ell 762, elapsed: 0.0015349388122558594
ell 761, elapsed: 0.0007901191711425781
ell 760, elapsed: 0.0007500648498535156
ell 759, elapsed: 0.0007841587066650391
ell 758, elapsed: 0.0007498264312744141
ell 752, elapsed: 0.0013909339904785156
ell 751, elapsed: 0.0007200241088867188
ell 750, elapsed: 0.0007188320159912109
ell 749, elapsed: 0.0007300376892089844
ell 748, elapsed: 0.0007219314575195312
ell 742, elapsed: 0.001458883285522461
ell 741, elapsed: 0.0007240772247314453
ell 740, elapsed: 0.0007159709930419922
ell 739, elapsed: 0.0007169246673583984
ell 738, elapsed: 0.0007369518280029297
ell 732, elapsed: 0.001397848129272461
ell 731, elapsed: 0.0007488727569580078
ell 730, elapsed: 0.0007240772247314453
ell 729, elapsed: 0.0007181167602539062
ell 728, elapsed: 0.0007259845733642578
ell 722, elapsed: 0.0012879371643066406
ell 721, elapsed: 0.0006859302520751953
ell 720, elapsed: 0.0007069110870361328
ell 719, elapsed: 0.00074005126953125
ell 718, elapsed: 0.0007278919219970703
ell 712, elapsed: 0.0013799667358398438
ell 711, elapsed: 0.0007860660552978516
ell 710, elapsed: 0.0007431507110595703
ell 709, elapsed: 0.0007519721984863281
ell 708, elapsed: 0.0007290840148925781
ell 702, elapsed: 0.0013549327850341797
ell 701, elapsed: 0.00074005126953125
ell 700, elapsed: 0.0007328987121582031
ell 699, elapsed: 0.0007500648498535156
ell 698, elapsed: 0.0007159709930419922
ell 692, elapsed: 0.0013499259948730469
ell 691, elapsed: 0.0008070468902587891
ell 690, elapsed: 0.0007491111755371094
ell 689, elapsed: 0.0007300376892089844
ell 688, elapsed: 0.0007219314575195312
ell 682, elapsed: 0.0014438629150390625
ell 681, elapsed: 0.004837989807128906
ell 680, elapsed: 0.000743865966796875
ell 679, elapsed: 0.0007410049438476562
ell 678, elapsed: 0.0007309913635253906
ell 672, elapsed: 0.0013849735260009766
ell 671, elapsed: 0.0007219314575195312
ell 670, elapsed: 0.0007159709930419922
ell 669, elapsed: 0.0007181167602539062
ell 668, elapsed: 0.0007219314575195312
ell 662, elapsed: 0.0013489723205566406
ell 661, elapsed: 0.0007431507110595703
ell 660, elapsed: 0.0007271766662597656
ell 659, elapsed: 0.0007069110870361328
ell 658, elapsed: 0.0007219314575195312
ell 652, elapsed: 0.0014171600341796875
ell 651, elapsed: 0.0007450580596923828
ell 650, elapsed: 0.0007309913635253906
ell 649, elapsed: 0.0007259845733642578
ell 648, elapsed: 0.0007870197296142578
ell 642, elapsed: 0.0014009475708007812
ell 641, elapsed: 0.0007679462432861328
ell 640, elapsed: 0.0007350444793701172
ell 639, elapsed: 0.0008139610290527344
ell 638, elapsed: 0.0007269382476806641
ell 632, elapsed: 0.001394033432006836
ell 631, elapsed: 0.0007569789886474609
ell 630, elapsed: 0.0008058547973632812
ell 629, elapsed: 0.000720977783203125
ell 628, elapsed: 0.0007441043853759766
ell 622, elapsed: 0.0013399124145507812
ell 621, elapsed: 0.0007319450378417969
ell 620, elapsed: 0.0008568763732910156
ell 619, elapsed: 0.0007941722869873047
ell 618, elapsed: 0.0008089542388916016
ell 612, elapsed: 0.0014290809631347656
ell 611, elapsed: 0.0008409023284912109
ell 610, elapsed: 0.0007460117340087891
ell 609, elapsed: 0.0007429122924804688
ell 608, elapsed: 0.0007390975952148438
ell 602, elapsed: 0.0013790130615234375
ell 601, elapsed: 0.0008170604705810547
ell 600, elapsed: 0.0008091926574707031
ell 599, elapsed: 0.0007929801940917969
ell 598, elapsed: 0.0007889270782470703
ell 592, elapsed: 0.0016720294952392578
ell 591, elapsed: 0.0008051395416259766
ell 590, elapsed: 0.0007359981536865234
ell 589, elapsed: 0.0007500648498535156
ell 588, elapsed: 0.0008251667022705078
ell 582, elapsed: 0.0014109611511230469
ell 581, elapsed: 0.0007030963897705078
ell 580, elapsed: 0.0007359981536865234
ell 579, elapsed: 0.0008111000061035156
ell 578, elapsed: 0.0007159709930419922
ell 572, elapsed: 0.0013041496276855469
ell 571, elapsed: 0.0007100105285644531
ell 570, elapsed: 0.0007200241088867188
ell 569, elapsed: 0.0007178783416748047
ell 568, elapsed: 0.0007309913635253906
ell 562, elapsed: 0.0014770030975341797
ell 561, elapsed: 0.000720977783203125
ell 560, elapsed: 0.0008320808410644531
ell 559, elapsed: 0.0007560253143310547
ell 558, elapsed: 0.0007138252258300781
ell 552, elapsed: 0.0013990402221679688
ell 551, elapsed: 0.0008268356323242188
ell 550, elapsed: 0.0007390975952148438
ell 549, elapsed: 0.0007009506225585938
ell 548, elapsed: 0.0007128715515136719
ell 542, elapsed: 0.0013840198516845703
ell 541, elapsed: 0.0007359981536865234
ell 540, elapsed: 0.0007770061492919922
ell 539, elapsed: 0.0007519721984863281
ell 538, elapsed: 0.0007178783416748047
ell 532, elapsed: 0.0014710426330566406
ell 531, elapsed: 0.0007431507110595703
ell 530, elapsed: 0.0007448196411132812
ell 529, elapsed: 0.0007228851318359375
ell 528, elapsed: 0.0007350444793701172
ell 522, elapsed: 0.0014760494232177734
ell 521, elapsed: 0.0007281303405761719
ell 520, elapsed: 0.0007269382476806641
ell 519, elapsed: 0.0007431507110595703
ell 518, elapsed: 0.0008180141448974609
ell 512, elapsed: 0.0013608932495117188
ell 511, elapsed: 0.0007288455963134766
ell 510, elapsed: 0.000720977783203125
ell 509, elapsed: 0.0009129047393798828
ell 508, elapsed: 0.0008299350738525391
ell 502, elapsed: 0.0015969276428222656
ell 501, elapsed: 0.0008120536804199219
ell 500, elapsed: 0.0008361339569091797
ell 499, elapsed: 0.0008530616760253906
ell 498, elapsed: 0.0008780956268310547
ell 492, elapsed: 0.0015490055084228516
ell 491, elapsed: 0.0008661746978759766
ell 490, elapsed: 0.00080108642578125
ell 489, elapsed: 0.0008490085601806641
ell 488, elapsed: 0.0008590221405029297
ell 482, elapsed: 0.0017461776733398438
ell 481, elapsed: 0.0007739067077636719
ell 480, elapsed: 0.000782012939453125
ell 479, elapsed: 0.0008358955383300781
ell 478, elapsed: 0.000843048095703125
ell 472, elapsed: 0.0014300346374511719
ell 471, elapsed: 0.0007770061492919922
ell 470, elapsed: 0.0007479190826416016
ell 469, elapsed: 0.0008308887481689453
ell 468, elapsed: 0.0007660388946533203
ell 462, elapsed: 0.0014688968658447266
ell 461, elapsed: 0.0007920265197753906
ell 460, elapsed: 0.0008499622344970703
ell 459, elapsed: 0.0006890296936035156
ell 458, elapsed: 0.0006890296936035156
ell 452, elapsed: 0.0014309883117675781
ell 451, elapsed: 0.0008490085601806641
ell 450, elapsed: 0.0007359981536865234
ell 449, elapsed: 0.0007219314575195312
ell 448, elapsed: 0.0008199214935302734
ell 442, elapsed: 0.0015239715576171875
ell 441, elapsed: 0.0007181167602539062
ell 440, elapsed: 0.0007390975952148438
ell 439, elapsed: 0.0006959438323974609
ell 438, elapsed: 0.0007050037384033203
ell 432, elapsed: 0.0015099048614501953
ell 431, elapsed: 0.0007150173187255859
ell 430, elapsed: 0.0007278919219970703
ell 429, elapsed: 0.0007278919219970703
ell 428, elapsed: 0.0007469654083251953
ell 422, elapsed: 0.0014579296112060547
ell 421, elapsed: 0.0008118152618408203
ell 420, elapsed: 0.0007579326629638672
ell 419, elapsed: 0.0007379055023193359
ell 418, elapsed: 0.0008318424224853516
ell 412, elapsed: 0.0014100074768066406
ell 411, elapsed: 0.0007758140563964844
ell 410, elapsed: 0.0007479190826416016
ell 409, elapsed: 0.0008330345153808594
ell 408, elapsed: 0.0008358955383300781
ell 402, elapsed: 0.001438140869140625
ell 401, elapsed: 0.0007929801940917969
ell 400, elapsed: 0.0007879734039306641
ell 399, elapsed: 0.0007219314575195312
ell 398, elapsed: 0.0007269382476806641
ell 392, elapsed: 0.0014069080352783203
ell 391, elapsed: 0.0008530616760253906
ell 390, elapsed: 0.0007071495056152344
ell 389, elapsed: 0.0007150173187255859
ell 388, elapsed: 0.0007109642028808594
ell 382, elapsed: 0.0014781951904296875
ell 381, elapsed: 0.0007288455963134766
ell 380, elapsed: 0.0007240772247314453
ell 379, elapsed: 0.000720977783203125
ell 378, elapsed: 0.0007519721984863281
ell 372, elapsed: 0.0015108585357666016
ell 371, elapsed: 0.0007228851318359375
ell 370, elapsed: 0.0007290840148925781
ell 369, elapsed: 0.0007178783416748047
ell 368, elapsed: 0.0007460117340087891
ell 362, elapsed: 0.0015230178833007812
ell 361, elapsed: 0.0007669925689697266
ell 360, elapsed: 0.0007598400115966797
ell 359, elapsed: 0.0007500648498535156
ell 358, elapsed: 0.0008459091186523438
ell 352, elapsed: 0.0014560222625732422
ell 351, elapsed: 0.0007929801940917969
ell 350, elapsed: 0.0007610321044921875
ell 349, elapsed: 0.000804901123046875
ell 348, elapsed: 0.0007619857788085938
ell 342, elapsed: 0.0014691352844238281
ell 341, elapsed: 0.0007739067077636719
ell 340, elapsed: 0.0008511543273925781
ell 339, elapsed: 0.000743865966796875
ell 338, elapsed: 0.0007500648498535156
ell 332, elapsed: 0.0014638900756835938
ell 331, elapsed: 0.0008580684661865234
ell 330, elapsed: 0.0007607936859130859
ell 329, elapsed: 0.0007610321044921875
ell 328, elapsed: 0.0007548332214355469
ell 322, elapsed: 0.0015630722045898438
ell 321, elapsed: 0.0008358955383300781
ell 320, elapsed: 0.0007519721984863281
ell 319, elapsed: 0.0007450580596923828
ell 318, elapsed: 0.0007541179656982422
ell 312, elapsed: 0.0014500617980957031
ell 311, elapsed: 0.0007379055023193359
ell 310, elapsed: 0.0007140636444091797
ell 309, elapsed: 0.0006999969482421875
ell 308, elapsed: 0.0008242130279541016
ell 302, elapsed: 0.0013070106506347656
ell 301, elapsed: 0.0007250308990478516
ell 300, elapsed: 0.0007448196411132812
ell 299, elapsed: 0.0007278919219970703
ell 298, elapsed: 0.0008020401000976562
ell 292, elapsed: 0.001394033432006836
ell 291, elapsed: 0.0007750988006591797
ell 290, elapsed: 0.0007588863372802734
ell 289, elapsed: 0.0008559226989746094
ell 288, elapsed: 0.0007359981536865234
ell 282, elapsed: 0.0014698505401611328
ell 281, elapsed: 0.0007860660552978516
ell 280, elapsed: 0.0009028911590576172
ell 279, elapsed: 0.0007579326629638672
ell 278, elapsed: 0.0007090568542480469
ell 272, elapsed: 0.001332998275756836
ell 271, elapsed: 0.0007929801940917969
ell 270, elapsed: 0.0007109642028808594
ell 269, elapsed: 0.0007219314575195312
ell 268, elapsed: 0.0007319450378417969
ell 262, elapsed: 0.0013499259948730469
ell 261, elapsed: 0.0007948875427246094
ell 260, elapsed: 0.0007531642913818359
ell 259, elapsed: 0.0007350444793701172
ell 258, elapsed: 0.0008089542388916016
ell 252, elapsed: 0.0015308856964111328
ell 251, elapsed: 0.0007750988006591797
ell 250, elapsed: 0.0007100105285644531
ell 249, elapsed: 0.0006949901580810547
ell 248, elapsed: 0.0007419586181640625
ell 242, elapsed: 0.0014500617980957031
ell 241, elapsed: 0.0007638931274414062
ell 240, elapsed: 0.0007319450378417969
ell 239, elapsed: 0.0007121562957763672
ell 238, elapsed: 0.0008320808410644531
ell 232, elapsed: 0.0013768672943115234
ell 231, elapsed: 0.0007340908050537109
ell 230, elapsed: 0.0007488727569580078
ell 229, elapsed: 0.0007870197296142578
ell 228, elapsed: 0.0007259845733642578
ell 222, elapsed: 0.0013990402221679688
ell 221, elapsed: 0.0007219314575195312
ell 220, elapsed: 0.0007259845733642578
ell 219, elapsed: 0.0008120536804199219
ell 218, elapsed: 0.0007288455963134766
ell 212, elapsed: 0.0013821125030517578
ell 211, elapsed: 0.0008330345153808594
ell 210, elapsed: 0.0008070468902587891
ell 209, elapsed: 0.0007128715515136719
ell 208, elapsed: 0.0007350444793701172
ell 202, elapsed: 0.0013709068298339844
ell 201, elapsed: 0.0008699893951416016
ell 200, elapsed: 0.0007388591766357422
ell 199, elapsed: 0.0007259845733642578
ell 198, elapsed: 0.0007300376892089844
ell 192, elapsed: 0.0014789104461669922
ell 191, elapsed: 0.0007488727569580078
ell 190, elapsed: 0.0007290840148925781
ell 189, elapsed: 0.0007548332214355469
ell 188, elapsed: 0.0007638931274414062
ell 182, elapsed: 0.0015399456024169922
ell 181, elapsed: 0.0007669925689697266
ell 180, elapsed: 0.0008618831634521484
ell 179, elapsed: 0.0007450580596923828
ell 178, elapsed: 0.0008199214935302734
ell 172, elapsed: 0.0014410018920898438
ell 171, elapsed: 0.0007569789886474609
ell 170, elapsed: 0.0007548332214355469
ell 169, elapsed: 0.0008580684661865234
ell 168, elapsed: 0.0007619857788085938
ell 162, elapsed: 0.0014710426330566406
ell 161, elapsed: 0.0007910728454589844
ell 160, elapsed: 0.0008449554443359375
ell 159, elapsed: 0.0007498264312744141
ell 158, elapsed: 0.0007281303405761719
ell 152, elapsed: 0.0014429092407226562
ell 151, elapsed: 0.000782012939453125
ell 150, elapsed: 0.0007479190826416016
ell 149, elapsed: 0.0007441043853759766
ell 148, elapsed: 0.0007531642913818359
ell 142, elapsed: 0.001461029052734375
ell 141, elapsed: 0.000804901123046875
ell 140, elapsed: 0.0007851123809814453
ell 139, elapsed: 0.0007460117340087891
ell 138, elapsed: 0.0008299350738525391
ell 132, elapsed: 0.0014140605926513672
ell 131, elapsed: 0.0007929801940917969
ell 130, elapsed: 0.0007801055908203125
ell 129, elapsed: 0.0007719993591308594
ell 128, elapsed: 0.0007569789886474609
ell 122, elapsed: 0.00144195556640625
ell 121, elapsed: 0.0007851123809814453
ell 120, elapsed: 0.0007529258728027344
ell 119, elapsed: 0.0007379055023193359
ell 118, elapsed: 0.0007598400115966797
ell 112, elapsed: 0.0014789104461669922
ell 111, elapsed: 0.0007548332214355469
ell 110, elapsed: 0.000701904296875
ell 109, elapsed: 0.0007269382476806641
ell 108, elapsed: 0.0007119178771972656
ell 102, elapsed: 0.001405954360961914
ell 101, elapsed: 0.003077983856201172
ell 100, elapsed: 0.003276824951171875
ell 99, elapsed: 0.0032160282135009766
ell 98, elapsed: 0.003361225128173828
ell 92, elapsed: 0.0061931610107421875
ell 91, elapsed: 0.0034050941467285156
ell 90, elapsed: 0.0034170150756835938
ell 89, elapsed: 0.003376007080078125
ell 88, elapsed: 0.0033960342407226562
ell 82, elapsed: 0.006202220916748047
ell 81, elapsed: 0.003406047821044922
ell 80, elapsed: 0.003419160842895508
ell 79, elapsed: 0.003384113311767578
ell 78, elapsed: 0.003392934799194336
ell 72, elapsed: 0.0061969757080078125
ell 71, elapsed: 0.0034089088439941406
ell 70, elapsed: 0.0034148693084716797
ell 69, elapsed: 0.003409862518310547
ell 68, elapsed: 0.0033609867095947266
ell 62, elapsed: 0.006312847137451172
ell 61, elapsed: 0.003403902053833008
ell 60, elapsed: 0.0034170150756835938
ell 59, elapsed: 0.003412008285522461
ell 58, elapsed: 0.0033500194549560547
ell 52, elapsed: 0.006189107894897461
ell 51, elapsed: 0.003428936004638672
ell 50, elapsed: 0.0034770965576171875
ell 49, elapsed: 0.003386974334716797
ell 48, elapsed: 0.0033638477325439453
ell 42, elapsed: 0.006212949752807617
ell 41, elapsed: 0.0033769607543945312
ell 40, elapsed: 0.0034029483795166016
ell 39, elapsed: 0.0033757686614990234
ell 38, elapsed: 0.00335693359375
ell 32, elapsed: 0.006141185760498047
ell 31, elapsed: 0.003420114517211914
ell 30, elapsed: 0.003361940383911133
ell 29, elapsed: 0.0032320022583007812
ell 28, elapsed: 0.0029799938201904297
ell 22, elapsed: 0.006503105163574219
ell 21, elapsed: 0.003309011459350586
ell 20, elapsed: 0.003258943557739258
ell 19, elapsed: 0.0033271312713623047
ell 18, elapsed: 0.0032739639282226562
ell 12, elapsed: 0.005918979644775391
ell 11, elapsed: 0.0031769275665283203
ell 10, elapsed: 0.0032508373260498047
ell 9, elapsed: 0.0031499862670898438
ell 8, elapsed: 0.0032320022583007812
  0.717937 seconds (68.56 k allocations: 12.176 MiB)
elapsed: 0.0037069320678710938
step:          0.061551 sec (0 allocations: 0 byte, 0.0% gc time)
swapping:      0.000668 sec (0 allocations: 0 byte, 0.0% gc time)
calc_Mellell!: 0.037144 sec (0 allocations: 0 byte, 0.0% gc time)
  t0 :  0.009564 sec (0 allocations: 0 byte, 0.0% gc time)
  tm2 : 0.069711 sec (0 allocations: 0 byte, 0.0% gc time)
  tm2s: 0.007561 sec (0 allocations: 0 byte, 0.0% gc time)
  tm4 : 0.167543 sec (0 allocations: 0 byte, 0.0% gc time)
  tp2 : 0.0 sec (0 allocations: 0 byte, 0.0% gc time)
  tp2s: 0.0 sec (0 allocations: 0 byte, 0.0% gc time)
  tp4 : 0.0 sec (0 allocations: 0 byte, 0.0% gc time)
calc_wtdll!:   0.507627 sec (48.6 k allocations: 11.096 MB, 0.0% gc time)
calc_wljj!:    0.036206 sec (69 allocations: 1.078 KB, 0.0% gc time)
mult_prefac!:  0.0 sec (0 allocations: 0 byte, 0.0% gc time)
convert:       0.0 sec (0 allocations: 0 byte, 0.0% gc time)
write:         0.034241 sec (0 allocations: 0 byte, 0.0% gc time)
test_rand_2f1: 0.0 sec (0 allocations: 0 byte, 0.0% gc time)
Closing outfile out/MlCache/MlCache.bin...   0.000007 seconds
xi, l=0, nu=0:   0.446474 seconds (603.04 k allocations: 32.974 MiB)
xi, l=0, nu=-2:  0.003139 seconds (114 allocations: 148.969 KiB)
Created 'out/xi.tsv'.
  q=1.1, R=0.6:	  0.894951 seconds (264.51 k allocations: 38.097 MiB, 2.56% gc time)
  q=1.1, R=0.7:	  1.140629 seconds (276.48 k allocations: 40.118 MiB, 1.26% gc time)
  q=1.1, R=0.8:	  1.077464 seconds (271.73 k allocations: 39.310 MiB, 1.47% gc time)
  q=1.1, R=0.9:	  1.153954 seconds (266.62 k allocations: 38.459 MiB, 0.69% gc time)
  q=1.1, R=0.998:	 21.344595 seconds (114.96 k allocations: 7.588 MiB)
  q=1.1, R=1.0:	  0.004248 seconds (8.20 k allocations: 704.344 KiB)

ℓ = 1000
Δℓ = 4
ΔℓRg1 = -4
N = 4096
q = 1.1
kmin = 1.0e-5
kmax = 1000.0
χ0 = 0.001
RR = RR.tsv
ℓmax = ℓmax.bin
f21 = f21.bin
kmin = 1.0e-5
kmax = 1000.0
dlrec    = 4
dlrecRg1 = -4
Output size: 1573632 bytes = 0.0014655590057373047 GiB
Output size: 786816 bytes = 0.0007327795028686523 GiB
Reading 'out/F21EllCache'...   0.001515 seconds (198 allocations: 533.078 KiB)
ellmax: 1002
lmaxcache: 1000
fell[:,1,1] = ComplexF64[1.726292812820208e-224 - 4.2281979352226965e-240im, 1.7282693092099638e-224 - 4.233038955177178e-240im]
ell 1002, elapsed: 6.508827209472656e-5
ell 1001, elapsed: 0.0009429454803466797
ell 1000, elapsed: 0.0010650157928466797
ell 999, elapsed: 0.0057830810546875
ell 998, elapsed: 0.0059320926666259766
ell 44, elapsed: 0.748528003692627
ell 43, elapsed: 0.005400180816650391
ell 42, elapsed: 0.005539894104003906
ell 41, elapsed: 0.005316019058227539
ell 40, elapsed: 0.0054569244384765625
  0.791758 seconds (4.59 k allocations: 322.266 KiB)
elapsed: 0.006582975387573242
step:          0.744506 sec (0 allocations: 0 byte, 0.0% gc time)
swapping:      0.000564 sec (0 allocations: 0 byte, 0.0% gc time)
calc_Mellell!: 0.001146 sec (0 allocations: 0 byte, 0.0% gc time)
  t0 :  0.000734 sec (0 allocations: 0 byte, 0.0% gc time)
  tm2 : 0.009492 sec (0 allocations: 0 byte, 0.0% gc time)
  tm2s: 0.000555 sec (0 allocations: 0 byte, 0.0% gc time)
  tm4 : 0.027114 sec (0 allocations: 0 byte, 0.0% gc time)
  tp2 : 0.0 sec (0 allocations: 0 byte, 0.0% gc time)
  tp2s: 0.0 sec (0 allocations: 0 byte, 0.0% gc time)
  tp4 : 0.0 sec (0 allocations: 0 byte, 0.0% gc time)
calc_wtdll!:   0.038144 sec (480 allocations: 52.5 KB, 0.0% gc time)
calc_wljj!:    0.001408 sec (1 allocations: 16 byte, 0.0% gc time)
mult_prefac!:  0.0 sec (0 allocations: 0 byte, 0.0% gc time)
convert:       0.0 sec (0 allocations: 0 byte, 0.0% gc time)
write:         0.000969 sec (0 allocations: 0 byte, 0.0% gc time)
test_rand_2f1: 0.0 sec (0 allocations: 0 byte, 0.0% gc time)
Closing outfile out/MlCache/MlCache.bin...   0.000008 seconds
  0.549602 seconds (38 allocations: 66.859 KiB)
make_phi():   0.010455 seconds (65 allocations: 275.984 KiB)
  0.046642 seconds (11.42 k allocations: 711.851 KiB)
tskip:       1.0e-6 sec (0 allocations: 0 byte, 0.0% gc time)
tread:       0.000762 sec (17 allocations: 1.266 KB, 0.0% gc time)
tmultphi:    0.000442 sec (0 allocations: 0 byte, 0.0% gc time)
tbrfft:      0.001169 sec (0 allocations: 0 byte, 0.0% gc time)
tmultprefac: 0.001115 sec (0 allocations: 0 byte, 0.0% gc time)
toutfunc:    0.000321 sec (0 allocations: 0 byte, 0.0% gc time)
Created 'out/wl42_jj00.tsv'.
Created 'out/wl42_jj02.tsv'.
    Testing TwoFAST tests passed 
