Julia Version 1.4.0
Commit 3fd5790e88 (2020-04-10 10:01 UTC)
Platform Info:
  OS: Linux (x86_64-linux-gnu)
  CPU: Intel(R) Xeon(R) Silver 4114 CPU @ 2.20GHz
  WORD_SIZE: 64
  LIBM: libopenlibm
  LLVM: libLLVM-8.0.1 (ORCJIT, skylake)
Environment:
  JULIA_DEPOT_PATH = ::/usr/local/share/julia
  JULIA_NUM_THREADS = 2

  Resolving package versions...
  Installed FFTW_jll ───────── v3.3.9+5
  Installed Reexport ───────── v0.2.0
  Installed MKL_jll ────────── v2019.0.117+2
  Installed SpecialFunctions ─ v0.8.0
  Installed BinaryProvider ─── v0.5.8
  Installed AbstractAlgebra ── v0.7.1
  Installed Nemo ───────────── v0.15.1
  Installed AbstractFFTs ───── v0.5.0
  Installed BinDeps ────────── v1.0.0
  Installed IncGammaBeta ───── v0.1.0
  Installed IntelOpenMP_jll ── v2018.0.3+0
  Installed FFTW ───────────── v1.2.0
  Installed URIParser ──────── v0.4.0
  Installed TwoFAST ────────── v0.1.0
   Updating `~/.julia/environments/v1.4/Project.toml`
  [0dd23c3e] + TwoFAST v0.1.0
   Updating `~/.julia/environments/v1.4/Manifest.toml`
  [c3fe647b] + AbstractAlgebra v0.7.1
  [621f4979] + AbstractFFTs v0.5.0
  [9e28174c] + BinDeps v1.0.0
  [b99e7846] + BinaryProvider v0.5.8
  [7a1cc6ca] + FFTW v1.2.0
  [f5851436] + FFTW_jll v3.3.9+5
  [5087d2c0] + IncGammaBeta v0.1.0
  [1d5cc7b8] + IntelOpenMP_jll v2018.0.3+0
  [856f044c] + MKL_jll v2019.0.117+2
  [2edaba10] + Nemo v0.15.1
  [189a3867] + Reexport v0.2.0
  [276daf66] + SpecialFunctions v0.8.0
  [0dd23c3e] + TwoFAST v0.1.0
  [30578b45] + URIParser v0.4.0
  [2a0f44e3] + Base64 
  [ade2ca70] + Dates 
  [8bb1440f] + DelimitedFiles 
  [8ba89e20] + Distributed 
  [b77e0a4c] + InteractiveUtils 
  [76f85450] + LibGit2 
  [8f399da3] + Libdl 
  [37e2e46d] + LinearAlgebra 
  [56ddb016] + Logging 
  [d6f4376e] + Markdown 
  [a63ad114] + Mmap 
  [44cfe95a] + Pkg 
  [de0858da] + Printf 
  [3fa0cd96] + REPL 
  [9a3f8284] + Random 
  [ea8e919c] + SHA 
  [9e88b42a] + Serialization 
  [6462fe0b] + Sockets 
  [2f01184e] + SparseArrays 
  [8dfed614] + Test 
  [cf7118a7] + UUIDs 
  [4ec0a83e] + Unicode 
   Building Nemo ────────────→ `~/.julia/packages/Nemo/qzx0m/deps/build.log`
   Building SpecialFunctions → `~/.julia/packages/SpecialFunctions/ne2iw/deps/build.log`
   Building FFTW ────────────→ `~/.julia/packages/FFTW/qqcBj/deps/build.log`
    Testing TwoFAST
Status `/tmp/jl_PRfThi/Manifest.toml`
  [c3fe647b] AbstractAlgebra v0.7.1
  [621f4979] AbstractFFTs v0.5.0
  [9e28174c] BinDeps v1.0.0
  [b99e7846] BinaryProvider v0.5.8
  [39dd38d3] Dierckx v0.4.1
  [7a1cc6ca] FFTW v1.2.0
  [f5851436] FFTW_jll v3.3.9+5
  [5087d2c0] IncGammaBeta v0.1.0
  [1d5cc7b8] IntelOpenMP_jll v2018.0.3+0
  [856f044c] MKL_jll v2019.0.117+2
  [2edaba10] Nemo v0.15.1
  [189a3867] Reexport v0.2.0
  [276daf66] SpecialFunctions v0.8.0
  [0dd23c3e] TwoFAST v0.1.0
  [30578b45] URIParser v0.4.0
  [2a0f44e3] Base64 
  [ade2ca70] Dates 
  [8bb1440f] DelimitedFiles 
  [8ba89e20] Distributed 
  [b77e0a4c] InteractiveUtils 
  [76f85450] LibGit2 
  [8f399da3] Libdl 
  [37e2e46d] LinearAlgebra 
  [56ddb016] Logging 
  [d6f4376e] Markdown 
  [a63ad114] Mmap 
  [44cfe95a] Pkg 
  [de0858da] Printf 
  [3fa0cd96] REPL 
  [9a3f8284] Random 
  [ea8e919c] SHA 
  [9e88b42a] Serialization 
  [6462fe0b] Sockets 
  [2f01184e] SparseArrays 
  [8dfed614] Test 
  [cf7118a7] UUIDs 
  [4ec0a83e] Unicode 

Welcome to Nemo version 0.15.1

Nemo comes with absolutely no warranty whatsoever


Welcome to Nemo version 0.15.1

Nemo comes with absolutely no warranty whatsoever

Testing ξ(r), ℓ=0, ν=-1 ... passed
Testing ξ(r), ℓ=0, ν=0 ... passed
Testing ξ(r), ℓ=0, ν=1 ... passed
Testing ξ(r), ℓ=0, ν=2 ... passed
Testing ξ(r), ℓ=0, ν=3 ... passed
Testing ξ(r), ℓ=1, ν=0 ... passed
Testing ξ(r), ℓ=1, ν=1 ... passed
Testing ξ(r), ℓ=1, ν=2 ... passed
Testing ξ(r), ℓ=1, ν=3 ... passed
Testing ξ(r), ℓ=2, ν=-1 ... passed
Testing ξ(r), ℓ=2, ν=0 ... passed
Testing ξ(r), ℓ=2, ν=1 ... passed
Testing ξ(r), ℓ=2, ν=2 ... passed
Testing ξ(r), ℓ=2, ν=3 ... passed
Testing ξ(r), ℓ=3, ν=-1 ... passed
Testing ξ(r), ℓ=3, ν=0 ... passed
Testing ξ(r), ℓ=3, ν=1 ... passed
Testing ξ(r), ℓ=3, ν=2 ... passed
Testing ξ(r), ℓ=3, ν=3 ... passed
Testing ξ(r), ℓ=4, ν=-1 ... passed
Testing ξ(r), ℓ=4, ν=0 ... passed
Testing ξ(r), ℓ=4, ν=1 ... passed
Testing ξ(r), ℓ=4, ν=2 ... passed
Testing ξ(r), ℓ=4, ν=3 ... passed
Testing ξ(r) ... passed
Testing ξ′(r) ... passed
Testing ξ″(r) ... passed
Calculating fmax: 
  dlrec    = 4
  dlrecRg1 = -4
  q=1.1, R=1.1:	  4.766785 seconds (1.39 M allocations: 76.323 MiB, 1.25% gc time)

  4.810091 seconds (1.41 M allocations: 77.433 MiB, 1.24% gc time)
ℓ = 1202
Δℓ = 4
ΔℓRg1 = -4
N = 1600
q = 1.1
kmin = 1.0e-5
kmax = 100000.00000000004
χ0 = 0.023029999999999995
RR = RR.tsv
ℓmax = ℓmax.bin
f21 = f21.bin
kmin = 1.0e-5
kmax = 100000.0
dlrec    = 4
dlrecRg1 = -4
Output size: 5741568 bytes = 0.005347251892089844 GiB
Output size: 51264 bytes = 4.774332046508789e-5 GiB
Reading 'out/F21EllCache'...   0.525366 seconds (320.66 k allocations: 16.459 MiB)
ellmax: 1202
lmaxcache: 1202
fell[:,1,1] = Complex{Float64}[3.9583795592771634e-52 - 9.695233714158177e-68im, 3.990121772925759e-52 - 9.772979714843386e-68im]
ell 1202, elapsed: 0.000186920166015625
ell 1201, elapsed: 2.395923137664795
ell 1200, elapsed: 0.0005259513854980469
ell 1199, elapsed: 0.0005488395690917969
ell 1198, elapsed: 0.0005011558532714844
ell 1002, elapsed: 0.009364128112792969
ell 1001, elapsed: 0.0005259513854980469
ell 1000, elapsed: 0.0004811286926269531
ell 999, elapsed: 0.0004780292510986328
ell 998, elapsed: 0.0004930496215820312
ell 902, elapsed: 0.005136013031005859
ell 901, elapsed: 0.0005018711090087891
ell 900, elapsed: 0.0004830360412597656
ell 899, elapsed: 0.0004811286926269531
ell 898, elapsed: 0.0004830360412597656
ell 802, elapsed: 0.00506901741027832
ell 801, elapsed: 0.0004899501800537109
ell 800, elapsed: 0.0004811286926269531
ell 799, elapsed: 0.00047898292541503906
ell 798, elapsed: 0.00047898292541503906
ell 702, elapsed: 0.005037069320678711
ell 701, elapsed: 0.0005421638488769531
ell 700, elapsed: 0.0004889965057373047
ell 699, elapsed: 0.00047898292541503906
ell 698, elapsed: 0.0004799365997314453
ell 602, elapsed: 0.004949092864990234
ell 601, elapsed: 0.0004899501800537109
ell 600, elapsed: 0.0005891323089599609
ell 599, elapsed: 0.0005500316619873047
ell 598, elapsed: 0.0005590915679931641
ell 502, elapsed: 0.0051920413970947266
ell 501, elapsed: 0.0005788803100585938
ell 500, elapsed: 0.0005819797515869141
ell 499, elapsed: 0.0005300045013427734
ell 498, elapsed: 0.0005390644073486328
ell 402, elapsed: 0.005326986312866211
ell 401, elapsed: 0.0006649494171142578
ell 400, elapsed: 0.0006229877471923828
ell 399, elapsed: 0.0005359649658203125
ell 398, elapsed: 0.0005180835723876953
ell 302, elapsed: 0.005048990249633789
ell 301, elapsed: 0.0005559921264648438
ell 300, elapsed: 0.0005800724029541016
ell 299, elapsed: 0.0005900859832763672
ell 298, elapsed: 0.0005428791046142578
ell 202, elapsed: 0.005260944366455078
ell 201, elapsed: 0.0005128383636474609
ell 200, elapsed: 0.0005578994750976562
ell 199, elapsed: 0.0005431175231933594
ell 198, elapsed: 0.0005021095275878906
ell 152, elapsed: 0.0025582313537597656
ell 151, elapsed: 0.00047898292541503906
ell 150, elapsed: 0.0004801750183105469
ell 149, elapsed: 0.0004761219024658203
ell 148, elapsed: 0.0005259513854980469
ell 127, elapsed: 0.0017201900482177734
ell 126, elapsed: 0.0004820823669433594
ell 125, elapsed: 0.00048089027404785156
ell 124, elapsed: 0.0004801750183105469
ell 123, elapsed: 0.0004818439483642578
ell 114, elapsed: 0.0009701251983642578
ell 113, elapsed: 0.0004990100860595703
ell 112, elapsed: 0.0004839897155761719
ell 111, elapsed: 0.00047707557678222656
ell 110, elapsed: 0.000476837158203125
ell 102, elapsed: 0.0009331703186035156
ell 101, elapsed: 0.0004858970642089844
ell 100, elapsed: 0.0005009174346923828
ell 99, elapsed: 0.00047707557678222656
ell 98, elapsed: 0.0004792213439941406
ell 97, elapsed: 0.0005118846893310547
ell 96, elapsed: 0.0005970001220703125
ell 95, elapsed: 0.0005180835723876953
ell 94, elapsed: 0.0005860328674316406
ell 93, elapsed: 0.0005359649658203125
ell 92, elapsed: 0.0005810260772705078
ell 91, elapsed: 0.0005161762237548828
ell 90, elapsed: 0.0005822181701660156
ell 89, elapsed: 0.0005040168762207031
ell 88, elapsed: 0.0005860328674316406
ell 87, elapsed: 0.0005178451538085938
ell 86, elapsed: 0.0009200572967529297
ell 85, elapsed: 0.0006859302520751953
ell 84, elapsed: 0.0007829666137695312
ell 83, elapsed: 0.0006899833679199219
ell 82, elapsed: 0.0007441043853759766
ell 81, elapsed: 0.0007250308990478516
ell 80, elapsed: 0.0007700920104980469
ell 79, elapsed: 0.0007081031799316406
ell 78, elapsed: 0.0007901191711425781
ell 77, elapsed: 0.0007090568542480469
ell 76, elapsed: 0.0007898807525634766
ell 75, elapsed: 0.0007009506225585938
ell 74, elapsed: 0.0007882118225097656
ell 73, elapsed: 0.0007281303405761719
ell 72, elapsed: 0.0008490085601806641
ell 71, elapsed: 0.0007090568542480469
ell 70, elapsed: 0.0007939338684082031
ell 69, elapsed: 0.0007219314575195312
ell 68, elapsed: 0.0008461475372314453
ell 67, elapsed: 0.0007450580596923828
ell 66, elapsed: 0.0008080005645751953
ell 65, elapsed: 0.0007309913635253906
ell 64, elapsed: 0.0008080005645751953
ell 63, elapsed: 0.0007779598236083984
ell 62, elapsed: 0.0008678436279296875
ell 61, elapsed: 0.0007319450378417969
ell 60, elapsed: 0.0008008480072021484
ell 59, elapsed: 0.0007331371307373047
ell 58, elapsed: 0.0007941722869873047
ell 57, elapsed: 0.0007321834564208984
ell 56, elapsed: 0.00080108642578125
ell 55, elapsed: 0.0007390975952148438
ell 54, elapsed: 0.0007948875427246094
ell 53, elapsed: 0.0007359981536865234
ell 52, elapsed: 0.0008060932159423828
ell 51, elapsed: 0.0007319450378417969
ell 50, elapsed: 0.0008549690246582031
ell 49, elapsed: 0.0007500648498535156
ell 48, elapsed: 0.0008070468902587891
ell 47, elapsed: 0.0007390975952148438
ell 46, elapsed: 0.0008730888366699219
ell 45, elapsed: 0.0007750988006591797
ell 44, elapsed: 0.0008108615875244141
ell 43, elapsed: 0.0007429122924804688
ell 42, elapsed: 0.0008409023284912109
ell 41, elapsed: 0.0007288455963134766
ell 40, elapsed: 0.0007989406585693359
ell 39, elapsed: 0.0007369518280029297
ell 38, elapsed: 0.0008089542388916016
ell 37, elapsed: 0.0007388591766357422
ell 36, elapsed: 0.0008418560028076172
ell 35, elapsed: 0.0007691383361816406
ell 34, elapsed: 0.0008120536804199219
ell 33, elapsed: 0.0007300376892089844
ell 32, elapsed: 0.0007991790771484375
ell 31, elapsed: 0.0007390975952148438
ell 30, elapsed: 0.0007989406585693359
ell 29, elapsed: 0.0007338523864746094
ell 28, elapsed: 0.0007939338684082031
ell 27, elapsed: 0.0007290840148925781
ell 26, elapsed: 0.0007948875427246094
ell 25, elapsed: 0.0007269382476806641
ell 24, elapsed: 0.0008080005645751953
ell 23, elapsed: 0.0007960796356201172
ell 22, elapsed: 0.0008370876312255859
ell 21, elapsed: 0.0007488727569580078
ell 20, elapsed: 0.0008170604705810547
ell 19, elapsed: 0.0007300376892089844
ell 18, elapsed: 0.0008020401000976562
ell 17, elapsed: 0.0007460117340087891
ell 16, elapsed: 0.0007860660552978516
ell 15, elapsed: 0.0007240772247314453
ell 14, elapsed: 0.0008101463317871094
ell 13, elapsed: 0.0007200241088867188
ell 12, elapsed: 0.0008020401000976562
ell 11, elapsed: 0.0007309913635253906
ell 10, elapsed: 0.0007870197296142578
ell 9, elapsed: 0.0007162094116210938
ell 8, elapsed: 0.0007898807525634766
ell 7, elapsed: 0.0007288455963134766
ell 6, elapsed: 0.0008029937744140625
ell 5, elapsed: 0.0007259845733642578
ell 4, elapsed: 0.0006880760192871094
ell 3, elapsed: 0.0005998611450195312
ell 2, elapsed: 0.0005991458892822266
ell 1, elapsed: 0.0005300045013427734
ell 0, elapsed: 0.00057220458984375
  3.312629 seconds (2.03 M allocations: 98.002 MiB, 1.46% gc time)
elapsed: 0.0010371208190917969
step:          0.986068 sec (593.657 k allocations: 28.7 MB, 2.47% gc time)
swapping:      0.000612 sec (0 allocations: 0 byte, 0.0% gc time)
calc_Mellell!: 0.550434 sec (389.709 k allocations: 19.052 MB, 4.33% gc time)
  t0 :  0.0 sec (0 allocations: 0 byte, 0.0% gc time)
  tm2 : 0.0 sec (0 allocations: 0 byte, 0.0% gc time)
  tm2s: 0.0 sec (0 allocations: 0 byte, 0.0% gc time)
  tm4 : 0.0 sec (0 allocations: 0 byte, 0.0% gc time)
  tp2 : 0.0 sec (0 allocations: 0 byte, 0.0% gc time)
  tp2s: 0.0 sec (0 allocations: 0 byte, 0.0% gc time)
  tp4 : 0.0 sec (0 allocations: 0 byte, 0.0% gc time)
calc_wtdll!:   0.98441 sec (525.865 k allocations: 26.38 MB, 0.0% gc time)
calc_wljj!:    0.003789 sec (6 allocations: 96 byte, 0.0% gc time)
mult_prefac!:  0.0 sec (0 allocations: 0 byte, 0.0% gc time)
convert:       0.0 sec (0 allocations: 0 byte, 0.0% gc time)
write:         0.004505 sec (0 allocations: 0 byte, 0.0% gc time)
test_rand_2f1: 0.0 sec (0 allocations: 0 byte, 0.0% gc time)
Closing outfile out/Ml21-cache.bin...   0.000108 seconds
  2.817818 seconds (846.50 k allocations: 81.084 MiB, 1.55% gc time)
make_phi():   0.036300 seconds (8.33 k allocations: 250.484 KiB)
  0.283662 seconds (177.89 k allocations: 11.490 MiB)
tskip:       2.8e-5 sec (0 allocations: 0 byte, 0.0% gc time)
tread:       0.002646 sec (19 allocations: 2.172 KB, 0.0% gc time)
tmultphi:    0.065013 sec (26.022 k allocations: 1.338 MB, 0.0% gc time)
tbrfft:      0.049381 sec (57.086 k allocations: 5.629 MB, 0.0% gc time)
tmultprefac: 0.003484 sec (0 allocations: 0 byte, 0.0% gc time)
toutfunc:    0.162975 sec (94.107 k allocations: 4.452 MB, 0.0% gc time)
Testing R=1.1 ... passed
Calculating fmax: 
  dlrec    = 4
  dlrecRg1 = -4
  q=1.1, R=1.0:	  0.001932 seconds (4.00 k allocations: 300.375 KiB)

  0.003027 seconds (4.04 k allocations: 335.062 KiB)
ℓ = 1202
Δℓ = 4
ΔℓRg1 = -4
N = 1600
q = 1.1
kmin = 1.0e-5
kmax = 100000.00000000004
χ0 = 0.023029999999999995
RR = RR.tsv
ℓmax = ℓmax.bin
f21 = f21.bin
kmin = 1.0e-5
kmax = 100000.0
dlrec    = 4
dlrecRg1 = -4
Output size: 61465536 bytes = 0.05724424123764038 GiB
Output size: 51264 bytes = 4.774332046508789e-5 GiB
Reading 'out/F21EllCache'...   0.001575 seconds (267 allocations: 84.656 KiB)
ellmax: 1202
lmaxcache: 1202
fell[:,1,1] = Complex{Float64}[809.6031528389767 - 1.9829558194077161e-13im, 0.0 + 0.0im]
ell 1202, elapsed: 2.09808349609375e-5
ell 1201, elapsed: 0.014260053634643555
ell 1200, elapsed: 0.0003490447998046875
ell 1199, elapsed: 0.0003459453582763672
ell 1198, elapsed: 0.00034999847412109375
ell 1197, elapsed: 0.0005538463592529297
ell 1196, elapsed: 0.00045680999755859375
ell 1195, elapsed: 0.0006279945373535156
ell 1194, elapsed: 0.000576019287109375
ell 1193, elapsed: 0.0005490779876708984
ell 1192, elapsed: 0.0005238056182861328
ell 1191, elapsed: 0.00084686279296875
ell 1190, elapsed: 0.0005860328674316406
ell 1189, elapsed: 0.0005891323089599609
ell 1188, elapsed: 0.00037384033203125
ell 1187, elapsed: 0.0006060600280761719
ell 1186, elapsed: 0.0005171298980712891
ell 1185, elapsed: 0.0004260540008544922
ell 1184, elapsed: 0.0005221366882324219
ell 1183, elapsed: 0.0006151199340820312
ell 1182, elapsed: 0.00047397613525390625
ell 1181, elapsed: 0.0005869865417480469
ell 1180, elapsed: 0.0004801750183105469
ell 1179, elapsed: 0.0004260540008544922
ell 1178, elapsed: 0.0003688335418701172
ell 1177, elapsed: 0.00043201446533203125
ell 1176, elapsed: 0.0005540847778320312
ell 1175, elapsed: 0.0006802082061767578
ell 1174, elapsed: 0.0005028247833251953
ell 1173, elapsed: 0.0004429817199707031
ell 1172, elapsed: 0.0004949569702148438
ell 1171, elapsed: 0.0007030963897705078
ell 1170, elapsed: 0.0006480216979980469
ell 1169, elapsed: 0.0006241798400878906
ell 1168, elapsed: 0.0006208419799804688
ell 1167, elapsed: 0.0006999969482421875
ell 1166, elapsed: 0.0006151199340820312
ell 1165, elapsed: 0.0006959438323974609
ell 1164, elapsed: 0.0006241798400878906
ell 1163, elapsed: 0.00043702125549316406
ell 1162, elapsed: 0.0005261898040771484
ell 1161, elapsed: 0.0005710124969482422
ell 1160, elapsed: 0.0005538463592529297
ell 1159, elapsed: 0.0007009506225585938
ell 1158, elapsed: 0.0008041858673095703
ell 1157, elapsed: 0.0006999969482421875
ell 1156, elapsed: 0.0005619525909423828
ell 1155, elapsed: 0.0007009506225585938
ell 1154, elapsed: 0.0005228519439697266
ell 1153, elapsed: 0.0006089210510253906
ell 1152, elapsed: 0.0006690025329589844
ell 1151, elapsed: 0.0006649494171142578
ell 1150, elapsed: 0.0006210803985595703
ell 1149, elapsed: 0.0006041526794433594
ell 1148, elapsed: 0.00037097930908203125
ell 1147, elapsed: 0.0005791187286376953
ell 1146, elapsed: 0.0006229877471923828
ell 1145, elapsed: 0.0006132125854492188
ell 1144, elapsed: 0.0005910396575927734
ell 1143, elapsed: 0.0005199909210205078
ell 1142, elapsed: 0.00047779083251953125
ell 1141, elapsed: 0.0006549358367919922
ell 1140, elapsed: 0.0004980564117431641
ell 1139, elapsed: 0.000576019287109375
ell 1138, elapsed: 0.0003800392150878906
ell 1137, elapsed: 0.000576019287109375
ell 1136, elapsed: 0.0004990100860595703
ell 1135, elapsed: 0.0006029605865478516
ell 1134, elapsed: 0.0004911422729492188
ell 1133, elapsed: 0.0005970001220703125
ell 1132, elapsed: 0.0007770061492919922
ell 1131, elapsed: 0.0006821155548095703
ell 1130, elapsed: 0.0006170272827148438
ell 1129, elapsed: 0.000698089599609375
ell 1128, elapsed: 0.0004899501800537109
ell 1127, elapsed: 0.0004119873046875
ell 1126, elapsed: 0.0004990100860595703
ell 1125, elapsed: 0.0006051063537597656
ell 1124, elapsed: 0.0006020069122314453
ell 1123, elapsed: 0.0006830692291259766
ell 1122, elapsed: 0.00048089027404785156
ell 1121, elapsed: 0.0005838871002197266
ell 1120, elapsed: 0.0005180835723876953
ell 1119, elapsed: 0.0005769729614257812
ell 1118, elapsed: 0.0004589557647705078
ell 1117, elapsed: 0.0006039142608642578
ell 1116, elapsed: 0.000370025634765625
ell 1115, elapsed: 0.0005781650543212891
ell 1114, elapsed: 0.0004839897155761719
ell 1113, elapsed: 0.0005259513854980469
ell 1112, elapsed: 0.0006530284881591797
ell 1111, elapsed: 0.0004260540008544922
ell 1110, elapsed: 0.0005049705505371094
ell 1109, elapsed: 0.000576019287109375
ell 1108, elapsed: 0.0003800392150878906
ell 1107, elapsed: 0.0006020069122314453
ell 1106, elapsed: 0.0005199909210205078
ell 1105, elapsed: 0.0007967948913574219
ell 1104, elapsed: 0.0006089210510253906
ell 1103, elapsed: 0.0006878376007080078
ell 1102, elapsed: 0.0006139278411865234
ell 1101, elapsed: 0.0006949901580810547
ell 1100, elapsed: 0.0006070137023925781
ell 1099, elapsed: 0.0006871223449707031
ell 1098, elapsed: 0.0006160736083984375
ell 1097, elapsed: 0.0006930828094482422
ell 1096, elapsed: 0.0006039142608642578
ell 1095, elapsed: 0.0006799697875976562
ell 1094, elapsed: 0.0006690025329589844
ell 1093, elapsed: 0.00045108795166015625
ell 1092, elapsed: 0.00036907196044921875
ell 1091, elapsed: 0.0005919933319091797
ell 1090, elapsed: 0.0005998611450195312
ell 1089, elapsed: 0.0005729198455810547
ell 1088, elapsed: 0.00038504600524902344
ell 1087, elapsed: 0.0007669925689697266
ell 1086, elapsed: 0.0004680156707763672
ell 1085, elapsed: 0.0006139278411865234
ell 1084, elapsed: 0.0005979537963867188
ell 1083, elapsed: 0.0006890296936035156
ell 1082, elapsed: 0.0005431175231933594
ell 1081, elapsed: 0.0006959438323974609
ell 1080, elapsed: 0.00047016143798828125
ell 1079, elapsed: 0.00043487548828125
ell 1078, elapsed: 0.0004978179931640625
ell 1077, elapsed: 0.0006611347198486328
ell 1076, elapsed: 0.000579833984375
ell 1075, elapsed: 0.0005059242248535156
ell 1074, elapsed: 0.0005068778991699219
ell 1073, elapsed: 0.0005729198455810547
ell 1072, elapsed: 0.0005948543548583984
ell 1071, elapsed: 0.0005240440368652344
ell 1070, elapsed: 0.0004961490631103516
ell 1069, elapsed: 0.0007069110870361328
ell 1068, elapsed: 0.0006082057952880859
ell 1067, elapsed: 0.0007510185241699219
ell 1066, elapsed: 0.0004999637603759766
ell 1065, elapsed: 0.0006618499755859375
ell 1064, elapsed: 0.0005919933319091797
ell 1063, elapsed: 0.0006630420684814453
ell 1062, elapsed: 0.0004749298095703125
ell 1061, elapsed: 0.0004971027374267578
ell 1060, elapsed: 0.0002968311309814453
ell 1059, elapsed: 0.0003628730773925781
ell 1058, elapsed: 0.0002968311309814453
ell 1057, elapsed: 0.000370025634765625
ell 1056, elapsed: 0.0005550384521484375
ell 1055, elapsed: 0.0005080699920654297
ell 1054, elapsed: 0.00029397010803222656
ell 1053, elapsed: 0.0003368854522705078
ell 1052, elapsed: 0.00029397010803222656
ell 1051, elapsed: 0.000453948974609375
ell 1050, elapsed: 0.0005071163177490234
ell 1049, elapsed: 0.0006999969482421875
ell 1048, elapsed: 0.0005099773406982422
ell 1047, elapsed: 0.0005488395690917969
ell 1046, elapsed: 0.0006139278411865234
ell 1045, elapsed: 0.0007181167602539062
ell 1044, elapsed: 0.0005328655242919922
ell 1043, elapsed: 0.00044608116149902344
ell 1042, elapsed: 0.0004961490631103516
ell 1041, elapsed: 0.0007050037384033203
ell 1040, elapsed: 0.0006029605865478516
ell 1039, elapsed: 0.0005288124084472656
ell 1038, elapsed: 0.0005819797515869141
ell 1037, elapsed: 0.0006918907165527344
ell 1036, elapsed: 0.0006079673767089844
ell 1035, elapsed: 0.0006890296936035156
ell 1034, elapsed: 0.0006120204925537109
ell 1033, elapsed: 0.0007171630859375
ell 1032, elapsed: 0.0006358623504638672
ell 1031, elapsed: 0.0006978511810302734
ell 1030, elapsed: 0.0006039142608642578
ell 1029, elapsed: 0.0006830692291259766
ell 1028, elapsed: 0.0006079673767089844
ell 1027, elapsed: 0.000720977783203125
ell 1026, elapsed: 0.0006110668182373047
ell 1025, elapsed: 0.0006959438323974609
ell 1024, elapsed: 0.0006279945373535156
ell 1023, elapsed: 0.0006899833679199219
ell 1022, elapsed: 0.0006110668182373047
ell 1021, elapsed: 0.0007321834564208984
ell 1020, elapsed: 0.0006120204925537109
ell 1019, elapsed: 0.0006928443908691406
ell 1018, elapsed: 0.0006139278411865234
ell 1017, elapsed: 0.0007369518280029297
ell 1016, elapsed: 0.0006489753723144531
ell 1015, elapsed: 0.0007109642028808594
ell 1014, elapsed: 0.0004749298095703125
ell 1013, elapsed: 0.0005729198455810547
ell 1012, elapsed: 0.0006392002105712891
ell 1011, elapsed: 0.0006279945373535156
ell 1010, elapsed: 0.00045299530029296875
ell 1009, elapsed: 0.0007379055023193359
ell 1008, elapsed: 0.0006210803985595703
ell 1007, elapsed: 0.0006959438323974609
ell 1006, elapsed: 0.0004949569702148438
ell 1005, elapsed: 0.0006070137023925781
ell 1004, elapsed: 0.0006189346313476562
ell 1003, elapsed: 0.0007061958312988281
ell 1002, elapsed: 0.0005409717559814453
ell 1001, elapsed: 0.0005548000335693359
ell 1000, elapsed: 0.0005779266357421875
ell 999, elapsed: 0.0007059574127197266
ell 998, elapsed: 0.0005130767822265625
ell 997, elapsed: 0.0007491111755371094
ell 996, elapsed: 0.0006039142608642578
ell 995, elapsed: 0.0006849765777587891
ell 994, elapsed: 0.0004868507385253906
ell 993, elapsed: 0.0006358623504638672
ell 992, elapsed: 0.0006101131439208984
ell 991, elapsed: 0.0006399154663085938
ell 990, elapsed: 0.00045800209045410156
ell 989, elapsed: 0.0006279945373535156
ell 988, elapsed: 0.0005209445953369141
ell 987, elapsed: 0.0006940364837646484
ell 986, elapsed: 0.0005409717559814453
ell 985, elapsed: 0.0005409717559814453
ell 984, elapsed: 0.0005359649658203125
ell 983, elapsed: 0.0005710124969482422
ell 982, elapsed: 0.0005538463592529297
ell 981, elapsed: 0.0006749629974365234
ell 980, elapsed: 0.0005400180816650391
ell 979, elapsed: 0.0006339550018310547
ell 978, elapsed: 0.0007441043853759766
ell 977, elapsed: 0.0006840229034423828
ell 976, elapsed: 0.0006189346313476562
ell 975, elapsed: 0.0006949901580810547
ell 974, elapsed: 0.0005979537963867188
ell 973, elapsed: 0.0006630420684814453
ell 972, elapsed: 0.0005431175231933594
ell 971, elapsed: 0.0006661415100097656
ell 970, elapsed: 0.0004749298095703125
ell 969, elapsed: 0.0006098747253417969
ell 968, elapsed: 0.0005879402160644531
ell 967, elapsed: 0.0006630420684814453
ell 966, elapsed: 0.0006160736083984375
ell 965, elapsed: 0.0006170272827148438
ell 964, elapsed: 0.0004379749298095703
ell 963, elapsed: 0.0004258155822753906
ell 962, elapsed: 0.00036597251892089844
ell 961, elapsed: 0.0006380081176757812
ell 960, elapsed: 0.0005178451538085938
ell 959, elapsed: 0.0006978511810302734
ell 958, elapsed: 0.0005240440368652344
ell 957, elapsed: 0.0006778240203857422
ell 956, elapsed: 0.0005958080291748047
ell 955, elapsed: 0.0006711483001708984
ell 954, elapsed: 0.0004968643188476562
ell 953, elapsed: 0.0006589889526367188
ell 952, elapsed: 0.0006048679351806641
ell 951, elapsed: 0.0006868839263916016
ell 950, elapsed: 0.0005919933319091797
ell 949, elapsed: 0.0006580352783203125
ell 948, elapsed: 0.0005857944488525391
ell 947, elapsed: 0.0008080005645751953
ell 946, elapsed: 0.0005888938903808594
ell 945, elapsed: 0.0006489753723144531
ell 944, elapsed: 0.0005881786346435547
ell 943, elapsed: 0.0005459785461425781
ell 942, elapsed: 0.000370025634765625
ell 941, elapsed: 0.0005199909210205078
ell 940, elapsed: 0.0004558563232421875
ell 939, elapsed: 0.0006799697875976562
ell 938, elapsed: 0.0006191730499267578
ell 937, elapsed: 0.0006029605865478516
ell 936, elapsed: 0.0005300045013427734
ell 935, elapsed: 0.0008220672607421875
ell 934, elapsed: 0.0006170272827148438
ell 933, elapsed: 0.0007059574127197266
ell 932, elapsed: 0.0006170272827148438
ell 931, elapsed: 0.0007219314575195312
ell 930, elapsed: 0.0006301403045654297
ell 929, elapsed: 0.0008258819580078125
ell 928, elapsed: 0.0005190372467041016
ell 927, elapsed: 0.0006260871887207031
ell 926, elapsed: 0.0005419254302978516
ell 925, elapsed: 0.0006279945373535156
ell 924, elapsed: 0.0004930496215820312
ell 923, elapsed: 0.0008149147033691406
ell 922, elapsed: 0.0006010532379150391
ell 921, elapsed: 0.0006351470947265625
ell 920, elapsed: 0.0005059242248535156
ell 919, elapsed: 0.0005669593811035156
ell 918, elapsed: 0.0004999637603759766
ell 917, elapsed: 0.0008242130279541016
ell 916, elapsed: 0.0005218982696533203
ell 915, elapsed: 0.000637054443359375
ell 914, elapsed: 0.0005490779876708984
ell 913, elapsed: 0.0006349086761474609
ell 912, elapsed: 0.0005309581756591797
ell 911, elapsed: 0.000843048095703125
ell 910, elapsed: 0.0004329681396484375
ell 909, elapsed: 0.00045108795166015625
ell 908, elapsed: 0.00038886070251464844
ell 907, elapsed: 0.0004401206970214844
ell 906, elapsed: 0.00038695335388183594
ell 905, elapsed: 0.0004429817199707031
ell 904, elapsed: 0.0003800392150878906
ell 903, elapsed: 0.0004451274871826172
ell 902, elapsed: 0.00039005279541015625
ell 901, elapsed: 0.0004429817199707031
ell 900, elapsed: 0.0003809928894042969
ell 899, elapsed: 0.00044608116149902344
ell 898, elapsed: 0.0003781318664550781
ell 897, elapsed: 0.00043201446533203125
ell 896, elapsed: 0.0003790855407714844
ell 895, elapsed: 0.0004420280456542969
ell 894, elapsed: 0.000476837158203125
ell 893, elapsed: 0.0004489421844482422
ell 892, elapsed: 0.0003809928894042969
ell 891, elapsed: 0.0004401206970214844
ell 890, elapsed: 0.0003819465637207031
ell 889, elapsed: 0.0004448890686035156
ell 888, elapsed: 0.0003790855407714844
ell 887, elapsed: 0.00042700767517089844
ell 886, elapsed: 0.0003769397735595703
ell 885, elapsed: 0.0005350112915039062
ell 884, elapsed: 0.0003821849822998047
ell 883, elapsed: 0.0004410743713378906
ell 882, elapsed: 0.0003848075866699219
ell 881, elapsed: 0.0004420280456542969
ell 880, elapsed: 0.0003809928894042969
ell 879, elapsed: 0.00043511390686035156
ell 878, elapsed: 0.00037407875061035156
ell 877, elapsed: 0.00043201446533203125
ell 876, elapsed: 0.00048613548278808594
ell 875, elapsed: 0.00044798851013183594
ell 874, elapsed: 0.0003771781921386719
ell 873, elapsed: 0.0004410743713378906
ell 872, elapsed: 0.0003781318664550781
ell 871, elapsed: 0.0004391670227050781
ell 870, elapsed: 0.0004470348358154297
ell 869, elapsed: 0.0005719661712646484
ell 868, elapsed: 0.0003991127014160156
ell 867, elapsed: 0.0005638599395751953
ell 866, elapsed: 0.0004019737243652344
ell 865, elapsed: 0.00045800209045410156
ell 864, elapsed: 0.0004010200500488281
ell 863, elapsed: 0.00047397613525390625
ell 862, elapsed: 0.0004010200500488281
ell 861, elapsed: 0.0004611015319824219
ell 860, elapsed: 0.00039887428283691406
ell 859, elapsed: 0.0005810260772705078
ell 858, elapsed: 0.0004010200500488281
ell 857, elapsed: 0.0004589557647705078
ell 856, elapsed: 0.00039887428283691406
ell 855, elapsed: 0.00045609474182128906
ell 854, elapsed: 0.0004010200500488281
ell 853, elapsed: 0.0004620552062988281
ell 852, elapsed: 0.00039696693420410156
ell 851, elapsed: 0.0005650520324707031
ell 850, elapsed: 0.0004050731658935547
ell 849, elapsed: 0.00046896934509277344
ell 848, elapsed: 0.0004050731658935547
ell 847, elapsed: 0.00045990943908691406
ell 846, elapsed: 0.0004010200500488281
ell 845, elapsed: 0.0004630088806152344
ell 844, elapsed: 0.0004010200500488281
ell 843, elapsed: 0.00046706199645996094
ell 842, elapsed: 0.00043201446533203125
ell 841, elapsed: 0.0005929470062255859
ell 840, elapsed: 0.0005011558532714844
ell 839, elapsed: 0.0006670951843261719
ell 838, elapsed: 0.0005221366882324219
ell 837, elapsed: 0.0004711151123046875
ell 836, elapsed: 0.0004050731658935547
ell 835, elapsed: 0.0005090236663818359
ell 834, elapsed: 0.0004169940948486328
ell 833, elapsed: 0.0004608631134033203
ell 832, elapsed: 0.0004031658172607422
ell 831, elapsed: 0.00046515464782714844
ell 830, elapsed: 0.0004019737243652344
ell 829, elapsed: 0.00047206878662109375
ell 828, elapsed: 0.0004069805145263672
ell 827, elapsed: 0.0004899501800537109
ell 826, elapsed: 0.000415802001953125
ell 825, elapsed: 0.00047898292541503906
ell 824, elapsed: 0.00040793418884277344
ell 823, elapsed: 0.0004668235778808594
ell 822, elapsed: 0.0004050731658935547
ell 821, elapsed: 0.00046896934509277344
ell 820, elapsed: 0.0004069805145263672
ell 819, elapsed: 0.0005278587341308594
ell 818, elapsed: 0.00039315223693847656
ell 817, elapsed: 0.0004520416259765625
ell 816, elapsed: 0.0005140304565429688
ell 815, elapsed: 0.0006721019744873047
ell 814, elapsed: 0.0005960464477539062
ell 813, elapsed: 0.0005729198455810547
ell 812, elapsed: 0.0005638599395751953
ell 811, elapsed: 0.0005319118499755859
ell 810, elapsed: 0.0003750324249267578
ell 809, elapsed: 0.0005691051483154297
ell 808, elapsed: 0.0005838871002197266
ell 807, elapsed: 0.0006661415100097656
ell 806, elapsed: 0.0004630088806152344
ell 805, elapsed: 0.0006639957427978516
ell 804, elapsed: 0.00047707557678222656
ell 803, elapsed: 0.0006139278411865234
ell 802, elapsed: 0.0005929470062255859
ell 801, elapsed: 0.00067901611328125
ell 800, elapsed: 0.000576019287109375
ell 799, elapsed: 0.0007090568542480469
ell 798, elapsed: 0.0005259513854980469
ell 797, elapsed: 0.0006110668182373047
ell 796, elapsed: 0.0005290508270263672
ell 795, elapsed: 0.0005400180816650391
ell 794, elapsed: 0.0003771781921386719
ell 793, elapsed: 0.0004398822784423828
ell 792, elapsed: 0.0003788471221923828
ell 791, elapsed: 0.0006098747253417969
ell 790, elapsed: 0.0006108283996582031
ell 789, elapsed: 0.0005269050598144531
ell 788, elapsed: 0.0005450248718261719
ell 787, elapsed: 0.0006849765777587891
ell 786, elapsed: 0.0004990100860595703
ell 785, elapsed: 0.0006670951843261719
ell 784, elapsed: 0.0004620552062988281
ell 783, elapsed: 0.0006480216979980469
ell 782, elapsed: 0.0005269050598144531
ell 781, elapsed: 0.0006380081176757812
ell 780, elapsed: 0.0006029605865478516
ell 779, elapsed: 0.0007381439208984375
ell 778, elapsed: 0.0005168914794921875
ell 777, elapsed: 0.0005841255187988281
ell 776, elapsed: 0.0005829334259033203
ell 775, elapsed: 0.0006759166717529297
ell 774, elapsed: 0.0004439353942871094
ell 773, elapsed: 0.0005950927734375
ell 772, elapsed: 0.0006210803985595703
ell 771, elapsed: 0.0005810260772705078
ell 770, elapsed: 0.0003800392150878906
ell 769, elapsed: 0.0004429817199707031
ell 768, elapsed: 0.0005049705505371094
ell 767, elapsed: 0.0005609989166259766
ell 766, elapsed: 0.00038504600524902344
ell 765, elapsed: 0.0004839897155761719
ell 764, elapsed: 0.0005478858947753906
ell 763, elapsed: 0.0006909370422363281
ell 762, elapsed: 0.0005700588226318359
ell 761, elapsed: 0.0006859302520751953
ell 760, elapsed: 0.0005888938903808594
ell 759, elapsed: 0.0005910396575927734
ell 758, elapsed: 0.0004780292510986328
ell 757, elapsed: 0.0006709098815917969
ell 756, elapsed: 0.0005159378051757812
ell 755, elapsed: 0.0005960464477539062
ell 754, elapsed: 0.0006129741668701172
ell 753, elapsed: 0.0006308555603027344
ell 752, elapsed: 0.000576019287109375
ell 751, elapsed: 0.0005698204040527344
ell 750, elapsed: 0.000576019287109375
ell 749, elapsed: 0.0006361007690429688
ell 748, elapsed: 0.0005559921264648438
ell 747, elapsed: 0.0006749629974365234
ell 746, elapsed: 0.0005218982696533203
ell 745, elapsed: 0.0006468296051025391
ell 744, elapsed: 0.0005419254302978516
ell 743, elapsed: 0.0006380081176757812
ell 742, elapsed: 0.0005469322204589844
ell 741, elapsed: 0.0006661415100097656
ell 740, elapsed: 0.0005648136138916016
ell 739, elapsed: 0.000659942626953125
ell 738, elapsed: 0.0006220340728759766
ell 737, elapsed: 0.0006198883056640625
ell 736, elapsed: 0.0005400180816650391
ell 735, elapsed: 0.0006959438323974609
ell 734, elapsed: 0.00048804283142089844
ell 733, elapsed: 0.000720977783203125
ell 732, elapsed: 0.0005049705505371094
ell 731, elapsed: 0.0006380081176757812
ell 730, elapsed: 0.00038814544677734375
ell 729, elapsed: 0.0004551410675048828
ell 728, elapsed: 0.0003848075866699219
ell 727, elapsed: 0.0004489421844482422
ell 726, elapsed: 0.0005941390991210938
ell 725, elapsed: 0.0007028579711914062
ell 724, elapsed: 0.0006129741668701172
ell 723, elapsed: 0.0006399154663085938
ell 722, elapsed: 0.00039005279541015625
ell 721, elapsed: 0.0006730556488037109
ell 720, elapsed: 0.0004940032958984375
ell 719, elapsed: 0.0006499290466308594
ell 718, elapsed: 0.00045800209045410156
ell 717, elapsed: 0.0004589557647705078
ell 716, elapsed: 0.00038814544677734375
ell 715, elapsed: 0.0006318092346191406
ell 714, elapsed: 0.0004570484161376953
ell 713, elapsed: 0.0005939006805419922
ell 712, elapsed: 0.0005071163177490234
ell 711, elapsed: 0.0004489421844482422
ell 710, elapsed: 0.00038814544677734375
ell 709, elapsed: 0.0004520416259765625
ell 708, elapsed: 0.00036978721618652344
ell 707, elapsed: 0.0006108283996582031
ell 706, elapsed: 0.0005471706390380859
ell 705, elapsed: 0.00061798095703125
ell 704, elapsed: 0.00039315223693847656
ell 703, elapsed: 0.0005609989166259766
ell 702, elapsed: 0.0005030632019042969
ell 701, elapsed: 0.00042700767517089844
ell 700, elapsed: 0.0004680156707763672
ell 699, elapsed: 0.0006780624389648438
ell 698, elapsed: 0.0006089210510253906
ell 697, elapsed: 0.0006659030914306641
ell 696, elapsed: 0.0005807876586914062
ell 695, elapsed: 0.0006659030914306641
ell 694, elapsed: 0.0005850791931152344
ell 693, elapsed: 0.0005300045013427734
ell 692, elapsed: 0.0005609989166259766
ell 691, elapsed: 0.0005319118499755859
ell 690, elapsed: 0.00044608116149902344
ell 689, elapsed: 0.0006129741668701172
ell 688, elapsed: 0.0004711151123046875
ell 687, elapsed: 0.0006868839263916016
ell 686, elapsed: 0.0005240440368652344
ell 685, elapsed: 0.0006220340728759766
ell 684, elapsed: 0.0005869865417480469
ell 683, elapsed: 0.0005328655242919922
ell 682, elapsed: 0.0005381107330322266
ell 681, elapsed: 0.0006699562072753906
ell 680, elapsed: 0.0005960464477539062
ell 679, elapsed: 0.0006899833679199219
ell 678, elapsed: 0.0005900859832763672
ell 677, elapsed: 0.0006101131439208984
ell 676, elapsed: 0.0003809928894042969
ell 675, elapsed: 0.0004489421844482422
ell 674, elapsed: 0.00038814544677734375
ell 673, elapsed: 0.0004341602325439453
ell 672, elapsed: 0.00039505958557128906
ell 671, elapsed: 0.0004730224609375
ell 670, elapsed: 0.0003859996795654297
ell 669, elapsed: 0.0006039142608642578
ell 668, elapsed: 0.0004649162292480469
ell 667, elapsed: 0.0006470680236816406
ell 666, elapsed: 0.0006039142608642578
ell 665, elapsed: 0.0006759166717529297
ell 664, elapsed: 0.0006108283996582031
ell 663, elapsed: 0.0006780624389648438
ell 662, elapsed: 0.0006000995635986328
ell 661, elapsed: 0.0006771087646484375
ell 660, elapsed: 0.0005280971527099609
ell 659, elapsed: 0.0004279613494873047
ell 658, elapsed: 0.0005078315734863281
ell 657, elapsed: 0.000682830810546875
ell 656, elapsed: 0.00047206878662109375
ell 655, elapsed: 0.0005931854248046875
ell 654, elapsed: 0.0006070137023925781
ell 653, elapsed: 0.0006771087646484375
ell 652, elapsed: 0.0006098747253417969
ell 651, elapsed: 0.0005970001220703125
ell 650, elapsed: 0.00036907196044921875
ell 649, elapsed: 0.0005819797515869141
ell 648, elapsed: 0.0005919933319091797
ell 647, elapsed: 0.0005578994750976562
ell 646, elapsed: 0.0005140304565429688
ell 645, elapsed: 0.0006971359252929688
ell 644, elapsed: 0.0006039142608642578
ell 643, elapsed: 0.0005209445953369141
ell 642, elapsed: 0.00036787986755371094
ell 641, elapsed: 0.00042700767517089844
ell 640, elapsed: 0.0005369186401367188
ell 639, elapsed: 0.0006830692291259766
ell 638, elapsed: 0.0005061626434326172
ell 637, elapsed: 0.0005271434783935547
ell 636, elapsed: 0.0006000995635986328
ell 635, elapsed: 0.0006759166717529297
ell 634, elapsed: 0.0005960464477539062
ell 633, elapsed: 0.000598907470703125
ell 632, elapsed: 0.0003809928894042969
ell 631, elapsed: 0.0006041526794433594
ell 630, elapsed: 0.0005970001220703125
ell 629, elapsed: 0.0005738735198974609
ell 628, elapsed: 0.0005309581756591797
ell 627, elapsed: 0.00067901611328125
ell 626, elapsed: 0.0005350112915039062
ell 625, elapsed: 0.0006461143493652344
ell 624, elapsed: 0.0004830360412597656
ell 623, elapsed: 0.0004429817199707031
ell 622, elapsed: 0.00047397613525390625
ell 621, elapsed: 0.0006580352783203125
ell 620, elapsed: 0.0004940032958984375
ell 619, elapsed: 0.0005748271942138672
ell 618, elapsed: 0.0007040500640869141
ell 617, elapsed: 0.0005769729614257812
ell 616, elapsed: 0.0004711151123046875
ell 615, elapsed: 0.0006017684936523438
ell 614, elapsed: 0.0005640983581542969
ell 613, elapsed: 0.0006921291351318359
ell 612, elapsed: 0.0005650520324707031
ell 611, elapsed: 0.00044417381286621094
ell 610, elapsed: 0.0004658699035644531
ell 609, elapsed: 0.0006079673767089844
ell 608, elapsed: 0.0004889965057373047
ell 607, elapsed: 0.0006690025329589844
ell 606, elapsed: 0.0004761219024658203
ell 605, elapsed: 0.0004169940948486328
ell 604, elapsed: 0.00038504600524902344
ell 603, elapsed: 0.00044083595275878906
ell 602, elapsed: 0.0005049705505371094
ell 601, elapsed: 0.0005550384521484375
ell 600, elapsed: 0.0005328655242919922
ell 599, elapsed: 0.0006701946258544922
ell 598, elapsed: 0.0004439353942871094
ell 597, elapsed: 0.0006899833679199219
ell 596, elapsed: 0.0004730224609375
ell 595, elapsed: 0.00043010711669921875
ell 594, elapsed: 0.000370025634765625
ell 593, elapsed: 0.0004508495330810547
ell 592, elapsed: 0.0005669593811035156
ell 591, elapsed: 0.0007119178771972656
ell 590, elapsed: 0.0006480216979980469
ell 589, elapsed: 0.0007050037384033203
ell 588, elapsed: 0.0006110668182373047
ell 587, elapsed: 0.0005321502685546875
ell 586, elapsed: 0.0005450248718261719
ell 585, elapsed: 0.00067901611328125
ell 584, elapsed: 0.0005369186401367188
ell 583, elapsed: 0.0006229877471923828
ell 582, elapsed: 0.0005300045013427734
ell 581, elapsed: 0.0004239082336425781
ell 580, elapsed: 0.0005400180816650391
ell 579, elapsed: 0.0005319118499755859
ell 578, elapsed: 0.0003790855407714844
ell 577, elapsed: 0.0005700588226318359
ell 576, elapsed: 0.0005128383636474609
ell 575, elapsed: 0.0005559921264648438
ell 574, elapsed: 0.0005259513854980469
ell 573, elapsed: 0.0004410743713378906
ell 572, elapsed: 0.0005040168762207031
ell 571, elapsed: 0.0006668567657470703
ell 570, elapsed: 0.0004968643188476562
ell 569, elapsed: 0.000598907470703125
ell 568, elapsed: 0.0006079673767089844
ell 567, elapsed: 0.0006890296936035156
ell 566, elapsed: 0.0005140304565429688
ell 565, elapsed: 0.0005991458892822266
ell 564, elapsed: 0.0004930496215820312
ell 563, elapsed: 0.00045299530029296875
ell 562, elapsed: 0.00047397613525390625
ell 561, elapsed: 0.0006048679351806641
ell 560, elapsed: 0.0004930496215820312
ell 559, elapsed: 0.0006809234619140625
ell 558, elapsed: 0.0005650520324707031
ell 557, elapsed: 0.0007078647613525391
ell 556, elapsed: 0.0005190372467041016
ell 555, elapsed: 0.0005919933319091797
ell 554, elapsed: 0.0004620552062988281
ell 553, elapsed: 0.00042891502380371094
ell 552, elapsed: 0.0005428791046142578
ell 551, elapsed: 0.0005810260772705078
ell 550, elapsed: 0.0003769397735595703
ell 549, elapsed: 0.0005488395690917969
ell 548, elapsed: 0.0006079673767089844
ell 547, elapsed: 0.000682830810546875
ell 546, elapsed: 0.0005090236663818359
ell 545, elapsed: 0.0005979537963867188
ell 544, elapsed: 0.00046896934509277344
ell 543, elapsed: 0.0006108283996582031
ell 542, elapsed: 0.0005960464477539062
ell 541, elapsed: 0.0005681514739990234
ell 540, elapsed: 0.0005359649658203125
ell 539, elapsed: 0.0006759166717529297
ell 538, elapsed: 0.0006008148193359375
ell 537, elapsed: 0.0006990432739257812
ell 536, elapsed: 0.0005199909210205078
ell 535, elapsed: 0.00045299530029296875
ell 534, elapsed: 0.0005509853363037109
ell 533, elapsed: 0.0007030963897705078
ell 532, elapsed: 0.0006048679351806641
ell 531, elapsed: 0.0007021427154541016
ell 530, elapsed: 0.0005431175231933594
ell 529, elapsed: 0.0004630088806152344
ell 528, elapsed: 0.0004968643188476562
ell 527, elapsed: 0.0006740093231201172
ell 526, elapsed: 0.0005900859832763672
ell 525, elapsed: 0.0006730556488037109
ell 524, elapsed: 0.0004761219024658203
ell 523, elapsed: 0.0006060600280761719
ell 522, elapsed: 0.0005941390991210938
ell 521, elapsed: 0.0005741119384765625
ell 520, elapsed: 0.0005600452423095703
ell 519, elapsed: 0.0005421638488769531
ell 518, elapsed: 0.0005309581756591797
ell 517, elapsed: 0.0006940364837646484
ell 516, elapsed: 0.0006029605865478516
ell 515, elapsed: 0.0005810260772705078
ell 514, elapsed: 0.0005409717559814453
ell 513, elapsed: 0.000682830810546875
ell 512, elapsed: 0.0005350112915039062
ell 511, elapsed: 0.00045013427734375
ell 510, elapsed: 0.00037288665771484375
ell 509, elapsed: 0.0005350112915039062
ell 508, elapsed: 0.0006039142608642578
ell 507, elapsed: 0.0006210803985595703
ell 506, elapsed: 0.0005650520324707031
ell 505, elapsed: 0.0006718635559082031
ell 504, elapsed: 0.0006170272827148438
ell 503, elapsed: 0.0005919933319091797
ell 502, elapsed: 0.0003800392150878906
ell 501, elapsed: 0.0005609989166259766
ell 500, elapsed: 0.0005979537963867188
ell 499, elapsed: 0.0006051063537597656
ell 498, elapsed: 0.0003681182861328125
ell 497, elapsed: 0.0006020069122314453
ell 496, elapsed: 0.0005199909210205078
ell 495, elapsed: 0.0004329681396484375
ell 494, elapsed: 0.0005059242248535156
ell 493, elapsed: 0.0006849765777587891
ell 492, elapsed: 0.0004818439483642578
ell 491, elapsed: 0.0006139278411865234
ell 490, elapsed: 0.0005009174346923828
ell 489, elapsed: 0.0006129741668701172
ell 488, elapsed: 0.000476837158203125
ell 487, elapsed: 0.00043082237243652344
ell 486, elapsed: 0.0005230903625488281
ell 485, elapsed: 0.0006611347198486328
ell 484, elapsed: 0.0005779266357421875
ell 483, elapsed: 0.0005810260772705078
ell 482, elapsed: 0.0005340576171875
ell 481, elapsed: 0.0007040500640869141
ell 480, elapsed: 0.0006170272827148438
ell 479, elapsed: 0.0005559921264648438
ell 478, elapsed: 0.0005109310150146484
ell 477, elapsed: 0.0006558895111083984
ell 476, elapsed: 0.0005180835723876953
ell 475, elapsed: 0.0006849765777587891
ell 474, elapsed: 0.0005819797515869141
ell 473, elapsed: 0.0005350112915039062
ell 472, elapsed: 0.00044989585876464844
ell 471, elapsed: 0.0006458759307861328
ell 470, elapsed: 0.0005481243133544922
ell 469, elapsed: 0.0006890296936035156
ell 468, elapsed: 0.0006191730499267578
ell 467, elapsed: 0.0006909370422363281
ell 466, elapsed: 0.0005409717559814453
ell 465, elapsed: 0.0005700588226318359
ell 464, elapsed: 0.0004839897155761719
ell 463, elapsed: 0.0004398822784423828
ell 462, elapsed: 0.00036787986755371094
ell 461, elapsed: 0.0004291534423828125
ell 460, elapsed: 0.00037097930908203125
ell 459, elapsed: 0.0004398822784423828
ell 458, elapsed: 0.0003650188446044922
ell 457, elapsed: 0.00043487548828125
ell 456, elapsed: 0.0005319118499755859
ell 455, elapsed: 0.0006129741668701172
ell 454, elapsed: 0.0006000995635986328
ell 453, elapsed: 0.0006971359252929688
ell 452, elapsed: 0.0004711151123046875
ell 451, elapsed: 0.0006499290466308594
ell 450, elapsed: 0.0005300045013427734
ell 449, elapsed: 0.0006439685821533203
ell 448, elapsed: 0.0006031990051269531
ell 447, elapsed: 0.0006139278411865234
ell 446, elapsed: 0.0003879070281982422
ell 445, elapsed: 0.0006160736083984375
ell 444, elapsed: 0.0004730224609375
ell 443, elapsed: 0.0005469322204589844
ell 442, elapsed: 0.00038695335388183594
ell 441, elapsed: 0.00045990943908691406
ell 440, elapsed: 0.0003981590270996094
ell 439, elapsed: 0.0006351470947265625
ell 438, elapsed: 0.0006268024444580078
ell 437, elapsed: 0.0006899833679199219
ell 436, elapsed: 0.0005509853363037109
ell 435, elapsed: 0.0006101131439208984
ell 434, elapsed: 0.0006158351898193359
ell 433, elapsed: 0.0005478858947753906
ell 432, elapsed: 0.0003669261932373047
ell 431, elapsed: 0.0005850791931152344
ell 430, elapsed: 0.0004849433898925781
ell 429, elapsed: 0.0007457733154296875
ell 428, elapsed: 0.0004940032958984375
ell 427, elapsed: 0.0006349086761474609
ell 426, elapsed: 0.00045299530029296875
ell 425, elapsed: 0.0004398822784423828
ell 424, elapsed: 0.0003910064697265625
ell 423, elapsed: 0.0006310939788818359
ell 422, elapsed: 0.0005750656127929688
ell 421, elapsed: 0.00045490264892578125
ell 420, elapsed: 0.000392913818359375
ell 419, elapsed: 0.0004570484161376953
ell 418, elapsed: 0.0005331039428710938
ell 417, elapsed: 0.0005509853363037109
ell 416, elapsed: 0.0003879070281982422
ell 415, elapsed: 0.0004558563232421875
ell 414, elapsed: 0.0006620883941650391
ell 413, elapsed: 0.00044918060302734375
ell 412, elapsed: 0.0005259513854980469
ell 411, elapsed: 0.0006611347198486328
ell 410, elapsed: 0.0005159378051757812
ell 409, elapsed: 0.0005908012390136719
ell 408, elapsed: 0.0010061264038085938
ell 407, elapsed: 0.0006220340728759766
ell 406, elapsed: 0.0005390644073486328
ell 405, elapsed: 0.0004241466522216797
ell 404, elapsed: 0.00036597251892089844
ell 403, elapsed: 0.00043702125549316406
ell 402, elapsed: 0.0003819465637207031
ell 401, elapsed: 0.00043487548828125
ell 400, elapsed: 0.00036597251892089844
ell 399, elapsed: 0.0005381107330322266
ell 398, elapsed: 0.0006010532379150391
ell 397, elapsed: 0.0006909370422363281
ell 396, elapsed: 0.0005979537963867188
ell 395, elapsed: 0.0005059242248535156
ell 394, elapsed: 0.0007929801940917969
ell 393, elapsed: 0.0006852149963378906
ell 392, elapsed: 0.000598907470703125
ell 391, elapsed: 0.0005588531494140625
ell 390, elapsed: 0.00045490264892578125
ell 389, elapsed: 0.0005998611450195312
ell 388, elapsed: 0.0006759166717529297
ell 387, elapsed: 0.0005590915679931641
ell 386, elapsed: 0.0006051063537597656
ell 385, elapsed: 0.0006968975067138672
ell 384, elapsed: 0.00044608116149902344
ell 383, elapsed: 0.00042700767517089844
ell 382, elapsed: 0.0004930496215820312
ell 381, elapsed: 0.0008349418640136719
ell 380, elapsed: 0.00047397613525390625
ell 379, elapsed: 0.0006189346313476562
ell 378, elapsed: 0.0005130767822265625
ell 377, elapsed: 0.0007009506225585938
ell 376, elapsed: 0.0005359649658203125
ell 375, elapsed: 0.0008881092071533203
ell 374, elapsed: 0.0005991458892822266
ell 373, elapsed: 0.0005311965942382812
ell 372, elapsed: 0.00045490264892578125
ell 371, elapsed: 0.0006780624389648438
ell 370, elapsed: 0.0005199909210205078
ell 369, elapsed: 0.0008471012115478516
ell 368, elapsed: 0.0005040168762207031
ell 367, elapsed: 0.0006229877471923828
ell 366, elapsed: 0.0004470348358154297
ell 365, elapsed: 0.0006330013275146484
ell 364, elapsed: 0.0005850791931152344
ell 363, elapsed: 0.0008740425109863281
ell 362, elapsed: 0.00037097930908203125
ell 361, elapsed: 0.00044989585876464844
ell 360, elapsed: 0.0005419254302978516
ell 359, elapsed: 0.0005481243133544922
ell 358, elapsed: 0.0004749298095703125
ell 357, elapsed: 0.0006730556488037109
ell 356, elapsed: 0.0010221004486083984
ell 355, elapsed: 0.0006871223449707031
ell 354, elapsed: 0.0005919933319091797
ell 353, elapsed: 0.0006120204925537109
ell 352, elapsed: 0.0004968643188476562
ell 351, elapsed: 0.0009360313415527344
ell 350, elapsed: 0.00043892860412597656
ell 349, elapsed: 0.0004410743713378906
ell 348, elapsed: 0.0005390644073486328
ell 347, elapsed: 0.0006940364837646484
ell 346, elapsed: 0.0006198883056640625
ell 345, elapsed: 0.0008270740509033203
ell 344, elapsed: 0.0004088878631591797
ell 343, elapsed: 0.0005590915679931641
ell 342, elapsed: 0.0006210803985595703
ell 341, elapsed: 0.0005781650543212891
ell 340, elapsed: 0.00045609474182128906
ell 339, elapsed: 0.0006189346313476562
ell 338, elapsed: 0.0005598068237304688
ell 337, elapsed: 0.0005810260772705078
ell 336, elapsed: 0.0005068778991699219
ell 335, elapsed: 0.0006129741668701172
ell 334, elapsed: 0.0005359649658203125
ell 333, elapsed: 0.0006899833679199219
ell 332, elapsed: 0.0005700588226318359
ell 331, elapsed: 0.0006229877471923828
ell 330, elapsed: 0.0005750656127929688
ell 329, elapsed: 0.0005321502685546875
ell 328, elapsed: 0.00038504600524902344
ell 327, elapsed: 0.0006558895111083984
ell 326, elapsed: 0.0006258487701416016
ell 325, elapsed: 0.0005741119384765625
ell 324, elapsed: 0.0005700588226318359
ell 323, elapsed: 0.0005779266357421875
ell 322, elapsed: 0.0003979206085205078
ell 321, elapsed: 0.0004382133483886719
ell 320, elapsed: 0.00039196014404296875
ell 319, elapsed: 0.0005788803100585938
ell 318, elapsed: 0.0006229877471923828
ell 317, elapsed: 0.0005929470062255859
ell 316, elapsed: 0.0003781318664550781
ell 315, elapsed: 0.0005769729614257812
ell 314, elapsed: 0.0004918575286865234
ell 313, elapsed: 0.0006291866302490234
ell 312, elapsed: 0.00047087669372558594
ell 311, elapsed: 0.0005419254302978516
ell 310, elapsed: 0.000392913818359375
ell 309, elapsed: 0.0005400180816650391
ell 308, elapsed: 0.0005488395690917969
ell 307, elapsed: 0.0004382133483886719
ell 306, elapsed: 0.0005581378936767578
ell 305, elapsed: 0.0005290508270263672
ell 304, elapsed: 0.0006699562072753906
ell 303, elapsed: 0.0006000995635986328
ell 302, elapsed: 0.0005340576171875
ell 301, elapsed: 0.0006189346313476562
ell 300, elapsed: 0.0004930496215820312
ell 299, elapsed: 0.0006449222564697266
ell 298, elapsed: 0.0004668235778808594
ell 297, elapsed: 0.0005738735198974609
ell 296, elapsed: 0.00039005279541015625
ell 295, elapsed: 0.0004639625549316406
ell 294, elapsed: 0.0004031658172607422
ell 293, elapsed: 0.0005350112915039062
ell 292, elapsed: 0.0006101131439208984
ell 291, elapsed: 0.0006928443908691406
ell 290, elapsed: 0.0006101131439208984
ell 289, elapsed: 0.0006480216979980469
ell 288, elapsed: 0.0004940032958984375
ell 287, elapsed: 0.00044417381286621094
ell 286, elapsed: 0.0003819465637207031
ell 285, elapsed: 0.0005528926849365234
ell 284, elapsed: 0.0005328655242919922
ell 283, elapsed: 0.0005431175231933594
ell 282, elapsed: 0.00038909912109375
ell 281, elapsed: 0.000453948974609375
ell 280, elapsed: 0.00048613548278808594
ell 279, elapsed: 0.0006930828094482422
ell 278, elapsed: 0.0005099773406982422
ell 277, elapsed: 0.0006089210510253906
ell 276, elapsed: 0.0006308555603027344
ell 275, elapsed: 0.0004341602325439453
ell 274, elapsed: 0.00036716461181640625
ell 273, elapsed: 0.00043487548828125
ell 272, elapsed: 0.0003781318664550781
ell 271, elapsed: 0.00045299530029296875
ell 270, elapsed: 0.0003819465637207031
ell 269, elapsed: 0.00044608116149902344
ell 268, elapsed: 0.00046706199645996094
ell 267, elapsed: 0.0007128715515136719
ell 266, elapsed: 0.0006029605865478516
ell 265, elapsed: 0.0006921291351318359
ell 264, elapsed: 0.0005939006805419922
ell 263, elapsed: 0.0006940364837646484
ell 262, elapsed: 0.0007328987121582031
ell 261, elapsed: 0.0006380081176757812
ell 260, elapsed: 0.0005381107330322266
ell 259, elapsed: 0.0004420280456542969
ell 258, elapsed: 0.0004971027374267578
ell 257, elapsed: 0.000701904296875
ell 256, elapsed: 0.0006780624389648438
ell 255, elapsed: 0.0005521774291992188
ell 254, elapsed: 0.0003948211669921875
ell 253, elapsed: 0.0004489421844482422
ell 252, elapsed: 0.00039005279541015625
ell 251, elapsed: 0.00045180320739746094
ell 250, elapsed: 0.0003731250762939453
ell 249, elapsed: 0.0005950927734375
ell 248, elapsed: 0.000576019287109375
ell 247, elapsed: 0.0004508495330810547
ell 246, elapsed: 0.00045490264892578125
ell 245, elapsed: 0.0006899833679199219
ell 244, elapsed: 0.0006039142608642578
ell 243, elapsed: 0.0005369186401367188
ell 242, elapsed: 0.0005540847778320312
ell 241, elapsed: 0.0008130073547363281
ell 240, elapsed: 0.0006089210510253906
ell 239, elapsed: 0.0006029605865478516
ell 238, elapsed: 0.0005099773406982422
ell 237, elapsed: 0.0006749629974365234
ell 236, elapsed: 0.0006079673767089844
ell 235, elapsed: 0.0006120204925537109
ell 234, elapsed: 0.0005438327789306641
ell 233, elapsed: 0.0006918907165527344
ell 232, elapsed: 0.0006098747253417969
ell 231, elapsed: 0.0006899833679199219
ell 230, elapsed: 0.0006058216094970703
ell 229, elapsed: 0.0005869865417480469
ell 228, elapsed: 0.0003669261932373047
ell 227, elapsed: 0.0004458427429199219
ell 226, elapsed: 0.0005581378936767578
ell 225, elapsed: 0.0005509853363037109
ell 224, elapsed: 0.000370025634765625
ell 223, elapsed: 0.0004298686981201172
ell 222, elapsed: 0.0005018711090087891
ell 221, elapsed: 0.0004489421844482422
ell 220, elapsed: 0.0005180835723876953
ell 219, elapsed: 0.0005838871002197266
ell 218, elapsed: 0.0005300045013427734
ell 217, elapsed: 0.0006210803985595703
ell 216, elapsed: 0.0003960132598876953
ell 215, elapsed: 0.0007798671722412109
ell 214, elapsed: 0.0004000663757324219
ell 213, elapsed: 0.0006158351898193359
ell 212, elapsed: 0.0005419254302978516
ell 211, elapsed: 0.0005850791931152344
ell 210, elapsed: 0.0005221366882324219
ell 209, elapsed: 0.0004429817199707031
ell 208, elapsed: 0.00047898292541503906
ell 207, elapsed: 0.0006268024444580078
ell 206, elapsed: 0.0005080699920654297
ell 205, elapsed: 0.0004379749298095703
ell 204, elapsed: 0.00037407875061035156
ell 203, elapsed: 0.00044417381286621094
ell 202, elapsed: 0.00037598609924316406
ell 201, elapsed: 0.0006198883056640625
ell 200, elapsed: 0.0007369518280029297
ell 199, elapsed: 0.0005288124084472656
ell 198, elapsed: 0.000392913818359375
ell 197, elapsed: 0.0005311965942382812
ell 196, elapsed: 0.0006148815155029297
ell 195, elapsed: 0.0005619525909423828
ell 194, elapsed: 0.000659942626953125
ell 193, elapsed: 0.0005419254302978516
ell 192, elapsed: 0.00039887428283691406
ell 191, elapsed: 0.00045299530029296875
ell 190, elapsed: 0.00039386749267578125
ell 189, elapsed: 0.0006241798400878906
ell 188, elapsed: 0.0005819797515869141
ell 187, elapsed: 0.000782012939453125
ell 186, elapsed: 0.0003859996795654297
ell 185, elapsed: 0.0005578994750976562
ell 184, elapsed: 0.0005869865417480469
ell 183, elapsed: 0.0005741119384765625
ell 182, elapsed: 0.0005369186401367188
ell 181, elapsed: 0.0006699562072753906
ell 180, elapsed: 0.0005369186401367188
ell 179, elapsed: 0.0006170272827148438
ell 178, elapsed: 0.00043487548828125
ell 177, elapsed: 0.0004279613494873047
ell 176, elapsed: 0.0003731250762939453
ell 175, elapsed: 0.0006308555603027344
ell 174, elapsed: 0.0004448890686035156
ell 173, elapsed: 0.00042700767517089844
ell 172, elapsed: 0.0003609657287597656
ell 171, elapsed: 0.0005779266357421875
ell 170, elapsed: 0.0006010532379150391
ell 169, elapsed: 0.0006840229034423828
ell 168, elapsed: 0.0006110668182373047
ell 167, elapsed: 0.0006959438323974609
ell 166, elapsed: 0.0005390644073486328
ell 165, elapsed: 0.00041794776916503906
ell 164, elapsed: 0.0003609657287597656
ell 163, elapsed: 0.00043582916259765625
ell 162, elapsed: 0.0005428791046142578
ell 161, elapsed: 0.0005421638488769531
ell 160, elapsed: 0.0005428791046142578
ell 159, elapsed: 0.000682830810546875
ell 158, elapsed: 0.0004799365997314453
ell 157, elapsed: 0.000431060791015625
ell 156, elapsed: 0.0005471706390380859
ell 155, elapsed: 0.0005018711090087891
ell 154, elapsed: 0.0005209445953369141
ell 153, elapsed: 0.0006670951843261719
ell 152, elapsed: 0.0004589557647705078
ell 151, elapsed: 0.0004470348358154297
ell 150, elapsed: 0.0004961490631103516
ell 149, elapsed: 0.0005729198455810547
ell 148, elapsed: 0.0005431175231933594
ell 147, elapsed: 0.0006999969482421875
ell 146, elapsed: 0.0006089210510253906
ell 145, elapsed: 0.0007569789886474609
ell 144, elapsed: 0.022459030151367188
ell 143, elapsed: 0.00061798095703125
ell 142, elapsed: 0.0005259513854980469
ell 141, elapsed: 0.0006361007690429688
ell 140, elapsed: 0.00040793418884277344
ell 139, elapsed: 0.0006480216979980469
ell 138, elapsed: 0.0006308555603027344
ell 137, elapsed: 0.0005939006805419922
ell 136, elapsed: 0.0005300045013427734
ell 135, elapsed: 0.0005960464477539062
ell 134, elapsed: 0.0005428791046142578
ell 133, elapsed: 0.0005629062652587891
ell 132, elapsed: 0.000392913818359375
ell 131, elapsed: 0.0005478858947753906
ell 130, elapsed: 0.0005300045013427734
ell 129, elapsed: 0.0004489421844482422
ell 128, elapsed: 0.0005199909210205078
ell 127, elapsed: 0.0005970001220703125
ell 126, elapsed: 0.0004811286926269531
ell 125, elapsed: 0.0006079673767089844
ell 124, elapsed: 0.00036597251892089844
ell 123, elapsed: 0.00043201446533203125
ell 122, elapsed: 0.0005180835723876953
ell 121, elapsed: 0.0007128715515136719
ell 120, elapsed: 0.0006208419799804688
ell 119, elapsed: 0.0006840229034423828
ell 118, elapsed: 0.0004589557647705078
ell 117, elapsed: 0.0005691051483154297
ell 116, elapsed: 0.0005340576171875
ell 115, elapsed: 0.0004260540008544922
ell 114, elapsed: 0.0003790855407714844
ell 113, elapsed: 0.0006208419799804688
ell 112, elapsed: 0.0005888938903808594
ell 111, elapsed: 0.0006749629974365234
ell 110, elapsed: 0.0005860328674316406
ell 109, elapsed: 0.0005431175231933594
ell 108, elapsed: 0.0006690025329589844
ell 107, elapsed: 0.0006020069122314453
ell 106, elapsed: 0.0004420280456542969
ell 105, elapsed: 0.0006780624389648438
ell 104, elapsed: 0.0005319118499755859
ell 103, elapsed: 0.0006928443908691406
ell 102, elapsed: 0.0005910396575927734
ell 101, elapsed: 0.0006248950958251953
ell 100, elapsed: 0.0005249977111816406
ell 99, elapsed: 0.0005888938903808594
ell 98, elapsed: 0.0005860328674316406
ell 97, elapsed: 0.0006630420684814453
ell 96, elapsed: 0.0005838871002197266
ell 95, elapsed: 0.0006709098815917969
ell 94, elapsed: 0.00047707557678222656
ell 93, elapsed: 0.0004220008850097656
ell 92, elapsed: 0.0003669261932373047
ell 91, elapsed: 0.0004470348358154297
ell 90, elapsed: 0.00038504600524902344
ell 89, elapsed: 0.00043487548828125
ell 88, elapsed: 0.0006320476531982422
ell 87, elapsed: 0.0005159378051757812
ell 86, elapsed: 0.0004892349243164062
ell 85, elapsed: 0.0006210803985595703
ell 84, elapsed: 0.0005109310150146484
ell 83, elapsed: 0.0007011890411376953
ell 82, elapsed: 0.0004930496215820312
ell 81, elapsed: 0.00047707557678222656
ell 80, elapsed: 0.0005052089691162109
ell 79, elapsed: 0.0005829334259033203
ell 78, elapsed: 0.0005002021789550781
ell 77, elapsed: 0.0005910396575927734
ell 76, elapsed: 0.00039196014404296875
ell 75, elapsed: 0.0005478858947753906
ell 74, elapsed: 0.0006389617919921875
ell 73, elapsed: 0.0006909370422363281
ell 72, elapsed: 0.0004677772521972656
ell 71, elapsed: 0.0006499290466308594
ell 70, elapsed: 0.0006201267242431641
ell 69, elapsed: 0.00051116943359375
ell 68, elapsed: 0.0005691051483154297
ell 67, elapsed: 0.0006930828094482422
ell 66, elapsed: 0.0005090236663818359
ell 65, elapsed: 0.0005879402160644531
ell 64, elapsed: 0.00048804283142089844
ell 63, elapsed: 0.00044083595275878906
ell 62, elapsed: 0.00039505958557128906
ell 61, elapsed: 0.00045418739318847656
ell 60, elapsed: 0.000553131103515625
ell 59, elapsed: 0.0006949901580810547
ell 58, elapsed: 0.0006091594696044922
ell 57, elapsed: 0.0007009506225585938
ell 56, elapsed: 0.0006070137023925781
ell 55, elapsed: 0.0006170272827148438
ell 54, elapsed: 0.0004711151123046875
ell 53, elapsed: 0.0006690025329589844
ell 52, elapsed: 0.00043392181396484375
ell 51, elapsed: 0.0004410743713378906
ell 50, elapsed: 0.00037097930908203125
ell 49, elapsed: 0.0004448890686035156
ell 48, elapsed: 0.0005669593811035156
ell 47, elapsed: 0.0005700588226318359
ell 46, elapsed: 0.00055694580078125
ell 45, elapsed: 0.000701904296875
ell 44, elapsed: 0.0006020069122314453
ell 43, elapsed: 0.0005190372467041016
ell 42, elapsed: 0.0003809928894042969
ell 41, elapsed: 0.0004520416259765625
ell 40, elapsed: 0.00040912628173828125
ell 39, elapsed: 0.0005638599395751953
ell 38, elapsed: 0.0005068778991699219
ell 37, elapsed: 0.0006120204925537109
ell 36, elapsed: 0.0004649162292480469
ell 35, elapsed: 0.0005638599395751953
ell 34, elapsed: 0.0005180835723876953
ell 33, elapsed: 0.0004620552062988281
ell 32, elapsed: 0.0004718303680419922
ell 31, elapsed: 0.0006091594696044922
ell 30, elapsed: 0.0004830360412597656
ell 29, elapsed: 0.0006020069122314453
ell 28, elapsed: 0.00047016143798828125
ell 27, elapsed: 0.0006239414215087891
ell 26, elapsed: 0.0004169940948486328
ell 25, elapsed: 0.0004589557647705078
ell 24, elapsed: 0.0003948211669921875
ell 23, elapsed: 0.00045418739318847656
ell 22, elapsed: 0.0003879070281982422
ell 21, elapsed: 0.00045800209045410156
ell 20, elapsed: 0.00039887428283691406
ell 19, elapsed: 0.0004611015319824219
ell 18, elapsed: 0.0003829002380371094
ell 17, elapsed: 0.0004470348358154297
ell 16, elapsed: 0.00038504600524902344
ell 15, elapsed: 0.00045418739318847656
ell 14, elapsed: 0.0004839897155761719
ell 13, elapsed: 0.0006191730499267578
ell 12, elapsed: 0.0004019737243652344
ell 11, elapsed: 0.0004470348358154297
ell 10, elapsed: 0.0005550384521484375
ell 9, elapsed: 0.0006310939788818359
ell 8, elapsed: 0.0005259513854980469
ell 7, elapsed: 0.0007131099700927734
ell 6, elapsed: 0.0006201267242431641
ell 5, elapsed: 0.0007159709930419922
ell 4, elapsed: 0.0006530284881591797
ell 3, elapsed: 0.000701904296875
ell 2, elapsed: 0.00061798095703125
ell 1, elapsed: 0.0005218982696533203
ell 0, elapsed: 0.0003910064697265625
  0.746596 seconds (41.19 k allocations: 2.939 MiB, 2.90% gc time)
elapsed: 0.0007882118225097656
step:          0.076278 sec (0 allocations: 0 byte, 0.0% gc time)
swapping:      0.000949 sec (0 allocations: 0 byte, 0.0% gc time)
calc_Mellell!: 0.012503 sec (0 allocations: 0 byte, 0.0% gc time)
  t0 :  0.002672 sec (0 allocations: 0 byte, 0.0% gc time)
  tm2 : 0.115453 sec (0 allocations: 0 byte, 0.0% gc time)
  tm2s: 0.002213 sec (0 allocations: 0 byte, 0.0% gc time)
  tm4 : 0.310416 sec (0 allocations: 0 byte, 0.0% gc time)
  tp2 : 0.0 sec (0 allocations: 0 byte, 0.0% gc time)
  tp2s: 0.0 sec (0 allocations: 0 byte, 0.0% gc time)
  tp4 : 0.0 sec (0 allocations: 0 byte, 0.0% gc time)
calc_wtdll!:   0.471737 sec (9.87 k allocations: 1.043 MB, 4.59% gc time)
calc_wljj!:    0.049131 sec (689 allocations: 10.766 KB, 0.0% gc time)
mult_prefac!:  0.0 sec (0 allocations: 0 byte, 0.0% gc time)
convert:       0.0 sec (0 allocations: 0 byte, 0.0% gc time)
write:         0.049847 sec (0 allocations: 0 byte, 0.0% gc time)
test_rand_2f1: 0.0 sec (0 allocations: 0 byte, 0.0% gc time)
Closing outfile out/Ml21-cache.bin...   0.000072 seconds
  0.000557 seconds (52 allocations: 28.297 KiB)
make_phi():   0.002937 seconds (8.33 k allocations: 250.516 KiB)
  0.593594 seconds (731.49 k allocations: 63.193 MiB, 2.93% gc time)
tskip:       0.001522 sec (0 allocations: 0 byte, 0.0% gc time)
tread:       0.03116 sec (19 allocations: 10.688 KB, 0.0% gc time)
tmultphi:    0.015901 sec (0 allocations: 0 byte, 0.0% gc time)
tbrfft:      0.399601 sec (594.393 k allocations: 60.004 MB, 0.0% gc time)
tmultprefac: 0.045168 sec (0 allocations: 0 byte, 0.0% gc time)
toutfunc:    0.097569 sec (129.905 k allocations: 2.421 MB, 17.82% gc time)
Testing R=1.0 ... passed
Calculating fmax: 
  dlrec    = 4
  dlrecRg1 = -4
  q=1.1, R=0.9:	  0.482020 seconds (116.47 k allocations: 15.614 MiB)

  0.482268 seconds (116.50 k allocations: 15.647 MiB)
ℓ = 1202
Δℓ = 4
ΔℓRg1 = -4
N = 1600
q = 1.1
kmin = 1.0e-5
kmax = 100000.00000000004
χ0 = 0.023029999999999995
RR = RR.tsv
ℓmax = ℓmax.bin
f21 = f21.bin
kmin = 1.0e-5
kmax = 100000.0
dlrec    = 4
dlrecRg1 = -4
Output size: 5741568 bytes = 0.005347251892089844 GiB
Output size: 51264 bytes = 4.774332046508789e-5 GiB
Reading 'out/F21EllCache'...   0.001011 seconds (267 allocations: 84.656 KiB)
ellmax: 1202
lmaxcache: 1202
fell[:,1,1] = Complex{Float64}[1.3482014726274674e-57 - 3.302141236118086e-73im, 1.357860004724329e-57 - 3.3257978169518355e-73im]
ell 1202, elapsed: 1.71661376953125e-5
ell 1201, elapsed: 0.0004260540008544922
ell 1200, elapsed: 0.0004620552062988281
ell 1199, elapsed: 0.0003879070281982422
ell 1198, elapsed: 0.0003829002380371094
ell 1002, elapsed: 0.009356975555419922
ell 1001, elapsed: 0.0003609657287597656
ell 1000, elapsed: 0.0003459453582763672
ell 999, elapsed: 0.0003421306610107422
ell 998, elapsed: 0.0004551410675048828
ell 902, elapsed: 0.0050811767578125
ell 901, elapsed: 0.0003609657287597656
ell 900, elapsed: 0.0003440380096435547
ell 899, elapsed: 0.00034499168395996094
ell 898, elapsed: 0.00034499168395996094
ell 802, elapsed: 0.00492095947265625
ell 801, elapsed: 0.0004429817199707031
ell 800, elapsed: 0.00041794776916503906
ell 799, elapsed: 0.0003440380096435547
ell 798, elapsed: 0.00034499168395996094
ell 702, elapsed: 0.004857063293457031
ell 701, elapsed: 0.0003590583801269531
ell 700, elapsed: 0.00034499168395996094
ell 699, elapsed: 0.0003440380096435547
ell 698, elapsed: 0.00034499168395996094
ell 602, elapsed: 0.005082845687866211
ell 601, elapsed: 0.0003559589385986328
ell 600, elapsed: 0.0003418922424316406
ell 599, elapsed: 0.00034308433532714844
ell 598, elapsed: 0.0003540515899658203
ell 502, elapsed: 0.006176948547363281
ell 501, elapsed: 0.00039696693420410156
ell 500, elapsed: 0.0003910064697265625
ell 499, elapsed: 0.00039005279541015625
ell 498, elapsed: 0.00039005279541015625
ell 402, elapsed: 0.0055828094482421875
ell 401, elapsed: 0.0005130767822265625
ell 400, elapsed: 0.0003800392150878906
ell 399, elapsed: 0.0004968643188476562
ell 398, elapsed: 0.000553131103515625
ell 302, elapsed: 0.005301952362060547
ell 301, elapsed: 0.0003688335418701172
ell 300, elapsed: 0.0004780292510986328
ell 299, elapsed: 0.00041604042053222656
ell 298, elapsed: 0.0003578662872314453
ell 202, elapsed: 0.005036115646362305
ell 201, elapsed: 0.0003638267517089844
ell 200, elapsed: 0.0003528594970703125
ell 199, elapsed: 0.0003521442413330078
ell 198, elapsed: 0.00035309791564941406
ell 152, elapsed: 0.0027589797973632812
ell 151, elapsed: 0.0003731250762939453
ell 150, elapsed: 0.00035500526428222656
ell 149, elapsed: 0.00035190582275390625
ell 148, elapsed: 0.0004620552062988281
ell 127, elapsed: 0.0015649795532226562
ell 126, elapsed: 0.00035691261291503906
ell 125, elapsed: 0.0003540515899658203
ell 124, elapsed: 0.00035381317138671875
ell 123, elapsed: 0.00035309791564941406
ell 114, elapsed: 0.0009090900421142578
ell 113, elapsed: 0.00041103363037109375
ell 112, elapsed: 0.0003528594970703125
ell 111, elapsed: 0.0003509521484375
ell 110, elapsed: 0.00035190582275390625
ell 102, elapsed: 0.0008299350738525391
ell 101, elapsed: 0.0003521442413330078
ell 100, elapsed: 0.00035309791564941406
ell 99, elapsed: 0.00035190582275390625
ell 98, elapsed: 0.00046896934509277344
ell 97, elapsed: 0.0004239082336425781
ell 96, elapsed: 0.0004329681396484375
ell 95, elapsed: 0.0003790855407714844
ell 94, elapsed: 0.0004260540008544922
ell 93, elapsed: 0.00036215782165527344
ell 92, elapsed: 0.0004391670227050781
ell 91, elapsed: 0.00038886070251464844
ell 90, elapsed: 0.0007309913635253906
ell 89, elapsed: 0.0004780292510986328
ell 88, elapsed: 0.00045800209045410156
ell 87, elapsed: 0.0003960132598876953
ell 86, elapsed: 0.00045299530029296875
ell 85, elapsed: 0.0003871917724609375
ell 84, elapsed: 0.00045680999755859375
ell 83, elapsed: 0.0003948211669921875
ell 82, elapsed: 0.00044417381286621094
ell 81, elapsed: 0.0005300045013427734
ell 80, elapsed: 0.0004830360412597656
ell 79, elapsed: 0.00039005279541015625
ell 78, elapsed: 0.00045680999755859375
ell 77, elapsed: 0.0003941059112548828
ell 76, elapsed: 0.00044989585876464844
ell 75, elapsed: 0.00039696693420410156
ell 74, elapsed: 0.00045299530029296875
ell 73, elapsed: 0.0007259845733642578
ell 72, elapsed: 0.0005040168762207031
ell 71, elapsed: 0.00039505958557128906
ell 70, elapsed: 0.00045299530029296875
ell 69, elapsed: 0.0003979206085205078
ell 68, elapsed: 0.00046896934509277344
ell 67, elapsed: 0.00039696693420410156
ell 66, elapsed: 0.00045609474182128906
ell 65, elapsed: 0.0004990100860595703
ell 64, elapsed: 0.0005099773406982422
ell 63, elapsed: 0.00039505958557128906
ell 62, elapsed: 0.0004489421844482422
ell 61, elapsed: 0.0003948211669921875
ell 60, elapsed: 0.0004570484161376953
ell 59, elapsed: 0.0003998279571533203
ell 58, elapsed: 0.00045800209045410156
ell 57, elapsed: 0.0003960132598876953
ell 56, elapsed: 0.0006549358367919922
ell 55, elapsed: 0.0003979206085205078
ell 54, elapsed: 0.0004508495330810547
ell 53, elapsed: 0.0003960132598876953
ell 52, elapsed: 0.0004489421844482422
ell 51, elapsed: 0.0003979206085205078
ell 50, elapsed: 0.000453948974609375
ell 49, elapsed: 0.0003981590270996094
ell 48, elapsed: 0.0005800724029541016
ell 47, elapsed: 0.00043582916259765625
ell 46, elapsed: 0.0004589557647705078
ell 45, elapsed: 0.0003979206085205078
ell 44, elapsed: 0.0004570484161376953
ell 43, elapsed: 0.0003981590270996094
ell 42, elapsed: 0.00045609474182128906
ell 41, elapsed: 0.0004019737243652344
ell 40, elapsed: 0.0005581378936767578
ell 39, elapsed: 0.00045990943908691406
ell 38, elapsed: 0.0004658699035644531
ell 37, elapsed: 0.0003979206085205078
ell 36, elapsed: 0.0004532337188720703
ell 35, elapsed: 0.000392913818359375
ell 34, elapsed: 0.00045609474182128906
ell 33, elapsed: 0.0003941059112548828
ell 32, elapsed: 0.00045609474182128906
ell 31, elapsed: 0.0005230903625488281
ell 30, elapsed: 0.0004849433898925781
ell 29, elapsed: 0.0003998279571533203
ell 28, elapsed: 0.0006461143493652344
ell 27, elapsed: 0.0005371570587158203
ell 26, elapsed: 0.00045990943908691406
ell 25, elapsed: 0.0003979206085205078
ell 24, elapsed: 0.0005729198455810547
ell 23, elapsed: 0.0004639625549316406
ell 22, elapsed: 0.0004630088806152344
ell 21, elapsed: 0.00039315223693847656
ell 20, elapsed: 0.0006380081176757812
ell 19, elapsed: 0.0006139278411865234
ell 18, elapsed: 0.0006940364837646484
ell 17, elapsed: 0.0007898807525634766
ell 16, elapsed: 0.0004889965057373047
ell 15, elapsed: 0.00039887428283691406
ell 14, elapsed: 0.0005710124969482422
ell 13, elapsed: 0.0006220340728759766
ell 12, elapsed: 0.0005860328674316406
ell 11, elapsed: 0.0003981590270996094
ell 10, elapsed: 0.0005240440368652344
ell 9, elapsed: 0.00032591819763183594
ell 8, elapsed: 0.0003578662872314453
ell 7, elapsed: 0.0004379749298095703
ell 6, elapsed: 0.0005421638488769531
ell 5, elapsed: 0.0004818439483642578
ell 4, elapsed: 0.0005600452423095703
ell 3, elapsed: 0.0004830360412597656
ell 2, elapsed: 0.0005629062652587891
ell 1, elapsed: 0.00048279762268066406
ell 0, elapsed: 0.0005600452423095703
  0.130563 seconds (10.83 k allocations: 697.938 KiB)
elapsed: 0.0006082057952880859
step:          0.058434 sec (0 allocations: 0 byte, 0.0% gc time)
swapping:      0.00055 sec (0 allocations: 0 byte, 0.0% gc time)
calc_Mellell!: 0.001572 sec (0 allocations: 0 byte, 0.0% gc time)
  t0 :  0.000354 sec (0 allocations: 0 byte, 0.0% gc time)
  tm2 : 0.013703 sec (0 allocations: 0 byte, 0.0% gc time)
  tm2s: 0.000324 sec (0 allocations: 0 byte, 0.0% gc time)
  tm4 : 0.037029 sec (0 allocations: 0 byte, 0.0% gc time)
  tp2 : 0.0 sec (0 allocations: 0 byte, 0.0% gc time)
  tp2s: 0.0 sec (0 allocations: 0 byte, 0.0% gc time)
  tp4 : 0.0 sec (0 allocations: 0 byte, 0.0% gc time)
calc_wtdll!:   0.05189 sec (1.344 k allocations: 147.0 KB, 0.0% gc time)
calc_wljj!:    0.004229 sec (6 allocations: 96 byte, 0.0% gc time)
mult_prefac!:  0.0 sec (0 allocations: 0 byte, 0.0% gc time)
convert:       0.0 sec (0 allocations: 0 byte, 0.0% gc time)
write:         0.004162 sec (0 allocations: 0 byte, 0.0% gc time)
test_rand_2f1: 0.0 sec (0 allocations: 0 byte, 0.0% gc time)
Closing outfile out/Ml21-cache.bin...   0.000086 seconds
  0.000651 seconds (52 allocations: 28.297 KiB)
make_phi():   0.019795 seconds (8.33 k allocations: 250.484 KiB)
  0.072871 seconds (67.62 k allocations: 5.892 MiB)
tskip:       2.7e-5 sec (0 allocations: 0 byte, 0.0% gc time)
tread:       0.002871 sec (19 allocations: 2.172 KB, 0.0% gc time)
tmultphi:    0.001463 sec (0 allocations: 0 byte, 0.0% gc time)
tbrfft:      0.057114 sec (56.425 k allocations: 5.619 MB, 0.0% gc time)
tmultprefac: 0.004446 sec (0 allocations: 0 byte, 0.0% gc time)
toutfunc:    0.006902 sec (10.528 k allocations: 206.5 KB, 0.0% gc time)
Testing R=0.9 ... passed
Calculating fmax: 
  dlrec    = 4
  dlrecRg1 = -4
  q=1.1, R=0.8:	  0.384942 seconds (113.61 k allocations: 15.166 MiB)

  0.385193 seconds (113.65 k allocations: 15.200 MiB)
ℓ = 1202
Δℓ = 4
ΔℓRg1 = -4
N = 1600
q = 1.1
kmin = 1.0e-5
kmax = 100000.00000000004
χ0 = 0.023029999999999995
RR = RR.tsv
ℓmax = ℓmax.bin
f21 = f21.bin
kmin = 1.0e-5
kmax = 100000.0
dlrec    = 4
dlrecRg1 = -4
Output size: 5741568 bytes = 0.005347251892089844 GiB
Output size: 51264 bytes = 4.774332046508789e-5 GiB
Reading 'out/F21EllCache'...   0.000998 seconds (267 allocations: 84.656 KiB)
ellmax: 1202
lmaxcache: 1202
fell[:,1,1] = Complex{Float64}[7.519068145690986e-120 - 1.8416405474382574e-135im, 7.541664537386155e-120 - 1.847175067190611e-135im]
ell 1202, elapsed: 2.384185791015625e-5
ell 1201, elapsed: 0.0005829334259033203
ell 1200, elapsed: 0.0006089210510253906
ell 1199, elapsed: 0.0006039142608642578
ell 1198, elapsed: 0.0006139278411865234
ell 1002, elapsed: 0.010107994079589844
ell 1001, elapsed: 0.0005040168762207031
ell 1000, elapsed: 0.0005581378936767578
ell 999, elapsed: 0.0005528926849365234
ell 998, elapsed: 0.000553131103515625
ell 902, elapsed: 0.005707979202270508
ell 901, elapsed: 0.0005221366882324219
ell 900, elapsed: 0.0005469322204589844
ell 899, elapsed: 0.0005538463592529297
ell 898, elapsed: 0.0005488395690917969
ell 802, elapsed: 0.0054090023040771484
ell 801, elapsed: 0.0005171298980712891
ell 800, elapsed: 0.0005450248718261719
ell 799, elapsed: 0.0005588531494140625
ell 798, elapsed: 0.0005521774291992188
ell 702, elapsed: 0.0051059722900390625
ell 701, elapsed: 0.0004839897155761719
ell 700, elapsed: 0.0005488395690917969
ell 699, elapsed: 0.00055694580078125
ell 698, elapsed: 0.0005471706390380859
ell 602, elapsed: 0.00518798828125
ell 601, elapsed: 0.0005218982696533203
ell 600, elapsed: 0.00055694580078125
ell 599, elapsed: 0.000553131103515625
ell 598, elapsed: 0.0005638599395751953
ell 502, elapsed: 0.005671024322509766
ell 501, elapsed: 0.0005400180816650391
ell 500, elapsed: 0.0005509853363037109
ell 499, elapsed: 0.00055694580078125
ell 498, elapsed: 0.0005688667297363281
ell 402, elapsed: 0.005827903747558594
ell 401, elapsed: 0.0004799365997314453
ell 400, elapsed: 0.0005490779876708984
ell 399, elapsed: 0.0005540847778320312
ell 398, elapsed: 0.0005559921264648438
ell 302, elapsed: 0.005518913269042969
ell 301, elapsed: 0.0004999637603759766
ell 300, elapsed: 0.0005540847778320312
ell 299, elapsed: 0.0005550384521484375
ell 298, elapsed: 0.0005660057067871094
ell 202, elapsed: 0.00518798828125
ell 201, elapsed: 0.0005249977111816406
ell 200, elapsed: 0.0005609989166259766
ell 199, elapsed: 0.0005519390106201172
ell 198, elapsed: 0.0005500316619873047
ell 152, elapsed: 0.002913951873779297
ell 151, elapsed: 0.0005218982696533203
ell 150, elapsed: 0.0005590915679931641
ell 149, elapsed: 0.0005519390106201172
ell 148, elapsed: 0.0005578994750976562
ell 127, elapsed: 0.0018329620361328125
ell 126, elapsed: 0.0005121231079101562
ell 125, elapsed: 0.00055694580078125
ell 124, elapsed: 0.0005490779876708984
ell 123, elapsed: 0.0005500316619873047
ell 114, elapsed: 0.001322031021118164
ell 113, elapsed: 0.00061798095703125
ell 112, elapsed: 0.0004711151123046875
ell 111, elapsed: 0.0005810260772705078
ell 110, elapsed: 0.0004470348358154297
ell 102, elapsed: 0.0011777877807617188
ell 101, elapsed: 0.0005190372467041016
ell 100, elapsed: 0.0005548000335693359
ell 99, elapsed: 0.0005509853363037109
ell 98, elapsed: 0.0005588531494140625
ell 97, elapsed: 0.0003948211669921875
ell 96, elapsed: 0.0006489753723144531
ell 95, elapsed: 0.0004839897155761719
ell 94, elapsed: 0.0006549358367919922
ell 93, elapsed: 0.0006108283996582031
ell 92, elapsed: 0.0006959438323974609
ell 91, elapsed: 0.0006160736083984375
ell 90, elapsed: 0.0005469322204589844
ell 89, elapsed: 0.0005729198455810547
ell 88, elapsed: 0.0005447864532470703
ell 87, elapsed: 0.0005788803100585938
ell 86, elapsed: 0.0006861686706542969
ell 85, elapsed: 0.000614166259765625
ell 84, elapsed: 0.0006928443908691406
ell 83, elapsed: 0.0007359981536865234
ell 82, elapsed: 0.0007078647613525391
ell 81, elapsed: 0.0006151199340820312
ell 80, elapsed: 0.0007078647613525391
ell 79, elapsed: 0.0005311965942382812
ell 78, elapsed: 0.0007719993591308594
ell 77, elapsed: 0.0004901885986328125
ell 76, elapsed: 0.0005769729614257812
ell 75, elapsed: 0.0006070137023925781
ell 74, elapsed: 0.0006959438323974609
ell 73, elapsed: 0.0005390644073486328
ell 72, elapsed: 0.0007879734039306641
ell 71, elapsed: 0.00061798095703125
ell 70, elapsed: 0.0006999969482421875
ell 69, elapsed: 0.0006148815155029297
ell 68, elapsed: 0.0006940364837646484
ell 67, elapsed: 0.0006170272827148438
ell 66, elapsed: 0.000698089599609375
ell 65, elapsed: 0.0005548000335693359
ell 64, elapsed: 0.0007009506225585938
ell 63, elapsed: 0.0006117820739746094
ell 62, elapsed: 0.0006890296936035156
ell 61, elapsed: 0.0006210803985595703
ell 60, elapsed: 0.0008361339569091797
ell 59, elapsed: 0.0005300045013427734
ell 58, elapsed: 0.0004360675811767578
ell 57, elapsed: 0.0003859996795654297
ell 56, elapsed: 0.0006561279296875
ell 55, elapsed: 0.0006139278411865234
ell 54, elapsed: 0.0008330345153808594
ell 53, elapsed: 0.000492095947265625
ell 52, elapsed: 0.0005230903625488281
ell 51, elapsed: 0.0006279945373535156
ell 50, elapsed: 0.0006971359252929688
ell 49, elapsed: 0.0006079673767089844
ell 48, elapsed: 0.000827789306640625
ell 47, elapsed: 0.0004630088806152344
ell 46, elapsed: 0.0006439685821533203
ell 45, elapsed: 0.0005118846893310547
ell 44, elapsed: 0.0006320476531982422
ell 43, elapsed: 0.00061798095703125
ell 42, elapsed: 0.0007221698760986328
ell 41, elapsed: 0.0005748271942138672
ell 40, elapsed: 0.0007030963897705078
ell 39, elapsed: 0.0006158351898193359
ell 38, elapsed: 0.0007131099700927734
ell 37, elapsed: 0.0006070137023925781
ell 36, elapsed: 0.0007088184356689453
ell 35, elapsed: 0.000576019287109375
ell 34, elapsed: 0.0006160736083984375
ell 33, elapsed: 0.0005700588226318359
ell 32, elapsed: 0.0006961822509765625
ell 31, elapsed: 0.0006008148193359375
ell 30, elapsed: 0.0008330345153808594
ell 29, elapsed: 0.0006170272827148438
ell 28, elapsed: 0.0006978511810302734
ell 27, elapsed: 0.0006208419799804688
ell 26, elapsed: 0.0006928443908691406
ell 25, elapsed: 0.0007350444793701172
ell 24, elapsed: 0.000701904296875
ell 23, elapsed: 0.0006210803985595703
ell 22, elapsed: 0.0007078647613525391
ell 21, elapsed: 0.0006160736083984375
ell 20, elapsed: 0.0007050037384033203
ell 19, elapsed: 0.000640869140625
ell 18, elapsed: 0.0007069110870361328
ell 17, elapsed: 0.0006289482116699219
ell 16, elapsed: 0.0005900859832763672
[...]
ell 782, elapsed: 0.0015370845794677734
ell 781, elapsed: 0.0008411407470703125
ell 780, elapsed: 0.000823974609375
ell 779, elapsed: 0.0008220672607421875
ell 778, elapsed: 0.0007948875427246094
ell 772, elapsed: 0.0015189647674560547
ell 771, elapsed: 0.0008111000061035156
ell 770, elapsed: 0.0007960796356201172
ell 769, elapsed: 0.0008149147033691406
ell 768, elapsed: 0.0008020401000976562
ell 762, elapsed: 0.001508951187133789
ell 761, elapsed: 0.0008261203765869141
ell 760, elapsed: 0.0008111000061035156
ell 759, elapsed: 0.0008158683776855469
ell 758, elapsed: 0.0008461475372314453
ell 752, elapsed: 0.001505136489868164
ell 751, elapsed: 0.0008029937744140625
ell 750, elapsed: 0.0008149147033691406
ell 749, elapsed: 0.0008251667022705078
ell 748, elapsed: 0.0008141994476318359
ell 742, elapsed: 0.001508951187133789
ell 741, elapsed: 0.0008189678192138672
ell 740, elapsed: 0.0008330345153808594
ell 739, elapsed: 0.000820159912109375
ell 738, elapsed: 0.0008318424224853516
ell 732, elapsed: 0.0015630722045898438
ell 731, elapsed: 0.0008199214935302734
ell 730, elapsed: 0.0008280277252197266
ell 729, elapsed: 0.0008211135864257812
ell 728, elapsed: 0.0008299350738525391
ell 722, elapsed: 0.001508951187133789
ell 721, elapsed: 0.0008189678192138672
ell 720, elapsed: 0.0008270740509033203
ell 719, elapsed: 0.0008261203765869141
ell 718, elapsed: 0.0008339881896972656
ell 712, elapsed: 0.0014939308166503906
ell 711, elapsed: 0.0008089542388916016
ell 710, elapsed: 0.0008180141448974609
ell 709, elapsed: 0.0008218288421630859
ell 708, elapsed: 0.0008180141448974609
ell 702, elapsed: 0.0015010833740234375
ell 701, elapsed: 0.000804901123046875
ell 700, elapsed: 0.000843048095703125
ell 699, elapsed: 0.0008268356323242188
ell 698, elapsed: 0.0008149147033691406
ell 692, elapsed: 0.0015211105346679688
ell 691, elapsed: 0.0008180141448974609
ell 690, elapsed: 0.0008339881896972656
ell 689, elapsed: 0.0008249282836914062
ell 688, elapsed: 0.0008168220520019531
ell 682, elapsed: 0.0015630722045898438
ell 681, elapsed: 0.0008161067962646484
ell 680, elapsed: 0.0010418891906738281
ell 679, elapsed: 0.0008029937744140625
ell 678, elapsed: 0.0008280277252197266
ell 672, elapsed: 0.0015168190002441406
ell 671, elapsed: 0.0008192062377929688
ell 670, elapsed: 0.0008499622344970703
ell 669, elapsed: 0.0008189678192138672
ell 668, elapsed: 0.0008180141448974609
ell 662, elapsed: 0.0015060901641845703
ell 661, elapsed: 0.0008070468902587891
ell 660, elapsed: 0.0008029937744140625
ell 659, elapsed: 0.0010900497436523438
ell 658, elapsed: 0.0008158683776855469
ell 652, elapsed: 0.0016019344329833984
ell 651, elapsed: 0.0008089542388916016
ell 650, elapsed: 0.0008039474487304688
ell 649, elapsed: 0.0008230209350585938
ell 648, elapsed: 0.0008511543273925781
ell 642, elapsed: 0.001500844955444336
ell 641, elapsed: 0.0008101463317871094
ell 640, elapsed: 0.0008120536804199219
ell 639, elapsed: 0.0008251667022705078
ell 638, elapsed: 0.0008101463317871094
ell 632, elapsed: 0.001528024673461914
ell 631, elapsed: 0.0008099079132080078
ell 630, elapsed: 0.0008349418640136719
ell 629, elapsed: 0.0008311271667480469
ell 628, elapsed: 0.0008251667022705078
ell 622, elapsed: 0.0015420913696289062
ell 621, elapsed: 0.000949859619140625
ell 620, elapsed: 0.000827789306640625
ell 619, elapsed: 0.0008149147033691406
ell 618, elapsed: 0.000823974609375
ell 612, elapsed: 0.0016150474548339844
ell 611, elapsed: 0.0007889270782470703
ell 610, elapsed: 0.0008058547973632812
ell 609, elapsed: 0.0008008480072021484
ell 608, elapsed: 0.0009660720825195312
ell 602, elapsed: 0.0016989707946777344
ell 601, elapsed: 0.0007660388946533203
ell 600, elapsed: 0.0008058547973632812
ell 599, elapsed: 0.0011420249938964844
ell 598, elapsed: 0.0007958412170410156
ell 592, elapsed: 0.001486063003540039
ell 591, elapsed: 0.0009398460388183594
ell 590, elapsed: 0.0008149147033691406
ell 589, elapsed: 0.0008120536804199219
ell 588, elapsed: 0.0008320808410644531
ell 582, elapsed: 0.0016028881072998047
ell 581, elapsed: 0.0008139610290527344
ell 580, elapsed: 0.0008108615875244141
ell 579, elapsed: 0.001088857650756836
ell 578, elapsed: 0.0009541511535644531
ell 572, elapsed: 0.0014770030975341797
ell 571, elapsed: 0.0008101463317871094
ell 570, elapsed: 0.0008151531219482422
ell 569, elapsed: 0.0009350776672363281
ell 568, elapsed: 0.0008139610290527344
ell 562, elapsed: 0.0014848709106445312
ell 561, elapsed: 0.0008158683776855469
ell 560, elapsed: 0.000946044921875
ell 559, elapsed: 0.0008020401000976562
ell 558, elapsed: 0.0008070468902587891
ell 552, elapsed: 0.0014810562133789062
ell 551, elapsed: 0.0009391307830810547
ell 550, elapsed: 0.0007581710815429688
ell 549, elapsed: 0.0007929801940917969
ell 548, elapsed: 0.0008039474487304688
ell 542, elapsed: 0.0016179084777832031
ell 541, elapsed: 0.0008420944213867188
ell 540, elapsed: 0.0008199214935302734
ell 539, elapsed: 0.0007929801940917969
ell 538, elapsed: 0.0008599758148193359
ell 532, elapsed: 0.0014901161193847656
ell 531, elapsed: 0.0008161067962646484
ell 530, elapsed: 0.0008089542388916016
ell 529, elapsed: 0.0008518695831298828
ell 528, elapsed: 0.0010600090026855469
ell 522, elapsed: 0.0014660358428955078
ell 521, elapsed: 0.0008111000061035156
ell 520, elapsed: 0.0008671283721923828
ell 519, elapsed: 0.0008029937744140625
ell 518, elapsed: 0.0008080005645751953
ell 512, elapsed: 0.0015311241149902344
ell 511, elapsed: 0.0008180141448974609
ell 510, elapsed: 0.000820159912109375
ell 509, elapsed: 0.0008141994476318359
ell 508, elapsed: 0.0008060932159423828
ell 502, elapsed: 0.00156402587890625
ell 501, elapsed: 0.000804901123046875
ell 500, elapsed: 0.0008361339569091797
ell 499, elapsed: 0.0008189678192138672
ell 498, elapsed: 0.0008628368377685547
ell 492, elapsed: 0.0015261173248291016
ell 491, elapsed: 0.0007970333099365234
ell 490, elapsed: 0.0007951259613037109
ell 489, elapsed: 0.0008490085601806641
ell 488, elapsed: 0.0007908344268798828
ell 482, elapsed: 0.0015039443969726562
ell 481, elapsed: 0.0008251667022705078
ell 480, elapsed: 0.0008859634399414062
ell 479, elapsed: 0.0010919570922851562
ell 478, elapsed: 0.0007960796356201172
ell 472, elapsed: 0.0018491744995117188
ell 471, elapsed: 0.0008261203765869141
ell 470, elapsed: 0.0008139610290527344
ell 469, elapsed: 0.0008151531219482422
ell 468, elapsed: 0.0008640289306640625
ell 462, elapsed: 0.0014917850494384766
ell 461, elapsed: 0.0007979869842529297
ell 460, elapsed: 0.0008208751678466797
ell 459, elapsed: 0.0009388923645019531
ell 458, elapsed: 0.0008199214935302734
ell 452, elapsed: 0.001569986343383789
ell 451, elapsed: 0.0008251667022705078
ell 450, elapsed: 0.0008759498596191406
ell 449, elapsed: 0.0008339881896972656
ell 448, elapsed: 0.0008411407470703125
ell 442, elapsed: 0.0015289783477783203
ell 441, elapsed: 0.0008721351623535156
ell 440, elapsed: 0.0008358955383300781
ell 439, elapsed: 0.0008258819580078125
ell 438, elapsed: 0.0008270740509033203
ell 432, elapsed: 0.0015799999237060547
ell 431, elapsed: 0.0008330345153808594
ell 430, elapsed: 0.0008318424224853516
ell 429, elapsed: 0.0008280277252197266
ell 428, elapsed: 0.0008769035339355469
ell 422, elapsed: 0.0015289783477783203
ell 421, elapsed: 0.0008189678192138672
ell 420, elapsed: 0.0008339881896972656
ell 419, elapsed: 0.0008959770202636719
ell 418, elapsed: 0.0008301734924316406
ell 412, elapsed: 0.0015349388122558594
ell 411, elapsed: 0.0009169578552246094
ell 410, elapsed: 0.0008289813995361328
ell 409, elapsed: 0.0008308887481689453
ell 408, elapsed: 0.0008289813995361328
ell 402, elapsed: 0.001703023910522461
ell 401, elapsed: 0.0008258819580078125
ell 400, elapsed: 0.0008230209350585938
ell 399, elapsed: 0.0008261203765869141
ell 398, elapsed: 0.0008249282836914062
ell 392, elapsed: 0.0016629695892333984
ell 391, elapsed: 0.000823974609375
ell 390, elapsed: 0.0008320808410644531
ell 389, elapsed: 0.0009429454803466797
ell 388, elapsed: 0.0008301734924316406
ell 382, elapsed: 0.0015659332275390625
ell 381, elapsed: 0.0008318424224853516
ell 380, elapsed: 0.000926971435546875
ell 379, elapsed: 0.0008299350738525391
ell 378, elapsed: 0.0008370876312255859
ell 372, elapsed: 0.001567840576171875
ell 371, elapsed: 0.0010619163513183594
ell 370, elapsed: 0.0008299350738525391
ell 369, elapsed: 0.0008330345153808594
ell 368, elapsed: 0.0008308887481689453
ell 362, elapsed: 0.0016350746154785156
ell 361, elapsed: 0.0008211135864257812
ell 360, elapsed: 0.000823974609375
ell 359, elapsed: 0.0008220672607421875
ell 358, elapsed: 0.0009250640869140625
ell 352, elapsed: 0.0015289783477783203
ell 351, elapsed: 0.0008211135864257812
ell 350, elapsed: 0.0007739067077636719
ell 349, elapsed: 0.0007848739624023438
ell 348, elapsed: 0.0008139610290527344
ell 342, elapsed: 0.0014910697937011719
ell 341, elapsed: 0.0009360313415527344
ell 340, elapsed: 0.0008349418640136719
ell 339, elapsed: 0.0008289813995361328
ell 338, elapsed: 0.0008358955383300781
ell 332, elapsed: 0.0016598701477050781
ell 331, elapsed: 0.0008008480072021484
ell 330, elapsed: 0.0008299350738525391
ell 329, elapsed: 0.0008189678192138672
ell 328, elapsed: 0.0008099079132080078
ell 322, elapsed: 0.0016398429870605469
ell 321, elapsed: 0.0008521080017089844
ell 320, elapsed: 0.0008330345153808594
ell 319, elapsed: 0.0008478164672851562
ell 318, elapsed: 0.0008199214935302734
ell 312, elapsed: 0.001508951187133789
ell 311, elapsed: 0.0008058547973632812
ell 310, elapsed: 0.0010747909545898438
ell 309, elapsed: 0.0008089542388916016
ell 308, elapsed: 0.0008230209350585938
ell 302, elapsed: 0.0018749237060546875
ell 301, elapsed: 0.000804901123046875
ell 300, elapsed: 0.0008091926574707031
ell 299, elapsed: 0.00080108642578125
ell 298, elapsed: 0.0008089542388916016
ell 292, elapsed: 0.0016751289367675781
ell 291, elapsed: 0.0008170604705810547
ell 290, elapsed: 0.0008361339569091797
ell 289, elapsed: 0.0008080005645751953
ell 288, elapsed: 0.0008189678192138672
ell 282, elapsed: 0.0015070438385009766
ell 281, elapsed: 0.0008070468902587891
ell 280, elapsed: 0.0008080005645751953
ell 279, elapsed: 0.0008029937744140625
ell 278, elapsed: 0.0008180141448974609
ell 272, elapsed: 0.0018048286437988281
ell 271, elapsed: 0.001085042953491211
ell 270, elapsed: 0.0008070468902587891
ell 269, elapsed: 0.0008070468902587891
ell 268, elapsed: 0.0008099079132080078
ell 262, elapsed: 0.001622915267944336
ell 261, elapsed: 0.0008499622344970703
ell 260, elapsed: 0.0011169910430908203
ell 259, elapsed: 0.0008029937744140625
ell 258, elapsed: 0.0009090900421142578
ell 252, elapsed: 0.0015158653259277344
ell 251, elapsed: 0.0008080005645751953
ell 250, elapsed: 0.0008020401000976562
ell 249, elapsed: 0.0008120536804199219
ell 248, elapsed: 0.0008218288421630859
ell 242, elapsed: 0.0014789104461669922
ell 241, elapsed: 0.0009369850158691406
ell 240, elapsed: 0.0008161067962646484
ell 239, elapsed: 0.0008120536804199219
ell 238, elapsed: 0.0008280277252197266
ell 232, elapsed: 0.001641988754272461
ell 231, elapsed: 0.0008029937744140625
ell 230, elapsed: 0.0008749961853027344
ell 229, elapsed: 0.000885009765625
ell 228, elapsed: 0.0008990764617919922
ell 222, elapsed: 0.0016739368438720703
ell 221, elapsed: 0.0007810592651367188
ell 220, elapsed: 0.0008180141448974609
ell 219, elapsed: 0.0009012222290039062
ell 218, elapsed: 0.0007979869842529297
ell 212, elapsed: 0.0014679431915283203
ell 211, elapsed: 0.0008080005645751953
ell 210, elapsed: 0.000949859619140625
ell 209, elapsed: 0.0008459091186523438
ell 208, elapsed: 0.0007970333099365234
ell 202, elapsed: 0.0014929771423339844
ell 201, elapsed: 0.0009138584136962891
ell 200, elapsed: 0.0008258819580078125
ell 199, elapsed: 0.0007979869842529297
ell 198, elapsed: 0.0008099079132080078
ell 192, elapsed: 0.0016219615936279297
ell 191, elapsed: 0.000820159912109375
ell 190, elapsed: 0.000804901123046875
ell 189, elapsed: 0.0008149147033691406
ell 188, elapsed: 0.0009019374847412109
ell 182, elapsed: 0.0015149116516113281
ell 181, elapsed: 0.0008199214935302734
ell 180, elapsed: 0.0008189678192138672
ell 179, elapsed: 0.0009150505065917969
ell 178, elapsed: 0.0008261203765869141
ell 172, elapsed: 0.0015218257904052734
ell 171, elapsed: 0.0008270740509033203
ell 170, elapsed: 0.0009598731994628906
ell 169, elapsed: 0.0008151531219482422
ell 168, elapsed: 0.0008130073547363281
ell 162, elapsed: 0.0014920234680175781
ell 161, elapsed: 0.0007929801940917969
ell 160, elapsed: 0.000843048095703125
ell 159, elapsed: 0.0008060932159423828
ell 158, elapsed: 0.0007810592651367188
ell 152, elapsed: 0.001519918441772461
ell 151, elapsed: 0.0008261203765869141
ell 150, elapsed: 0.0008502006530761719
ell 149, elapsed: 0.0008089542388916016
ell 148, elapsed: 0.0008270740509033203
ell 142, elapsed: 0.0014960765838623047
ell 141, elapsed: 0.0007939338684082031
ell 140, elapsed: 0.0008039474487304688
ell 139, elapsed: 0.0008270740509033203
ell 138, elapsed: 0.0008342266082763672
ell 132, elapsed: 0.0015060901641845703
ell 131, elapsed: 0.0008218288421630859
ell 130, elapsed: 0.0008351802825927734
ell 129, elapsed: 0.000820159912109375
ell 128, elapsed: 0.0008449554443359375
ell 122, elapsed: 0.001592874526977539
ell 121, elapsed: 0.0008170604705810547
ell 120, elapsed: 0.0008118152618408203
ell 119, elapsed: 0.0007910728454589844
ell 118, elapsed: 0.0007910728454589844
ell 112, elapsed: 0.0015141963958740234
ell 111, elapsed: 0.0007801055908203125
ell 110, elapsed: 0.0008280277252197266
ell 109, elapsed: 0.0008089542388916016
ell 108, elapsed: 0.0008370876312255859
ell 102, elapsed: 0.0017170906066894531
ell 101, elapsed: 0.003091096878051758
ell 100, elapsed: 0.003968000411987305
ell 99, elapsed: 0.004046916961669922
ell 98, elapsed: 0.003437042236328125
ell 92, elapsed: 0.006538867950439453
ell 91, elapsed: 0.004307985305786133
ell 90, elapsed: 0.003180980682373047
ell 89, elapsed: 0.003448963165283203
ell 88, elapsed: 0.0037147998809814453
ell 82, elapsed: 0.006153106689453125
ell 81, elapsed: 0.0037620067596435547
ell 80, elapsed: 0.004167079925537109
ell 79, elapsed: 0.003454923629760742
ell 78, elapsed: 0.0031549930572509766
ell 72, elapsed: 0.006438016891479492
ell 71, elapsed: 0.003908872604370117
ell 70, elapsed: 0.004324913024902344
ell 69, elapsed: 0.0033979415893554688
ell 68, elapsed: 0.003442049026489258
ell 62, elapsed: 0.00644993782043457
ell 61, elapsed: 0.003679990768432617
ell 60, elapsed: 0.0040569305419921875
ell 59, elapsed: 0.0037450790405273438
ell 58, elapsed: 0.004302978515625
ell 52, elapsed: 0.006234884262084961
ell 51, elapsed: 0.00427699089050293
ell 50, elapsed: 0.0032470226287841797
ell 49, elapsed: 0.0032410621643066406
ell 48, elapsed: 0.0037000179290771484
ell 42, elapsed: 0.005928993225097656
ell 41, elapsed: 0.003713846206665039
ell 40, elapsed: 0.0032339096069335938
ell 39, elapsed: 0.0032079219818115234
ell 38, elapsed: 0.0035109519958496094
ell 32, elapsed: 0.0058820247650146484
ell 31, elapsed: 0.003665924072265625
ell 30, elapsed: 0.0037779808044433594
ell 29, elapsed: 0.003679990768432617
ell 28, elapsed: 0.003859996795654297
ell 22, elapsed: 0.00661015510559082
ell 21, elapsed: 0.003873109817504883
ell 20, elapsed: 0.004289865493774414
ell 19, elapsed: 0.0041959285736083984
ell 18, elapsed: 0.0039479732513427734
ell 12, elapsed: 0.0069048404693603516
ell 11, elapsed: 0.0043239593505859375
ell 10, elapsed: 0.004246950149536133
ell 9, elapsed: 0.004045963287353516
ell 8, elapsed: 0.0043468475341796875
  0.782684 seconds (66.75 k allocations: 12.139 MiB)
elapsed: 0.005230903625488281
step:          0.075557 sec (0 allocations: 0 byte, 0.0% gc time)
swapping:      0.000847 sec (0 allocations: 0 byte, 0.0% gc time)
calc_Mellell!: 0.035987 sec (0 allocations: 0 byte, 0.0% gc time)
  t0 :  0.009903 sec (0 allocations: 0 byte, 0.0% gc time)
  tm2 : 0.07819 sec (0 allocations: 0 byte, 0.0% gc time)
  tm2s: 0.008765 sec (0 allocations: 0 byte, 0.0% gc time)
  tm4 : 0.189092 sec (0 allocations: 0 byte, 0.0% gc time)
  tp2 : 0.0 sec (0 allocations: 0 byte, 0.0% gc time)
  tp2s: 0.0 sec (0 allocations: 0 byte, 0.0% gc time)
  tp4 : 0.0 sec (0 allocations: 0 byte, 0.0% gc time)
calc_wtdll!:   0.549614 sec (49.2 k allocations: 11.133 MB, 0.0% gc time)
calc_wljj!:    0.036549 sec (69 allocations: 1.078 KB, 0.0% gc time)
mult_prefac!:  0.0 sec (0 allocations: 0 byte, 0.0% gc time)
convert:       0.0 sec (0 allocations: 0 byte, 0.0% gc time)
write:         0.031624 sec (0 allocations: 0 byte, 0.0% gc time)
test_rand_2f1: 0.0 sec (0 allocations: 0 byte, 0.0% gc time)
Closing outfile out/MlCache/MlCache.bin...   0.000009 seconds
xi, l=0, nu=0:   0.503229 seconds (650.31 k allocations: 31.235 MiB, 3.94% gc time)
xi, l=0, nu=-2:  0.003757 seconds (410 allocations: 176.875 KiB)
Created 'out/xi.tsv'.
  q=1.1, R=0.6:	  0.747961 seconds (291.08 k allocations: 38.895 MiB, 1.80% gc time)
  q=1.1, R=0.7:	  0.876558 seconds (304.75 k allocations: 40.996 MiB, 1.12% gc time)
  q=1.1, R=0.8:	  1.008313 seconds (299.14 k allocations: 40.132 MiB, 0.76% gc time)
  q=1.1, R=0.9:	  1.008357 seconds (293.57 k allocations: 39.286 MiB, 0.75% gc time)
  q=1.1, R=0.998:	 21.552017 seconds (10.67 M allocations: 823.453 MiB, 0.24% gc time)
  q=1.1, R=1.0:	  0.007502 seconds (10.24 k allocations: 768.375 KiB, 36.59% gc time)

ℓ = 1000
Δℓ = 4
ΔℓRg1 = -4
N = 4096
q = 1.1
kmin = 1.0e-5
kmax = 1000.0
χ0 = 0.001
RR = RR.tsv
ℓmax = ℓmax.bin
f21 = f21.bin
kmin = 1.0e-5
kmax = 1000.0
dlrec    = 4
dlrecRg1 = -4
Output size: 1573632 bytes = 0.0014655590057373047 GiB
Output size: 786816 bytes = 0.0007327795028686523 GiB
Reading 'out/F21EllCache'...   0.001340 seconds (268 allocations: 533.531 KiB)
ellmax: 1002
lmaxcache: 1000
fell[:,1,1] = Complex{Float64}[1.7262928128202118e-224 - 4.2281979352226944e-240im, 1.7282693092099662e-224 - 4.233038955177176e-240im]
ell 1002, elapsed: 8.296966552734375e-5
ell 1001, elapsed: 0.0008380413055419922
ell 1000, elapsed: 0.0007739067077636719
ell 999, elapsed: 0.007607221603393555
ell 998, elapsed: 0.00772404670715332
ell 44, elapsed: 0.6455748081207275
ell 43, elapsed: 0.00550389289855957
ell 42, elapsed: 0.005444049835205078
ell 41, elapsed: 0.005453824996948242
ell 40, elapsed: 0.005429983139038086
  0.692513 seconds (4.55 k allocations: 320.359 KiB)
elapsed: 0.007313966751098633
step:          0.640515 sec (0 allocations: 0 byte, 0.0% gc time)
swapping:      0.000694 sec (0 allocations: 0 byte, 0.0% gc time)
calc_Mellell!: 0.001325 sec (0 allocations: 0 byte, 0.0% gc time)
  t0 :  0.000465 sec (0 allocations: 0 byte, 0.0% gc time)
  tm2 : 0.011077 sec (0 allocations: 0 byte, 0.0% gc time)
  tm2s: 0.000313 sec (0 allocations: 0 byte, 0.0% gc time)
  tm4 : 0.030125 sec (0 allocations: 0 byte, 0.0% gc time)
  tp2 : 0.0 sec (0 allocations: 0 byte, 0.0% gc time)
  tp2s: 0.0 sec (0 allocations: 0 byte, 0.0% gc time)
  tp4 : 0.0 sec (0 allocations: 0 byte, 0.0% gc time)
calc_wtdll!:   0.042197 sec (480 allocations: 52.5 KB, 0.0% gc time)
calc_wljj!:    0.001376 sec (1 allocations: 16 byte, 0.0% gc time)
mult_prefac!:  0.0 sec (0 allocations: 0 byte, 0.0% gc time)
convert:       3.0e-6 sec (0 allocations: 0 byte, 0.0% gc time)
write:         0.000885 sec (0 allocations: 0 byte, 0.0% gc time)
test_rand_2f1: 0.0 sec (0 allocations: 0 byte, 0.0% gc time)
Closing outfile out/MlCache/MlCache.bin...   0.000010 seconds
  1.502888 seconds (586.55 k allocations: 57.370 MiB, 1.59% gc time)
make_phi():   0.019654 seconds (225 allocations: 290.906 KiB)
  0.006896 seconds (5.99 k allocations: 616.734 KiB)
tskip:       1.0e-6 sec (0 allocations: 0 byte, 0.0% gc time)
tread:       0.001041 sec (19 allocations: 1.312 KB, 0.0% gc time)
tmultphi:    0.000341 sec (0 allocations: 0 byte, 0.0% gc time)
tbrfft:      0.003947 sec (5.979 k allocations: 615.422 KB, 0.0% gc time)
tmultprefac: 0.00139 sec (0 allocations: 0 byte, 0.0% gc time)
toutfunc:    0.000312 sec (0 allocations: 0 byte, 0.0% gc time)
Created 'out/wl42_jj00.tsv'.
Created 'out/wl42_jj02.tsv'.
    Testing TwoFAST tests passed 
