Julia Version 1.4.0
Commit b8e9a9ecc6 (2020-03-21 16:36 UTC)
Platform Info:
  OS: Linux (x86_64-linux-gnu)
  CPU: Intel(R) Xeon(R) Silver 4114 CPU @ 2.20GHz
  WORD_SIZE: 64
  LIBM: libopenlibm
  LLVM: libLLVM-8.0.1 (ORCJIT, skylake)
Environment:
  JULIA_DEPOT_PATH = ::/usr/local/share/julia
  JULIA_NUM_THREADS = 2

  Resolving package versions...
  Installed IntelOpenMP_jll ── v2018.0.3+0
  Installed FFTW_jll ───────── v3.3.9+5
  Installed AbstractFFTs ───── v0.5.0
  Installed FFTW ───────────── v1.2.0
  Installed SpecialFunctions ─ v0.8.0
  Installed BinaryProvider ─── v0.5.8
  Installed AbstractAlgebra ── v0.7.1
  Installed Reexport ───────── v0.2.0
  Installed BinDeps ────────── v1.0.0
  Installed URIParser ──────── v0.4.0
  Installed MKL_jll ────────── v2019.0.117+2
  Installed IncGammaBeta ───── v0.1.0
  Installed Nemo ───────────── v0.15.1
  Installed TwoFAST ────────── v0.1.0
   Updating `~/.julia/environments/v1.4/Project.toml`
  [0dd23c3e] + TwoFAST v0.1.0
   Updating `~/.julia/environments/v1.4/Manifest.toml`
  [c3fe647b] + AbstractAlgebra v0.7.1
  [621f4979] + AbstractFFTs v0.5.0
  [9e28174c] + BinDeps v1.0.0
  [b99e7846] + BinaryProvider v0.5.8
  [7a1cc6ca] + FFTW v1.2.0
  [f5851436] + FFTW_jll v3.3.9+5
  [5087d2c0] + IncGammaBeta v0.1.0
  [1d5cc7b8] + IntelOpenMP_jll v2018.0.3+0
  [856f044c] + MKL_jll v2019.0.117+2
  [2edaba10] + Nemo v0.15.1
  [189a3867] + Reexport v0.2.0
  [276daf66] + SpecialFunctions v0.8.0
  [0dd23c3e] + TwoFAST v0.1.0
  [30578b45] + URIParser v0.4.0
  [2a0f44e3] + Base64 
  [ade2ca70] + Dates 
  [8bb1440f] + DelimitedFiles 
  [8ba89e20] + Distributed 
  [b77e0a4c] + InteractiveUtils 
  [76f85450] + LibGit2 
  [8f399da3] + Libdl 
  [37e2e46d] + LinearAlgebra 
  [56ddb016] + Logging 
  [d6f4376e] + Markdown 
  [a63ad114] + Mmap 
  [44cfe95a] + Pkg 
  [de0858da] + Printf 
  [3fa0cd96] + REPL 
  [9a3f8284] + Random 
  [ea8e919c] + SHA 
  [9e88b42a] + Serialization 
  [6462fe0b] + Sockets 
  [2f01184e] + SparseArrays 
  [8dfed614] + Test 
  [cf7118a7] + UUIDs 
  [4ec0a83e] + Unicode 
   Building FFTW ────────────→ `~/.julia/packages/FFTW/qqcBj/deps/build.log`
   Building SpecialFunctions → `~/.julia/packages/SpecialFunctions/ne2iw/deps/build.log`
   Building Nemo ────────────→ `~/.julia/packages/Nemo/qzx0m/deps/build.log`
    Testing TwoFAST
Status `/tmp/jl_phQN7v/Manifest.toml`
  [c3fe647b] AbstractAlgebra v0.7.1
  [621f4979] AbstractFFTs v0.5.0
  [9e28174c] BinDeps v1.0.0
  [b99e7846] BinaryProvider v0.5.8
  [39dd38d3] Dierckx v0.4.1
  [7a1cc6ca] FFTW v1.2.0
  [f5851436] FFTW_jll v3.3.9+5
  [5087d2c0] IncGammaBeta v0.1.0
  [1d5cc7b8] IntelOpenMP_jll v2018.0.3+0
  [856f044c] MKL_jll v2019.0.117+2
  [2edaba10] Nemo v0.15.1
  [189a3867] Reexport v0.2.0
  [276daf66] SpecialFunctions v0.8.0
  [0dd23c3e] TwoFAST v0.1.0
  [30578b45] URIParser v0.4.0
  [2a0f44e3] Base64 
  [ade2ca70] Dates 
  [8bb1440f] DelimitedFiles 
  [8ba89e20] Distributed 
  [b77e0a4c] InteractiveUtils 
  [76f85450] LibGit2 
  [8f399da3] Libdl 
  [37e2e46d] LinearAlgebra 
  [56ddb016] Logging 
  [d6f4376e] Markdown 
  [a63ad114] Mmap 
  [44cfe95a] Pkg 
  [de0858da] Printf 
  [3fa0cd96] REPL 
  [9a3f8284] Random 
  [ea8e919c] SHA 
  [9e88b42a] Serialization 
  [6462fe0b] Sockets 
  [2f01184e] SparseArrays 
  [8dfed614] Test 
  [cf7118a7] UUIDs 
  [4ec0a83e] Unicode 

Welcome to Nemo version 0.15.1

Nemo comes with absolutely no warranty whatsoever


Welcome to Nemo version 0.15.1

Nemo comes with absolutely no warranty whatsoever

Testing ξ(r), ℓ=0, ν=-1 ... passed
Testing ξ(r), ℓ=0, ν=0 ... passed
Testing ξ(r), ℓ=0, ν=1 ... passed
Testing ξ(r), ℓ=0, ν=2 ... passed
Testing ξ(r), ℓ=0, ν=3 ... passed
Testing ξ(r), ℓ=1, ν=0 ... passed
Testing ξ(r), ℓ=1, ν=1 ... passed
Testing ξ(r), ℓ=1, ν=2 ... passed
Testing ξ(r), ℓ=1, ν=3 ... passed
Testing ξ(r), ℓ=2, ν=-1 ... passed
Testing ξ(r), ℓ=2, ν=0 ... passed
Testing ξ(r), ℓ=2, ν=1 ... passed
Testing ξ(r), ℓ=2, ν=2 ... passed
Testing ξ(r), ℓ=2, ν=3 ... passed
Testing ξ(r), ℓ=3, ν=-1 ... passed
Testing ξ(r), ℓ=3, ν=0 ... passed
Testing ξ(r), ℓ=3, ν=1 ... passed
Testing ξ(r), ℓ=3, ν=2 ... passed
Testing ξ(r), ℓ=3, ν=3 ... passed
Testing ξ(r), ℓ=4, ν=-1 ... passed
Testing ξ(r), ℓ=4, ν=0 ... passed
Testing ξ(r), ℓ=4, ν=1 ... passed
Testing ξ(r), ℓ=4, ν=2 ... passed
Testing ξ(r), ℓ=4, ν=3 ... passed
Testing ξ(r) ... passed
Testing ξ′(r) ... passed
Testing ξ″(r) ... passed
Calculating fmax: 
  dlrec    = 4
  dlrecRg1 = -4
  q=1.1, R=1.1:	  4.790925 seconds (1.36 M allocations: 75.329 MiB, 1.32% gc time)

  4.841073 seconds (1.38 M allocations: 76.439 MiB, 1.31% gc time)
ℓ = 1202
Δℓ = 4
ΔℓRg1 = -4
N = 1600
q = 1.1
kmin = 1.0e-5
kmax = 100000.00000000004
χ0 = 0.023029999999999995
RR = RR.tsv
ℓmax = ℓmax.bin
f21 = f21.bin
kmin = 1.0e-5
kmax = 100000.0
dlrec    = 4
dlrecRg1 = -4
Output size: 5741568 bytes = 0.005347251892089844 GiB
Output size: 51264 bytes = 4.774332046508789e-5 GiB
Reading 'out/F21EllCache'...   0.628229 seconds (318.62 k allocations: 16.413 MiB)
ellmax: 1202
lmaxcache: 1202
fell[:,1,1] = Complex{Float64}[3.9583795592771634e-52 - 9.695233714158177e-68im, 3.990121772925759e-52 - 9.772979714843386e-68im]
ell 1202, elapsed: 8.416175842285156e-5
ell 1201, elapsed: 2.2557151317596436
ell 1200, elapsed: 0.0005819797515869141
ell 1199, elapsed: 0.0005500316619873047
ell 1198, elapsed: 0.0005071163177490234
ell 1002, elapsed: 0.009435892105102539
ell 1001, elapsed: 0.0005099773406982422
ell 1000, elapsed: 0.0004901885986328125
ell 999, elapsed: 0.0005061626434326172
ell 998, elapsed: 0.0004878044128417969
ell 902, elapsed: 0.004966020584106445
ell 901, elapsed: 0.0005099773406982422
ell 900, elapsed: 0.0005209445953369141
ell 899, elapsed: 0.0004899501800537109
ell 898, elapsed: 0.0004839897155761719
ell 802, elapsed: 0.0049190521240234375
ell 801, elapsed: 0.0005090236663818359
ell 800, elapsed: 0.0005419254302978516
ell 799, elapsed: 0.0004949569702148438
ell 798, elapsed: 0.00048804283142089844
ell 702, elapsed: 0.004858970642089844
ell 701, elapsed: 0.0005099773406982422
ell 700, elapsed: 0.0005130767822265625
ell 699, elapsed: 0.0004849433898925781
ell 698, elapsed: 0.0004801750183105469
ell 602, elapsed: 0.004939079284667969
ell 601, elapsed: 0.0004999637603759766
ell 600, elapsed: 0.0004978179931640625
ell 599, elapsed: 0.0004928112030029297
ell 598, elapsed: 0.0004909038543701172
ell 502, elapsed: 0.004988908767700195
ell 501, elapsed: 0.0005340576171875
ell 500, elapsed: 0.0005099773406982422
ell 499, elapsed: 0.0005011558532714844
ell 498, elapsed: 0.0005018711090087891
ell 402, elapsed: 0.005037069320678711
ell 401, elapsed: 0.0005068778991699219
ell 400, elapsed: 0.0004899501800537109
ell 399, elapsed: 0.0004818439483642578
ell 398, elapsed: 0.00047898292541503906
ell 302, elapsed: 0.0048370361328125
ell 301, elapsed: 0.0005090236663818359
ell 300, elapsed: 0.000492095947265625
ell 299, elapsed: 0.00048804283142089844
ell 298, elapsed: 0.0004899501800537109
ell 202, elapsed: 0.004910945892333984
ell 201, elapsed: 0.0005199909210205078
ell 200, elapsed: 0.00048804283142089844
ell 199, elapsed: 0.0004911422729492188
ell 198, elapsed: 0.0004878044128417969
ell 152, elapsed: 0.002583026885986328
ell 151, elapsed: 0.0005080699920654297
ell 150, elapsed: 0.0004830360412597656
ell 149, elapsed: 0.0004870891571044922
ell 148, elapsed: 0.0004899501800537109
ell 127, elapsed: 0.0016210079193115234
ell 126, elapsed: 0.0004928112030029297
ell 125, elapsed: 0.0004858970642089844
ell 124, elapsed: 0.0004940032958984375
ell 123, elapsed: 0.00048804283142089844
ell 114, elapsed: 0.0008950233459472656
ell 113, elapsed: 0.0004801750183105469
ell 112, elapsed: 0.0004968643188476562
ell 111, elapsed: 0.0004849433898925781
ell 110, elapsed: 0.0004849433898925781
ell 102, elapsed: 0.0009310245513916016
ell 101, elapsed: 0.0004868507385253906
ell 100, elapsed: 0.0004858970642089844
ell 99, elapsed: 0.0005249977111816406
ell 98, elapsed: 0.0005700588226318359
ell 97, elapsed: 0.0005319118499755859
ell 96, elapsed: 0.0006051063537597656
ell 95, elapsed: 0.0005309581756591797
ell 94, elapsed: 0.0005929470062255859
ell 93, elapsed: 0.0005331039428710938
ell 92, elapsed: 0.0005910396575927734
ell 91, elapsed: 0.000537872314453125
ell 90, elapsed: 0.0005831718444824219
ell 89, elapsed: 0.0005400180816650391
ell 88, elapsed: 0.0006670951843261719
ell 87, elapsed: 0.0005159378051757812
ell 86, elapsed: 0.0005919933319091797
ell 85, elapsed: 0.0005400180816650391
ell 84, elapsed: 0.0006060600280761719
ell 83, elapsed: 0.0005788803100585938
ell 82, elapsed: 0.0005819797515869141
ell 81, elapsed: 0.0005271434783935547
ell 80, elapsed: 0.0005829334259033203
ell 79, elapsed: 0.0005199909210205078
ell 78, elapsed: 0.000598907470703125
ell 77, elapsed: 0.0005199909210205078
ell 76, elapsed: 0.0005860328674316406
ell 75, elapsed: 0.0005168914794921875
ell 74, elapsed: 0.0005850791931152344
ell 73, elapsed: 0.000514984130859375
ell 72, elapsed: 0.0005710124969482422
ell 71, elapsed: 0.0005331039428710938
ell 70, elapsed: 0.0005819797515869141
ell 69, elapsed: 0.0005171298980712891
ell 68, elapsed: 0.0005791187286376953
ell 67, elapsed: 0.0005140304565429688
ell 66, elapsed: 0.0005819797515869141
ell 65, elapsed: 0.000514984130859375
ell 64, elapsed: 0.0005979537963867188
ell 63, elapsed: 0.0005159378051757812
ell 62, elapsed: 0.0005769729614257812
ell 61, elapsed: 0.0005209445953369141
ell 60, elapsed: 0.0005800724029541016
ell 59, elapsed: 0.0005159378051757812
ell 58, elapsed: 0.0006411075592041016
ell 57, elapsed: 0.0005190372467041016
ell 56, elapsed: 0.0005857944488525391
ell 55, elapsed: 0.0005249977111816406
ell 54, elapsed: 0.0005800724029541016
ell 53, elapsed: 0.0005140304565429688
ell 52, elapsed: 0.0005750656127929688
ell 51, elapsed: 0.0005409717559814453
ell 50, elapsed: 0.0005860328674316406
ell 49, elapsed: 0.0005331039428710938
ell 48, elapsed: 0.0007410049438476562
ell 47, elapsed: 0.0007500648498535156
ell 46, elapsed: 0.0008831024169921875
ell 45, elapsed: 0.0007290840148925781
ell 44, elapsed: 0.0005950927734375
ell 43, elapsed: 0.0005190372467041016
ell 42, elapsed: 0.0005848407745361328
ell 41, elapsed: 0.000514984130859375
ell 40, elapsed: 0.0006670951843261719
ell 39, elapsed: 0.0005228519439697266
ell 38, elapsed: 0.0005869865417480469
ell 37, elapsed: 0.0005221366882324219
ell 36, elapsed: 0.0005848407745361328
ell 35, elapsed: 0.0005140304565429688
ell 34, elapsed: 0.0005829334259033203
ell 33, elapsed: 0.0006160736083984375
ell 32, elapsed: 0.0005800724029541016
ell 31, elapsed: 0.0005140304565429688
ell 30, elapsed: 0.0005869865417480469
ell 29, elapsed: 0.0005140304565429688
ell 28, elapsed: 0.0005939006805419922
ell 27, elapsed: 0.00061798095703125
ell 26, elapsed: 0.0005800724029541016
ell 25, elapsed: 0.0005199909210205078
ell 24, elapsed: 0.0005919933319091797
ell 23, elapsed: 0.0005199909210205078
ell 22, elapsed: 0.0005910396575927734
ell 21, elapsed: 0.0005118846893310547
ell 20, elapsed: 0.0006899833679199219
ell 19, elapsed: 0.000514984130859375
ell 18, elapsed: 0.0005819797515869141
ell 17, elapsed: 0.0005209445953369141
ell 16, elapsed: 0.000576019287109375
ell 15, elapsed: 0.0005359649658203125
ell 14, elapsed: 0.0006649494171142578
ell 13, elapsed: 0.0005338191986083984
ell 12, elapsed: 0.0005879402160644531
ell 11, elapsed: 0.0005199909210205078
ell 10, elapsed: 0.0005710124969482422
ell 9, elapsed: 0.0005178451538085938
ell 8, elapsed: 0.0005960464477539062
ell 7, elapsed: 0.0006048679351806641
ell 6, elapsed: 0.0006020069122314453
ell 5, elapsed: 0.0005881786346435547
ell 4, elapsed: 0.0005860328674316406
ell 3, elapsed: 0.0005171298980712891
ell 2, elapsed: 0.0005891323089599609
ell 1, elapsed: 0.0005230903625488281
ell 0, elapsed: 0.0005898475646972656
  3.080930 seconds (1.99 M allocations: 96.498 MiB, 2.39% gc time)
elapsed: 0.0006399154663085938
step:          0.865833 sec (567.741 k allocations: 27.705 MB, 8.52% gc time)
swapping:      0.000578 sec (0 allocations: 0 byte, 0.0% gc time)
calc_Mellell!: 0.508023 sec (376.764 k allocations: 18.558 MB, 0.0% gc time)
  t0 :  0.0 sec (0 allocations: 0 byte, 0.0% gc time)
  tm2 : 0.0 sec (0 allocations: 0 byte, 0.0% gc time)
  tm2s: 0.0 sec (0 allocations: 0 byte, 0.0% gc time)
  tm4 : 0.0 sec (0 allocations: 0 byte, 0.0% gc time)
  tp2 : 0.0 sec (0 allocations: 0 byte, 0.0% gc time)
  tp2s: 0.0 sec (0 allocations: 0 byte, 0.0% gc time)
  tp4 : 0.0 sec (0 allocations: 0 byte, 0.0% gc time)
calc_wtdll!:   1.005088 sec (525.864 k allocations: 26.377 MB, 0.0% gc time)
calc_wljj!:    0.003462 sec (6 allocations: 96 byte, 0.0% gc time)
mult_prefac!:  0.0 sec (0 allocations: 0 byte, 0.0% gc time)
convert:       0.0 sec (0 allocations: 0 byte, 0.0% gc time)
write:         0.004198 sec (0 allocations: 0 byte, 0.0% gc time)
test_rand_2f1: 0.0 sec (0 allocations: 0 byte, 0.0% gc time)
Closing outfile out/Ml21-cache.bin...   0.000077 seconds
  2.212846 seconds (832.77 k allocations: 80.636 MiB, 1.21% gc time)
make_phi():   0.032010 seconds (8.33 k allocations: 250.453 KiB)
  0.278918 seconds (176.24 k allocations: 11.463 MiB)
tskip:       2.6e-5 sec (0 allocations: 0 byte, 0.0% gc time)
tread:       0.002637 sec (19 allocations: 2.172 KB, 0.0% gc time)
tmultphi:    0.075126 sec (26.022 k allocations: 1.338 MB, 0.0% gc time)
tbrfft:      0.026132 sec (55.439 k allocations: 5.604 MB, 0.0% gc time)
tmultprefac: 0.004453 sec (0 allocations: 0 byte, 0.0% gc time)
toutfunc:    0.170395 sec (94.102 k allocations: 4.45 MB, 0.0% gc time)
Testing R=1.1 ... passed
Calculating fmax: 
  dlrec    = 4
  dlrecRg1 = -4
  q=1.1, R=1.0:	  0.001829 seconds (4.00 k allocations: 300.375 KiB)

  0.002001 seconds (4.04 k allocations: 334.734 KiB)
ℓ = 1202
Δℓ = 4
ΔℓRg1 = -4
N = 1600
q = 1.1
kmin = 1.0e-5
kmax = 100000.00000000004
χ0 = 0.023029999999999995
RR = RR.tsv
ℓmax = ℓmax.bin
f21 = f21.bin
kmin = 1.0e-5
kmax = 100000.0
dlrec    = 4
dlrecRg1 = -4
Output size: 61465536 bytes = 0.05724424123764038 GiB
Output size: 51264 bytes = 4.774332046508789e-5 GiB
Reading 'out/F21EllCache'...   0.001133 seconds (267 allocations: 84.656 KiB)
ellmax: 1202
lmaxcache: 1202
fell[:,1,1] = Complex{Float64}[809.6031528389767 - 1.9829558194077161e-13im, 0.0 + 0.0im]
ell 1202, elapsed: 2.5033950805664062e-5
ell 1201, elapsed: 0.016546964645385742
ell 1200, elapsed: 0.00046896934509277344
ell 1199, elapsed: 0.0004849433898925781
ell 1198, elapsed: 0.0004999637603759766
ell 1197, elapsed: 0.0005021095275878906
ell 1196, elapsed: 0.0005500316619873047
ell 1195, elapsed: 0.0006458759307861328
ell 1194, elapsed: 0.0006248950958251953
ell 1193, elapsed: 0.0005381107330322266
ell 1192, elapsed: 0.00067901611328125
ell 1191, elapsed: 0.0005669593811035156
ell 1190, elapsed: 0.0005660057067871094
ell 1189, elapsed: 0.0005450248718261719
ell 1188, elapsed: 0.0004889965057373047
ell 1187, elapsed: 0.0006251335144042969
ell 1186, elapsed: 0.0005228519439697266
ell 1185, elapsed: 0.0006070137023925781
ell 1184, elapsed: 0.0005469322204589844
ell 1183, elapsed: 0.0006389617919921875
ell 1182, elapsed: 0.0004780292510986328
ell 1181, elapsed: 0.0006151199340820312
ell 1180, elapsed: 0.0004601478576660156
ell 1179, elapsed: 0.0007321834564208984
ell 1178, elapsed: 0.0006427764892578125
ell 1177, elapsed: 0.0007190704345703125
ell 1176, elapsed: 0.0005571842193603516
ell 1175, elapsed: 0.00045609474182128906
ell 1174, elapsed: 0.0003941059112548828
ell 1173, elapsed: 0.0004649162292480469
ell 1172, elapsed: 0.00040793418884277344
ell 1171, elapsed: 0.0006151199340820312
ell 1170, elapsed: 0.0005028247833251953
ell 1169, elapsed: 0.0005559921264648438
ell 1168, elapsed: 0.0005459785461425781
ell 1167, elapsed: 0.00043392181396484375
ell 1166, elapsed: 0.0005400180816650391
ell 1165, elapsed: 0.0006289482116699219
ell 1164, elapsed: 0.0003859996795654297
ell 1163, elapsed: 0.0004420280456542969
ell 1162, elapsed: 0.00047898292541503906
ell 1161, elapsed: 0.0006318092346191406
ell 1160, elapsed: 0.0003829002380371094
ell 1159, elapsed: 0.0004410743713378906
ell 1158, elapsed: 0.000392913818359375
ell 1157, elapsed: 0.00047588348388671875
ell 1156, elapsed: 0.00038909912109375
ell 1155, elapsed: 0.0004608631134033203
ell 1154, elapsed: 0.0005688667297363281
ell 1153, elapsed: 0.0005221366882324219
ell 1152, elapsed: 0.0003910064697265625
ell 1151, elapsed: 0.00045299530029296875
ell 1150, elapsed: 0.0003859996795654297
ell 1149, elapsed: 0.00045800209045410156
ell 1148, elapsed: 0.0005269050598144531
ell 1147, elapsed: 0.0005447864532470703
ell 1146, elapsed: 0.0005738735198974609
ell 1145, elapsed: 0.0007038116455078125
ell 1144, elapsed: 0.0006158351898193359
ell 1143, elapsed: 0.0007228851318359375
ell 1142, elapsed: 0.0006079673767089844
ell 1141, elapsed: 0.0005939006805419922
ell 1140, elapsed: 0.0003910064697265625
ell 1139, elapsed: 0.00045180320739746094
ell 1138, elapsed: 0.0005331039428710938
ell 1137, elapsed: 0.0006830692291259766
ell 1136, elapsed: 0.0006070137023925781
ell 1135, elapsed: 0.0006999969482421875
ell 1134, elapsed: 0.0004780292510986328
ell 1133, elapsed: 0.0004570484161376953
ell 1132, elapsed: 0.00039196014404296875
ell 1131, elapsed: 0.0004668235778808594
ell 1130, elapsed: 0.0003960132598876953
ell 1129, elapsed: 0.00045990943908691406
ell 1128, elapsed: 0.0004410743713378906
ell 1127, elapsed: 0.0005409717559814453
ell 1126, elapsed: 0.0005359649658203125
ell 1125, elapsed: 0.00044608116149902344
ell 1124, elapsed: 0.00038504600524902344
ell 1123, elapsed: 0.0006439685821533203
ell 1122, elapsed: 0.0006151199340820312
ell 1121, elapsed: 0.0005941390991210938
ell 1120, elapsed: 0.00038695335388183594
ell 1119, elapsed: 0.00045299530029296875
ell 1118, elapsed: 0.0003788471221923828
ell 1117, elapsed: 0.00045108795166015625
ell 1116, elapsed: 0.0005140304565429688
ell 1115, elapsed: 0.0005750656127929688
ell 1114, elapsed: 0.0003941059112548828
ell 1113, elapsed: 0.0004858970642089844
ell 1112, elapsed: 0.0003910064697265625
ell 1111, elapsed: 0.0004470348358154297
ell 1110, elapsed: 0.00039696693420410156
ell 1109, elapsed: 0.0004520416259765625
ell 1108, elapsed: 0.00039696693420410156
ell 1107, elapsed: 0.0006668567657470703
ell 1106, elapsed: 0.0006258487701416016
ell 1105, elapsed: 0.0005409717559814453
ell 1104, elapsed: 0.0005168914794921875
ell 1103, elapsed: 0.0006031990051269531
ell 1102, elapsed: 0.0005710124969482422
ell 1101, elapsed: 0.0007021427154541016
ell 1100, elapsed: 0.0006220340728759766
ell 1099, elapsed: 0.0006299018859863281
ell 1098, elapsed: 0.0005490779876708984
ell 1097, elapsed: 0.0007088184356689453
ell 1096, elapsed: 0.0006251335144042969
ell 1095, elapsed: 0.0006968975067138672
ell 1094, elapsed: 0.000453948974609375
ell 1093, elapsed: 0.0007760524749755859
ell 1092, elapsed: 0.0006270408630371094
ell 1091, elapsed: 0.0005939006805419922
ell 1090, elapsed: 0.00048804283142089844
ell 1089, elapsed: 0.0007040500640869141
ell 1088, elapsed: 0.0006241798400878906
ell 1087, elapsed: 0.0006549358367919922
ell 1086, elapsed: 0.0005221366882324219
ell 1085, elapsed: 0.0005970001220703125
ell 1084, elapsed: 0.0005300045013427734
ell 1083, elapsed: 0.0006999969482421875
ell 1082, elapsed: 0.0006299018859863281
ell 1081, elapsed: 0.0007319450378417969
ell 1080, elapsed: 0.0005128383636474609
ell 1079, elapsed: 0.0005998611450195312
ell 1078, elapsed: 0.0006201267242431641
ell 1077, elapsed: 0.0006160736083984375
ell 1076, elapsed: 0.0005509853363037109
ell 1075, elapsed: 0.0005741119384765625
ell 1074, elapsed: 0.0005698204040527344
ell 1073, elapsed: 0.0005428791046142578
ell 1072, elapsed: 0.0005140304565429688
ell 1071, elapsed: 0.0007009506225585938
ell 1070, elapsed: 0.0006201267242431641
ell 1069, elapsed: 0.0007369518280029297
ell 1068, elapsed: 0.0005109310150146484
ell 1067, elapsed: 0.0006101131439208984
ell 1066, elapsed: 0.0006310939788818359
ell 1065, elapsed: 0.0007109642028808594
ell 1064, elapsed: 0.0006279945373535156
ell 1063, elapsed: 0.0007190704345703125
ell 1062, elapsed: 0.0006260871887207031
ell 1061, elapsed: 0.0007061958312988281
ell 1060, elapsed: 0.0006229877471923828
ell 1059, elapsed: 0.0005750656127929688
ell 1058, elapsed: 0.0005509853363037109
ell 1057, elapsed: 0.0008242130279541016
ell 1056, elapsed: 0.0005218982696533203
ell 1055, elapsed: 0.0007090568542480469
ell 1054, elapsed: 0.0006229877471923828
ell 1053, elapsed: 0.0007059574127197266
ell 1052, elapsed: 0.0005030632019042969
ell 1051, elapsed: 0.000659942626953125
ell 1050, elapsed: 0.0006279945373535156
ell 1049, elapsed: 0.0007021427154541016
ell 1048, elapsed: 0.0004830360412597656
ell 1047, elapsed: 0.0006580352783203125
ell 1046, elapsed: 0.0005471706390380859
ell 1045, elapsed: 0.0007200241088867188
ell 1044, elapsed: 0.0006241798400878906
ell 1043, elapsed: 0.0007059574127197266
ell 1042, elapsed: 0.0006270408630371094
ell 1041, elapsed: 0.0007069110870361328
ell 1040, elapsed: 0.0006308555603027344
ell 1039, elapsed: 0.0005497932434082031
ell 1038, elapsed: 0.0005519390106201172
ell 1037, elapsed: 0.000701904296875
ell 1036, elapsed: 0.0005741119384765625
ell 1035, elapsed: 0.0006480216979980469
ell 1034, elapsed: 0.0006420612335205078
ell 1033, elapsed: 0.0008399486541748047
ell 1032, elapsed: 0.0006399154663085938
ell 1031, elapsed: 0.0006830692291259766
ell 1030, elapsed: 0.0005171298980712891
ell 1029, elapsed: 0.00057220458984375
ell 1028, elapsed: 0.0006477832794189453
ell 1027, elapsed: 0.0007240772247314453
ell 1026, elapsed: 0.0005090236663818359
ell 1025, elapsed: 0.0006399154663085938
ell 1024, elapsed: 0.000514984130859375
ell 1023, elapsed: 0.0006399154663085938
ell 1022, elapsed: 0.0006210803985595703
ell 1021, elapsed: 0.0007059574127197266
ell 1020, elapsed: 0.0005848407745361328
ell 1019, elapsed: 0.0007259845733642578
ell 1018, elapsed: 0.00046706199645996094
ell 1017, elapsed: 0.0006439685821533203
ell 1016, elapsed: 0.0005488395690917969
ell 1015, elapsed: 0.0007288455963134766
ell 1014, elapsed: 0.0006330013275146484
ell 1013, elapsed: 0.0005800724029541016
ell 1012, elapsed: 0.0005769729614257812
ell 1011, elapsed: 0.0007150173187255859
ell 1010, elapsed: 0.0004978179931640625
ell 1009, elapsed: 0.0006830692291259766
ell 1008, elapsed: 0.0005190372467041016
ell 1007, elapsed: 0.00047397613525390625
ell 1006, elapsed: 0.0005719661712646484
ell 1005, elapsed: 0.0007181167602539062
ell 1004, elapsed: 0.0005171298980712891
ell 1003, elapsed: 0.0006899833679199219
ell 1002, elapsed: 0.0005559921264648438
ell 1001, elapsed: 0.0004551410675048828
ell 1000, elapsed: 0.0005099773406982422
ell 999, elapsed: 0.0007200241088867188
ell 998, elapsed: 0.0006110668182373047
ell 997, elapsed: 0.0006251335144042969
ell 996, elapsed: 0.0005130767822265625
ell 995, elapsed: 0.0007050037384033203
ell 994, elapsed: 0.0006320476531982422
ell 993, elapsed: 0.0006270408630371094
ell 992, elapsed: 0.0005369186401367188
ell 991, elapsed: 0.0008411407470703125
ell 990, elapsed: 0.0005800724029541016
ell 989, elapsed: 0.0006418228149414062
ell 988, elapsed: 0.0006480216979980469
ell 987, elapsed: 0.0006182193756103516
ell 986, elapsed: 0.0004000663757324219
ell 985, elapsed: 0.0006530284881591797
ell 984, elapsed: 0.0005509853363037109
ell 983, elapsed: 0.0006082057952880859
ell 982, elapsed: 0.0005178451538085938
ell 981, elapsed: 0.0006442070007324219
ell 980, elapsed: 0.0005278587341308594
ell 979, elapsed: 0.0005819797515869141
ell 978, elapsed: 0.0006411075592041016
ell 977, elapsed: 0.0005199909210205078
ell 976, elapsed: 0.0005600452423095703
ell 975, elapsed: 0.0007121562957763672
ell 974, elapsed: 0.0006220340728759766
ell 973, elapsed: 0.0006151199340820312
ell 972, elapsed: 0.0006330013275146484
ell 971, elapsed: 0.0006198883056640625
ell 970, elapsed: 0.0005438327789306641
ell 969, elapsed: 0.0007100105285644531
ell 968, elapsed: 0.0006270408630371094
ell 967, elapsed: 0.00055694580078125
ell 966, elapsed: 0.0007510185241699219
ell 965, elapsed: 0.0006060600280761719
ell 964, elapsed: 0.0005629062652587891
ell 963, elapsed: 0.0007030963897705078
ell 962, elapsed: 0.0006289482116699219
ell 961, elapsed: 0.0007150173187255859
ell 960, elapsed: 0.0006301403045654297
ell 959, elapsed: 0.0005071163177490234
ell 958, elapsed: 0.0005128383636474609
ell 957, elapsed: 0.0006489753723144531
ell 956, elapsed: 0.0005159378051757812
ell 955, elapsed: 0.0007119178771972656
ell 954, elapsed: 0.0007250308990478516
ell 953, elapsed: 0.0005998611450195312
ell 952, elapsed: 0.0005650520324707031
ell 951, elapsed: 0.0006401538848876953
ell 950, elapsed: 0.0005021095275878906
ell 949, elapsed: 0.0007150173187255859
ell 948, elapsed: 0.0006201267242431641
ell 947, elapsed: 0.0005311965942382812
ell 946, elapsed: 0.0004949569702148438
ell 945, elapsed: 0.0007109642028808594
ell 944, elapsed: 0.0006251335144042969
ell 943, elapsed: 0.0007050037384033203
ell 942, elapsed: 0.0007688999176025391
ell 941, elapsed: 0.0005869865417480469
ell 940, elapsed: 0.0005168914794921875
ell 939, elapsed: 0.000701904296875
ell 938, elapsed: 0.0005669593811035156
ell 937, elapsed: 0.0007011890411376953
ell 936, elapsed: 0.0008039474487304688
ell 935, elapsed: 0.0007069110870361328
ell 934, elapsed: 0.0004909038543701172
ell 933, elapsed: 0.0004470348358154297
ell 932, elapsed: 0.0003750324249267578
ell 931, elapsed: 0.00044798851013183594
ell 930, elapsed: 0.0003819465637207031
ell 929, elapsed: 0.0004439353942871094
ell 928, elapsed: 0.0004711151123046875
ell 927, elapsed: 0.0005109310150146484
ell 926, elapsed: 0.00037789344787597656
ell 925, elapsed: 0.00044798851013183594
ell 924, elapsed: 0.0003800392150878906
ell 923, elapsed: 0.0006160736083984375
ell 922, elapsed: 0.0004889965057373047
ell 921, elapsed: 0.0007269382476806641
ell 920, elapsed: 0.0005540847778320312
ell 919, elapsed: 0.0006501674652099609
ell 918, elapsed: 0.0006251335144042969
ell 917, elapsed: 0.000701904296875
ell 916, elapsed: 0.0006260871887207031
ell 915, elapsed: 0.0007100105285644531
ell 914, elapsed: 0.00045108795166015625
ell 913, elapsed: 0.0006411075592041016
ell 912, elapsed: 0.0006351470947265625
ell 911, elapsed: 0.0006959438323974609
ell 910, elapsed: 0.0006220340728759766
ell 909, elapsed: 0.0008120536804199219
ell 908, elapsed: 0.0005688667297363281
ell 907, elapsed: 0.0006928443908691406
ell 906, elapsed: 0.0006229877471923828
ell 905, elapsed: 0.0006921291351318359
ell 904, elapsed: 0.0006649494171142578
ell 903, elapsed: 0.0005970001220703125
ell 902, elapsed: 0.0005831718444824219
ell 901, elapsed: 0.0005469322204589844
ell 900, elapsed: 0.0005340576171875
ell 899, elapsed: 0.0006089210510253906
ell 898, elapsed: 0.0005519390106201172
ell 897, elapsed: 0.0006339550018310547
ell 896, elapsed: 0.000453948974609375
ell 895, elapsed: 0.0006618499755859375
ell 894, elapsed: 0.0006201267242431641
ell 893, elapsed: 0.0007119178771972656
ell 892, elapsed: 0.0005300045013427734
ell 891, elapsed: 0.0006799697875976562
ell 890, elapsed: 0.000514984130859375
ell 889, elapsed: 0.0006568431854248047
ell 888, elapsed: 0.00047588348388671875
ell 887, elapsed: 0.0006279945373535156
ell 886, elapsed: 0.0004792213439941406
ell 885, elapsed: 0.0005869865417480469
ell 884, elapsed: 0.0006070137023925781
ell 883, elapsed: 0.0006418228149414062
ell 882, elapsed: 0.0006229877471923828
ell 881, elapsed: 0.0007030963897705078
ell 880, elapsed: 0.0005249977111816406
ell 879, elapsed: 0.0006840229034423828
ell 878, elapsed: 0.0005440711975097656
ell 877, elapsed: 0.0006101131439208984
ell 876, elapsed: 0.0005202293395996094
ell 875, elapsed: 0.0005729198455810547
ell 874, elapsed: 0.0006310939788818359
ell 873, elapsed: 0.0006139278411865234
ell 872, elapsed: 0.0006098747253417969
ell 871, elapsed: 0.0006809234619140625
ell 870, elapsed: 0.0006620883941650391
ell 869, elapsed: 0.0006129741668701172
ell 868, elapsed: 0.0005691051483154297
ell 867, elapsed: 0.0007309913635253906
ell 866, elapsed: 0.0005929470062255859
ell 865, elapsed: 0.0006108283996582031
ell 864, elapsed: 0.0005040168762207031
ell 863, elapsed: 0.0006341934204101562
ell 862, elapsed: 0.0006389617919921875
ell 861, elapsed: 0.0007290840148925781
ell 860, elapsed: 0.000598907470703125
ell 859, elapsed: 0.0006449222564697266
ell 858, elapsed: 0.0004730224609375
ell 857, elapsed: 0.0005550384521484375
ell 856, elapsed: 0.0006210803985595703
ell 855, elapsed: 0.0006999969482421875
ell 854, elapsed: 0.0005879402160644531
ell 853, elapsed: 0.0005209445953369141
ell 852, elapsed: 0.0005409717559814453
ell 851, elapsed: 0.0007081031799316406
ell 850, elapsed: 0.0006248950958251953
ell 849, elapsed: 0.0006930828094482422
ell 848, elapsed: 0.0006000995635986328
ell 847, elapsed: 0.0005259513854980469
ell 846, elapsed: 0.0005609989166259766
ell 845, elapsed: 0.0006918907165527344
ell 844, elapsed: 0.0006220340728759766
ell 843, elapsed: 0.0007131099700927734
ell 842, elapsed: 0.0005369186401367188
ell 841, elapsed: 0.0005331039428710938
ell 840, elapsed: 0.0004961490631103516
ell 839, elapsed: 0.0007069110870361328
ell 838, elapsed: 0.0005609989166259766
ell 837, elapsed: 0.0006289482116699219
ell 836, elapsed: 0.0005278587341308594
ell 835, elapsed: 0.0005359649658203125
ell 834, elapsed: 0.00044083595275878906
ell 833, elapsed: 0.0006160736083984375
ell 832, elapsed: 0.0006148815155029297
ell 831, elapsed: 0.0005540847778320312
ell 830, elapsed: 0.0005629062652587891
ell 829, elapsed: 0.0007660388946533203
ell 828, elapsed: 0.0005609989166259766
ell 827, elapsed: 0.0006577968597412109
ell 826, elapsed: 0.00061798095703125
ell 825, elapsed: 0.0006220340728759766
ell 824, elapsed: 0.0004849433898925781
ell 823, elapsed: 0.0006630420684814453
ell 822, elapsed: 0.00045609474182128906
ell 821, elapsed: 0.0006659030914306641
ell 820, elapsed: 0.0005440711975097656
ell 819, elapsed: 0.0006139278411865234
ell 818, elapsed: 0.0006239414215087891
ell 817, elapsed: 0.00074005126953125
ell 816, elapsed: 0.0004990100860595703
ell 815, elapsed: 0.0006499290466308594
ell 814, elapsed: 0.0006258487701416016
ell 813, elapsed: 0.0007038116455078125
ell 812, elapsed: 0.0006389617919921875
ell 811, elapsed: 0.00072479248046875
ell 810, elapsed: 0.0006248950958251953
ell 809, elapsed: 0.0007011890411376953
ell 808, elapsed: 0.0005412101745605469
ell 807, elapsed: 0.0006198883056640625
ell 806, elapsed: 0.0005409717559814453
ell 805, elapsed: 0.0006670951843261719
ell 804, elapsed: 0.0005340576171875
ell 803, elapsed: 0.0007078647613525391
ell 802, elapsed: 0.0005409717559814453
ell 801, elapsed: 0.0006079673767089844
ell 800, elapsed: 0.0006279945373535156
ell 799, elapsed: 0.0006380081176757812
ell 798, elapsed: 0.000640869140625
ell 797, elapsed: 0.0007359981536865234
ell 796, elapsed: 0.0005600452423095703
ell 795, elapsed: 0.0006549358367919922
ell 794, elapsed: 0.0005168914794921875
ell 793, elapsed: 0.0004470348358154297
ell 792, elapsed: 0.0004010200500488281
ell 791, elapsed: 0.0004410743713378906
ell 790, elapsed: 0.0003788471221923828
ell 789, elapsed: 0.00045490264892578125
ell 788, elapsed: 0.00047707557678222656
ell 787, elapsed: 0.0006949901580810547
ell 786, elapsed: 0.0006229877471923828
ell 785, elapsed: 0.0006310939788818359
ell 784, elapsed: 0.0005359649658203125
ell 783, elapsed: 0.0005769729614257812
ell 782, elapsed: 0.0005700588226318359
ell 781, elapsed: 0.0007159709930419922
ell 780, elapsed: 0.0006430149078369141
ell 779, elapsed: 0.0007090568542480469
ell 778, elapsed: 0.0005741119384765625
ell 777, elapsed: 0.0006010532379150391
ell 776, elapsed: 0.0005431175231933594
ell 775, elapsed: 0.0007309913635253906
ell 774, elapsed: 0.0005331039428710938
ell 773, elapsed: 0.0006458759307861328
ell 772, elapsed: 0.0006310939788818359
ell 771, elapsed: 0.0007169246673583984
ell 770, elapsed: 0.0006339550018310547
ell 769, elapsed: 0.000637054443359375
ell 768, elapsed: 0.0005180835723876953
ell 767, elapsed: 0.0008490085601806641
ell 766, elapsed: 0.0006291866302490234
ell 765, elapsed: 0.0007021427154541016
ell 764, elapsed: 0.0006229877471923828
ell 763, elapsed: 0.0006990432739257812
ell 762, elapsed: 0.0006248950958251953
ell 761, elapsed: 0.000720977783203125
ell 760, elapsed: 0.0006229877471923828
ell 759, elapsed: 0.0006937980651855469
ell 758, elapsed: 0.0006220340728759766
ell 757, elapsed: 0.0006909370422363281
ell 756, elapsed: 0.00046706199645996094
ell 755, elapsed: 0.00045680999755859375
ell 754, elapsed: 0.00036406517028808594
ell 753, elapsed: 0.0005481243133544922
ell 752, elapsed: 0.0006299018859863281
ell 751, elapsed: 0.0007059574127197266
ell 750, elapsed: 0.0006492137908935547
ell 749, elapsed: 0.0007381439208984375
ell 748, elapsed: 0.0006268024444580078
ell 747, elapsed: 0.0007040500640869141
ell 746, elapsed: 0.0006208419799804688
ell 745, elapsed: 0.0007061958312988281
ell 744, elapsed: 0.0006248950958251953
ell 743, elapsed: 0.0007240772247314453
ell 742, elapsed: 0.00048613548278808594
ell 741, elapsed: 0.0004291534423828125
ell 740, elapsed: 0.00037097930908203125
ell 739, elapsed: 0.00043201446533203125
ell 738, elapsed: 0.0005040168762207031
ell 737, elapsed: 0.0007178783416748047
ell 736, elapsed: 0.0006489753723144531
ell 735, elapsed: 0.0005669593811035156
ell 734, elapsed: 0.0005719661712646484
ell 733, elapsed: 0.0007221698760986328
ell 732, elapsed: 0.0006380081176757812
ell 731, elapsed: 0.0007379055023193359
ell 730, elapsed: 0.0005660057067871094
ell 729, elapsed: 0.0006358623504638672
ell 728, elapsed: 0.0005319118499755859
ell 727, elapsed: 0.0004200935363769531
ell 726, elapsed: 0.000370025634765625
ell 725, elapsed: 0.0004451274871826172
ell 724, elapsed: 0.0004990100860595703
ell 723, elapsed: 0.0007331371307373047
ell 722, elapsed: 0.0006320476531982422
ell 721, elapsed: 0.0006501674652099609
ell 720, elapsed: 0.0005660057067871094
ell 719, elapsed: 0.0007281303405761719
ell 718, elapsed: 0.0005939006805419922
ell 717, elapsed: 0.0005769729614257812
ell 716, elapsed: 0.00037097930908203125
ell 715, elapsed: 0.0006148815155029297
ell 714, elapsed: 0.00045108795166015625
ell 713, elapsed: 0.0006010532379150391
ell 712, elapsed: 0.0006318092346191406
ell 711, elapsed: 0.0007269382476806641
ell 710, elapsed: 0.0006349086761474609
ell 709, elapsed: 0.0006489753723144531
ell 708, elapsed: 0.0005750656127929688
ell 707, elapsed: 0.0007040500640869141
ell 706, elapsed: 0.0004448890686035156
ell 705, elapsed: 0.0004220008850097656
ell 704, elapsed: 0.0003859996795654297
ell 703, elapsed: 0.0006668567657470703
ell 702, elapsed: 0.0006339550018310547
ell 701, elapsed: 0.0007131099700927734
ell 700, elapsed: 0.0006291866302490234
ell 699, elapsed: 0.0007040500640869141
ell 698, elapsed: 0.0005619525909423828
ell 697, elapsed: 0.0006589889526367188
ell 696, elapsed: 0.0006318092346191406
ell 695, elapsed: 0.0005421638488769531
ell 694, elapsed: 0.00036406517028808594
ell 693, elapsed: 0.0006089210510253906
ell 692, elapsed: 0.0006170272827148438
ell 691, elapsed: 0.0007369518280029297
ell 690, elapsed: 0.0005140304565429688
ell 689, elapsed: 0.0006358623504638672
ell 688, elapsed: 0.000614166259765625
ell 687, elapsed: 0.0006220340728759766
ell 686, elapsed: 0.0005400180816650391
ell 685, elapsed: 0.0008218288421630859
ell 684, elapsed: 0.0006289482116699219
ell 683, elapsed: 0.0007259845733642578
ell 682, elapsed: 0.0006079673767089844
ell 681, elapsed: 0.0005609989166259766
ell 680, elapsed: 0.0003712177276611328
ell 679, elapsed: 0.0006430149078369141
ell 678, elapsed: 0.0005428791046142578
ell 677, elapsed: 0.0006468296051025391
ell 676, elapsed: 0.0005369186401367188
ell 675, elapsed: 0.0005741119384765625
ell 674, elapsed: 0.0006308555603027344
ell 673, elapsed: 0.0005838871002197266
ell 672, elapsed: 0.0005910396575927734
ell 671, elapsed: 0.0007159709930419922
ell 670, elapsed: 0.0005180835723876953
ell 669, elapsed: 0.0006089210510253906
ell 668, elapsed: 0.0006358623504638672
ell 667, elapsed: 0.0005550384521484375
ell 666, elapsed: 0.0006039142608642578
ell 665, elapsed: 0.0007059574127197266
ell 664, elapsed: 0.0006239414215087891
ell 663, elapsed: 0.0006971359252929688
ell 662, elapsed: 0.0006210803985595703
ell 661, elapsed: 0.0008091926574707031
ell 660, elapsed: 0.0005459785461425781
ell 659, elapsed: 0.0006959438323974609
ell 658, elapsed: 0.0006380081176757812
ell 657, elapsed: 0.0005469322204589844
ell 656, elapsed: 0.00047516822814941406
ell 655, elapsed: 0.0008068084716796875
ell 654, elapsed: 0.0006310939788818359
ell 653, elapsed: 0.0006620883941650391
ell 652, elapsed: 0.0006380081176757812
ell 651, elapsed: 0.0007028579711914062
ell 650, elapsed: 0.00048613548278808594
ell 649, elapsed: 0.0006229877471923828
ell 648, elapsed: 0.0004899501800537109
ell 647, elapsed: 0.00045299530029296875
ell 646, elapsed: 0.0003921985626220703
ell 645, elapsed: 0.0004551410675048828
ell 644, elapsed: 0.0003960132598876953
ell 643, elapsed: 0.00044918060302734375
ell 642, elapsed: 0.0003948211669921875
ell 641, elapsed: 0.0004680156707763672
ell 640, elapsed: 0.00039696693420410156
ell 639, elapsed: 0.00044989585876464844
ell 638, elapsed: 0.0003979206085205078
ell 637, elapsed: 0.0004591941833496094
ell 636, elapsed: 0.00040602684020996094
ell 635, elapsed: 0.0004649162292480469
ell 634, elapsed: 0.00039887428283691406
ell 633, elapsed: 0.00045108795166015625
ell 632, elapsed: 0.0004088878631591797
ell 631, elapsed: 0.00045108795166015625
ell 630, elapsed: 0.0003991127014160156
ell 629, elapsed: 0.0004470348358154297
ell 628, elapsed: 0.0004019737243652344
ell 627, elapsed: 0.000453948974609375
ell 626, elapsed: 0.0004019737243652344
ell 625, elapsed: 0.0004558563232421875
ell 624, elapsed: 0.00039696693420410156
ell 623, elapsed: 0.0004839897155761719
ell 622, elapsed: 0.00040411949157714844
ell 621, elapsed: 0.0004639625549316406
ell 620, elapsed: 0.0003979206085205078
ell 619, elapsed: 0.0004589557647705078
ell 618, elapsed: 0.0004038810729980469
ell 617, elapsed: 0.0004620552062988281
ell 616, elapsed: 0.0004031658172607422
ell 615, elapsed: 0.00047898292541503906
ell 614, elapsed: 0.00040602684020996094
ell 613, elapsed: 0.0004680156707763672
ell 612, elapsed: 0.0004010200500488281
ell 611, elapsed: 0.0004608631134033203
ell 610, elapsed: 0.00040602684020996094
ell 609, elapsed: 0.0004520416259765625
ell 608, elapsed: 0.00039696693420410156
ell 607, elapsed: 0.00045299530029296875
ell 606, elapsed: 0.00041985511779785156
ell 605, elapsed: 0.0004639625549316406
ell 604, elapsed: 0.0004038810729980469
ell 603, elapsed: 0.00045490264892578125
ell 602, elapsed: 0.0004050731658935547
ell 601, elapsed: 0.0004630088806152344
ell 600, elapsed: 0.00040912628173828125
ell 599, elapsed: 0.0004589557647705078
ell 598, elapsed: 0.0004010200500488281
ell 597, elapsed: 0.0005140304565429688
ell 596, elapsed: 0.0004057884216308594
ell 595, elapsed: 0.0004589557647705078
ell 594, elapsed: 0.00040984153747558594
ell 593, elapsed: 0.0004570484161376953
ell 592, elapsed: 0.0003991127014160156
ell 591, elapsed: 0.0004570484161376953
ell 590, elapsed: 0.0004019737243652344
ell 589, elapsed: 0.00047397613525390625
ell 588, elapsed: 0.0003991127014160156
ell 587, elapsed: 0.0004699230194091797
ell 586, elapsed: 0.0005698204040527344
ell 585, elapsed: 0.0006990432739257812
ell 584, elapsed: 0.00047898292541503906
ell 583, elapsed: 0.00043082237243652344
ell 582, elapsed: 0.0003809928894042969
ell 581, elapsed: 0.0004329681396484375
ell 580, elapsed: 0.0005140304565429688
ell 579, elapsed: 0.0006330013275146484
ell 578, elapsed: 0.00038909912109375
ell 577, elapsed: 0.0004649162292480469
ell 576, elapsed: 0.0004031658172607422
ell 575, elapsed: 0.0004508495330810547
ell 574, elapsed: 0.0004010200500488281
ell 573, elapsed: 0.00046896934509277344
ell 572, elapsed: 0.0004010200500488281
ell 571, elapsed: 0.00045013427734375
ell 570, elapsed: 0.0004000663757324219
ell 569, elapsed: 0.000453948974609375
ell 568, elapsed: 0.0003991127014160156
ell 567, elapsed: 0.00045299530029296875
ell 566, elapsed: 0.0003991127014160156
ell 565, elapsed: 0.00044608116149902344
ell 564, elapsed: 0.0005850791931152344
ell 563, elapsed: 0.000743865966796875
ell 562, elapsed: 0.0006439685821533203
ell 561, elapsed: 0.0007281303405761719
ell 560, elapsed: 0.0005521774291992188
ell 559, elapsed: 0.0005791187286376953
ell 558, elapsed: 0.0004889965057373047
ell 557, elapsed: 0.00045490264892578125
ell 556, elapsed: 0.00039887428283691406
ell 555, elapsed: 0.0004489421844482422
ell 554, elapsed: 0.00039696693420410156
ell 553, elapsed: 0.000453948974609375
ell 552, elapsed: 0.0004000663757324219
ell 551, elapsed: 0.00045108795166015625
ell 550, elapsed: 0.0004069805145263672
ell 549, elapsed: 0.00045299530029296875
ell 548, elapsed: 0.0004019737243652344
ell 547, elapsed: 0.000453948974609375
ell 546, elapsed: 0.0003972053527832031
ell 545, elapsed: 0.00044798851013183594
ell 544, elapsed: 0.00039887428283691406
ell 543, elapsed: 0.0004589557647705078
ell 542, elapsed: 0.0003991127014160156
ell 541, elapsed: 0.00047087669372558594
ell 540, elapsed: 0.0004000663757324219
ell 539, elapsed: 0.0004520416259765625
ell 538, elapsed: 0.0003960132598876953
ell 537, elapsed: 0.0004520416259765625
ell 536, elapsed: 0.0003979206085205078
ell 535, elapsed: 0.000453948974609375
ell 534, elapsed: 0.0003991127014160156
ell 533, elapsed: 0.00045108795166015625
ell 532, elapsed: 0.0004019737243652344
ell 531, elapsed: 0.00044798851013183594
ell 530, elapsed: 0.0004000663757324219
ell 529, elapsed: 0.00045299530029296875
ell 528, elapsed: 0.0004019737243652344
ell 527, elapsed: 0.0004558563232421875
ell 526, elapsed: 0.0004010200500488281
ell 525, elapsed: 0.00045299530029296875
ell 524, elapsed: 0.0003972053527832031
ell 523, elapsed: 0.0004489421844482422
ell 522, elapsed: 0.00039696693420410156
ell 521, elapsed: 0.00045299530029296875
ell 520, elapsed: 0.0003979206085205078
ell 519, elapsed: 0.0004558563232421875
ell 518, elapsed: 0.0005688667297363281
ell 517, elapsed: 0.0005948543548583984
ell 516, elapsed: 0.0003619194030761719
ell 515, elapsed: 0.0006189346313476562
ell 514, elapsed: 0.0005049705505371094
ell 513, elapsed: 0.00045609474182128906
ell 512, elapsed: 0.00039887428283691406
ell 511, elapsed: 0.00045013427734375
ell 510, elapsed: 0.0004010200500488281
ell 509, elapsed: 0.0004570484161376953
ell 508, elapsed: 0.0005159378051757812
ell 507, elapsed: 0.0005469322204589844
ell 506, elapsed: 0.0003960132598876953
ell 505, elapsed: 0.00045013427734375
ell 504, elapsed: 0.0004069805145263672
ell 503, elapsed: 0.00045418739318847656
ell 502, elapsed: 0.0004019737243652344
ell 501, elapsed: 0.00045013427734375
ell 500, elapsed: 0.0004069805145263672
ell 499, elapsed: 0.0006201267242431641
ell 498, elapsed: 0.000492095947265625
ell 497, elapsed: 0.0004258155822753906
ell 496, elapsed: 0.0003819465637207031
ell 495, elapsed: 0.00045609474182128906
ell 494, elapsed: 0.0004029273986816406
ell 493, elapsed: 0.0004680156707763672
ell 492, elapsed: 0.0005180835723876953
ell 491, elapsed: 0.0006299018859863281
ell 490, elapsed: 0.0004010200500488281
ell 489, elapsed: 0.0004489421844482422
ell 488, elapsed: 0.00039505958557128906
ell 487, elapsed: 0.00044918060302734375
ell 486, elapsed: 0.00039887428283691406
ell 485, elapsed: 0.0004570484161376953
ell 484, elapsed: 0.0004031658172607422
ell 483, elapsed: 0.004292964935302734
ell 482, elapsed: 0.0004298686981201172
ell 481, elapsed: 0.00045800209045410156
ell 480, elapsed: 0.00040078163146972656
ell 479, elapsed: 0.0004520416259765625
ell 478, elapsed: 0.00040078163146972656
ell 477, elapsed: 0.00045299530029296875
ell 476, elapsed: 0.0004000663757324219
ell 475, elapsed: 0.0004642009735107422
ell 474, elapsed: 0.0004029273986816406
ell 473, elapsed: 0.0004520416259765625
ell 472, elapsed: 0.0003981590270996094
ell 471, elapsed: 0.00045299530029296875
ell 470, elapsed: 0.0004010200500488281
ell 469, elapsed: 0.0006380081176757812
ell 468, elapsed: 0.0004699230194091797
ell 467, elapsed: 0.000453948974609375
ell 466, elapsed: 0.0004029273986816406
ell 465, elapsed: 0.0004820823669433594
ell 464, elapsed: 0.0003998279571533203
ell 463, elapsed: 0.0004470348358154297
ell 462, elapsed: 0.0004010200500488281
ell 461, elapsed: 0.0004520416259765625
ell 460, elapsed: 0.0004010200500488281
ell 459, elapsed: 0.00045418739318847656
ell 458, elapsed: 0.00039696693420410156
ell 457, elapsed: 0.000492095947265625
ell 456, elapsed: 0.0004630088806152344
ell 455, elapsed: 0.00042700767517089844
ell 454, elapsed: 0.0003628730773925781
ell 453, elapsed: 0.0004279613494873047
ell 452, elapsed: 0.0005791187286376953
ell 451, elapsed: 0.0006139278411865234
ell 450, elapsed: 0.0004019737243652344
ell 449, elapsed: 0.0005171298980712891
ell 448, elapsed: 0.0004420280456542969
ell 447, elapsed: 0.0004608631134033203
ell 446, elapsed: 0.0003981590270996094
ell 445, elapsed: 0.0006110668182373047
ell 444, elapsed: 0.0005559921264648438
ell 443, elapsed: 0.0004558563232421875
ell 442, elapsed: 0.0004019737243652344
ell 441, elapsed: 0.0005159378051757812
ell 440, elapsed: 0.00043201446533203125
ell 439, elapsed: 0.00046515464782714844
ell 438, elapsed: 0.00040221214294433594
ell 437, elapsed: 0.0005519390106201172
ell 436, elapsed: 0.0005099773406982422
ell 435, elapsed: 0.0004341602325439453
ell 434, elapsed: 0.0005221366882324219
ell 433, elapsed: 0.0006299018859863281
ell 432, elapsed: 0.00040411949157714844
ell 431, elapsed: 0.00045490264892578125
ell 430, elapsed: 0.0003991127014160156
ell 429, elapsed: 0.00045609474182128906
ell 428, elapsed: 0.00039696693420410156
ell 427, elapsed: 0.00045800209045410156
ell 426, elapsed: 0.0004718303680419922
ell 425, elapsed: 0.0007090568542480469
ell 424, elapsed: 0.00036787986755371094
ell 423, elapsed: 0.0005638599395751953
ell 422, elapsed: 0.0005068778991699219
ell 421, elapsed: 0.0004620552062988281
ell 420, elapsed: 0.0003941059112548828
ell 419, elapsed: 0.00045013427734375
ell 418, elapsed: 0.00039386749267578125
ell 417, elapsed: 0.0005400180816650391
ell 416, elapsed: 0.00041604042053222656
ell 415, elapsed: 0.00045299530029296875
ell 414, elapsed: 0.00039696693420410156
ell 413, elapsed: 0.0004611015319824219
ell 412, elapsed: 0.0004029273986816406
ell 411, elapsed: 0.00045180320739746094
ell 410, elapsed: 0.0004010200500488281
ell 409, elapsed: 0.0005040168762207031
ell 408, elapsed: 0.0004458427429199219
ell 407, elapsed: 0.00045800209045410156
ell 406, elapsed: 0.00039386749267578125
ell 405, elapsed: 0.0004520416259765625
ell 404, elapsed: 0.00039696693420410156
ell 403, elapsed: 0.0005609989166259766
ell 402, elapsed: 0.0005300045013427734
ell 401, elapsed: 0.0004968643188476562
ell 400, elapsed: 0.00045299530029296875
ell 399, elapsed: 0.00045490264892578125
ell 398, elapsed: 0.0003979206085205078
ell 397, elapsed: 0.00045609474182128906
ell 396, elapsed: 0.0003979206085205078
ell 395, elapsed: 0.0006320476531982422
ell 394, elapsed: 0.00046706199645996094
ell 393, elapsed: 0.0005071163177490234
ell 392, elapsed: 0.0004458427429199219
ell 391, elapsed: 0.000453948974609375
ell 390, elapsed: 0.0005800724029541016
ell 389, elapsed: 0.0005390644073486328
ell 388, elapsed: 0.00039505958557128906
ell 387, elapsed: 0.0005919933319091797
ell 386, elapsed: 0.0005171298980712891
ell 385, elapsed: 0.0005469322204589844
ell 384, elapsed: 0.00042319297790527344
ell 383, elapsed: 0.00046706199645996094
ell 382, elapsed: 0.0004019737243652344
ell 381, elapsed: 0.00045609474182128906
ell 380, elapsed: 0.0005719661712646484
ell 379, elapsed: 0.0006070137023925781
ell 378, elapsed: 0.00042891502380371094
ell 377, elapsed: 0.0005130767822265625
ell 376, elapsed: 0.00038886070251464844
ell 375, elapsed: 0.0004589557647705078
ell 374, elapsed: 0.000514984130859375
ell 373, elapsed: 0.0005979537963867188
ell 372, elapsed: 0.0004661083221435547
ell 371, elapsed: 0.0006520748138427734
ell 370, elapsed: 0.0004649162292480469
ell 369, elapsed: 0.0006351470947265625
ell 368, elapsed: 0.0004611015319824219
ell 367, elapsed: 0.00045490264892578125
ell 366, elapsed: 0.0004010200500488281
ell 365, elapsed: 0.0005619525909423828
ell 364, elapsed: 0.0005369186401367188
ell 363, elapsed: 0.0005099773406982422
ell 362, elapsed: 0.0005619525909423828
ell 361, elapsed: 0.0005919933319091797
ell 360, elapsed: 0.0003979206085205078
ell 359, elapsed: 0.0004661083221435547
ell 358, elapsed: 0.0004000663757324219
ell 357, elapsed: 0.00046706199645996094
ell 356, elapsed: 0.00040793418884277344
ell 355, elapsed: 0.0004940032958984375
ell 354, elapsed: 0.0004031658172607422
ell 353, elapsed: 0.000637054443359375
ell 352, elapsed: 0.00048804283142089844
ell 351, elapsed: 0.00045490264892578125
ell 350, elapsed: 0.0005090236663818359
ell 349, elapsed: 0.0005779266357421875
ell 348, elapsed: 0.0004119873046875
ell 347, elapsed: 0.0004677772521972656
ell 346, elapsed: 0.0003941059112548828
ell 345, elapsed: 0.0006239414215087891
ell 344, elapsed: 0.0004680156707763672
ell 343, elapsed: 0.00047087669372558594
ell 342, elapsed: 0.0003981590270996094
ell 341, elapsed: 0.00047397613525390625
ell 340, elapsed: 0.0004398822784423828
ell 339, elapsed: 0.00045609474182128906
ell 338, elapsed: 0.0003829002380371094
ell 337, elapsed: 0.0005910396575927734
ell 336, elapsed: 0.00048804283142089844
ell 335, elapsed: 0.0004410743713378906
ell 334, elapsed: 0.0003809928894042969
ell 333, elapsed: 0.0004470348358154297
ell 332, elapsed: 0.0004398822784423828
ell 331, elapsed: 0.0007131099700927734
ell 330, elapsed: 0.0006170272827148438
ell 329, elapsed: 0.0007081031799316406
ell 328, elapsed: 0.0006289482116699219
ell 327, elapsed: 0.0007100105285644531
ell 326, elapsed: 0.0007100105285644531
ell 325, elapsed: 0.0007030963897705078
ell 324, elapsed: 0.00061798095703125
ell 323, elapsed: 0.0006949901580810547
ell 322, elapsed: 0.0005910396575927734
ell 321, elapsed: 0.0007162094116210938
ell 320, elapsed: 0.0026628971099853516
ell 319, elapsed: 0.0005021095275878906
ell 318, elapsed: 0.000408172607421875
ell 317, elapsed: 0.00044989585876464844
ell 316, elapsed: 0.0003879070281982422
ell 315, elapsed: 0.00045180320739746094
ell 314, elapsed: 0.00038313865661621094
ell 313, elapsed: 0.000453948974609375
ell 312, elapsed: 0.00039005279541015625
ell 311, elapsed: 0.0004589557647705078
ell 310, elapsed: 0.0009701251983642578
ell 309, elapsed: 0.00046181678771972656
ell 308, elapsed: 0.0005447864532470703
ell 307, elapsed: 0.0006120204925537109
ell 306, elapsed: 0.0003972053527832031
ell 305, elapsed: 0.0005691051483154297
ell 304, elapsed: 0.0009250640869140625
ell 303, elapsed: 0.0006678104400634766
ell 302, elapsed: 0.0004730224609375
ell 301, elapsed: 0.0005118846893310547
ell 300, elapsed: 0.0005278587341308594
ell 299, elapsed: 0.00045609474182128906
ell 298, elapsed: 0.0003771781921386719
ell 297, elapsed: 0.0009100437164306641
ell 296, elapsed: 0.0004000663757324219
ell 295, elapsed: 0.0004470348358154297
ell 294, elapsed: 0.0003829002380371094
ell 293, elapsed: 0.0004420280456542969
ell 292, elapsed: 0.0003859996795654297
ell 291, elapsed: 0.00043702125549316406
ell 290, elapsed: 0.0004951953887939453
ell 289, elapsed: 0.0006871223449707031
ell 288, elapsed: 0.0006709098815917969
ell 287, elapsed: 0.0007739067077636719
ell 286, elapsed: 0.0006759166717529297
ell 285, elapsed: 0.0007729530334472656
ell 284, elapsed: 0.000701904296875
ell 283, elapsed: 0.0007770061492919922
ell 282, elapsed: 0.0006940364837646484
ell 281, elapsed: 0.0007760524749755859
ell 280, elapsed: 0.0006830692291259766
ell 279, elapsed: 0.0007901191711425781
ell 278, elapsed: 0.0006830692291259766
ell 277, elapsed: 0.0007829666137695312
ell 276, elapsed: 0.0006811618804931641
ell 275, elapsed: 0.0007779598236083984
ell 274, elapsed: 0.0006949901580810547
ell 273, elapsed: 0.0007719993591308594
ell 272, elapsed: 0.0006799697875976562
ell 271, elapsed: 0.0007779598236083984
ell 270, elapsed: 0.0006809234619140625
ell 269, elapsed: 0.0008089542388916016
ell 268, elapsed: 0.0006809234619140625
ell 267, elapsed: 0.0007698535919189453
ell 266, elapsed: 0.0006780624389648438
ell 265, elapsed: 0.0007729530334472656
ell 264, elapsed: 0.0007369518280029297
ell 263, elapsed: 0.0007779598236083984
ell 262, elapsed: 0.0006849765777587891
ell 261, elapsed: 0.0007801055908203125
ell 260, elapsed: 0.0006799697875976562
ell 259, elapsed: 0.0008058547973632812
ell 258, elapsed: 0.0006818771362304688
ell 257, elapsed: 0.0007638931274414062
ell 256, elapsed: 0.000682830810546875
ell 255, elapsed: 0.0007719993591308594
ell 254, elapsed: 0.000782012939453125
ell 253, elapsed: 0.0007810592651367188
ell 252, elapsed: 0.0006799697875976562
ell 251, elapsed: 0.0007581710815429688
ell 250, elapsed: 0.0006299018859863281
ell 249, elapsed: 0.0007359981536865234
ell 248, elapsed: 0.0006468296051025391
ell 247, elapsed: 0.0007371902465820312
ell 246, elapsed: 0.0006701946258544922
ell 245, elapsed: 0.0007519721984863281
ell 244, elapsed: 0.0005900859832763672
ell 243, elapsed: 0.0006771087646484375
ell 242, elapsed: 0.0006561279296875
ell 241, elapsed: 0.0007421970367431641
ell 240, elapsed: 0.0006299018859863281
ell 239, elapsed: 0.0005979537963867188
ell 238, elapsed: 0.0006198883056640625
ell 237, elapsed: 0.0007359981536865234
ell 236, elapsed: 0.0006439685821533203
ell 235, elapsed: 0.0007088184356689453
ell 234, elapsed: 0.0005259513854980469
ell 233, elapsed: 0.0006239414215087891
ell 232, elapsed: 0.0005609989166259766
ell 231, elapsed: 0.0005791187286376953
ell 230, elapsed: 0.0006251335144042969
ell 229, elapsed: 0.0006330013275146484
ell 228, elapsed: 0.0003879070281982422
ell 227, elapsed: 0.0004520416259765625
ell 226, elapsed: 0.0005650520324707031
ell 225, elapsed: 0.0004711151123046875
ell 224, elapsed: 0.00044989585876464844
ell 223, elapsed: 0.0004968643188476562
ell 222, elapsed: 0.0004458427429199219
ell 221, elapsed: 0.000514984130859375
ell 220, elapsed: 0.00032591819763183594
ell 219, elapsed: 0.0003719329833984375
ell 218, elapsed: 0.00032901763916015625
ell 217, elapsed: 0.0003960132598876953
ell 216, elapsed: 0.00033783912658691406
ell 215, elapsed: 0.00039005279541015625
ell 214, elapsed: 0.0003190040588378906
ell 213, elapsed: 0.000370025634765625
ell 212, elapsed: 0.0003209114074707031
ell 211, elapsed: 0.00036787986755371094
ell 210, elapsed: 0.0004489421844482422
ell 209, elapsed: 0.0004961490631103516
ell 208, elapsed: 0.0003209114074707031
ell 207, elapsed: 0.00038695335388183594
ell 206, elapsed: 0.00032401084899902344
ell 205, elapsed: 0.0003781318664550781
ell 204, elapsed: 0.00032210350036621094
ell 203, elapsed: 0.00036978721618652344
ell 202, elapsed: 0.0003199577331542969
ell 201, elapsed: 0.00037097930908203125
ell 200, elapsed: 0.00032806396484375
ell 199, elapsed: 0.0003800392150878906
ell 198, elapsed: 0.000308990478515625
ell 197, elapsed: 0.00035500526428222656
ell 196, elapsed: 0.0003590583801269531
ell 195, elapsed: 0.0003619194030761719
ell 194, elapsed: 0.0003039836883544922
ell 193, elapsed: 0.0006670951843261719
ell 192, elapsed: 0.0003948211669921875
ell 191, elapsed: 0.00033593177795410156
ell 190, elapsed: 0.00028204917907714844
ell 189, elapsed: 0.00033402442932128906
ell 188, elapsed: 0.0002810955047607422
ell 187, elapsed: 0.0003228187561035156
ell 186, elapsed: 0.0004150867462158203
ell 185, elapsed: 0.0005600452423095703
ell 184, elapsed: 0.0006101131439208984
ell 183, elapsed: 0.0006937980651855469
ell 182, elapsed: 0.00047087669372558594
ell 181, elapsed: 0.0005908012390136719
ell 180, elapsed: 0.00046896934509277344
ell 179, elapsed: 0.0007250308990478516
ell 178, elapsed: 0.0006139278411865234
ell 177, elapsed: 0.0007050037384033203
ell 176, elapsed: 0.0004298686981201172
ell 175, elapsed: 0.0003409385681152344
ell 174, elapsed: 0.0002830028533935547
ell 173, elapsed: 0.00032782554626464844
ell 172, elapsed: 0.0002810955047607422
ell 171, elapsed: 0.0004730224609375
ell 170, elapsed: 0.0005159378051757812
ell 169, elapsed: 0.0007197856903076172
ell 168, elapsed: 0.0004661083221435547
ell 167, elapsed: 0.0003609657287597656
ell 166, elapsed: 0.0002970695495605469
ell 165, elapsed: 0.0003459453582763672
ell 164, elapsed: 0.00029587745666503906
ell 163, elapsed: 0.0003478527069091797
ell 162, elapsed: 0.00030493736267089844
ell 161, elapsed: 0.00035691261291503906
ell 160, elapsed: 0.0003020763397216797
ell 159, elapsed: 0.00035691261291503906
ell 158, elapsed: 0.0002951622009277344
ell 157, elapsed: 0.0003459453582763672
ell 156, elapsed: 0.0002949237823486328
ell 155, elapsed: 0.0003459453582763672
ell 154, elapsed: 0.00030517578125
ell 153, elapsed: 0.0003600120544433594
ell 152, elapsed: 0.0002949237823486328
ell 151, elapsed: 0.0004000663757324219
ell 150, elapsed: 0.0002949237823486328
ell 149, elapsed: 0.0003459453582763672
ell 148, elapsed: 0.0002918243408203125
ell 147, elapsed: 0.00034117698669433594
ell 146, elapsed: 0.0003139972686767578
ell 145, elapsed: 0.0003459453582763672
ell 144, elapsed: 0.0002961158752441406
ell 143, elapsed: 0.00034999847412109375
ell 142, elapsed: 0.00030112266540527344
ell 141, elapsed: 0.00034499168395996094
ell 140, elapsed: 0.00033402442932128906
ell 139, elapsed: 0.0004470348358154297
ell 138, elapsed: 0.00037407875061035156
ell 137, elapsed: 0.00043010711669921875
ell 136, elapsed: 0.00028896331787109375
ell 135, elapsed: 0.0003330707550048828
ell 134, elapsed: 0.00028705596923828125
ell 133, elapsed: 0.00033402442932128906
ell 132, elapsed: 0.0002830028533935547
ell 131, elapsed: 0.00033402442932128906
ell 130, elapsed: 0.00028514862060546875
ell 129, elapsed: 0.0004801750183105469
ell 128, elapsed: 0.0003230571746826172
ell 127, elapsed: 0.0003440380096435547
ell 126, elapsed: 0.00030112266540527344
ell 125, elapsed: 0.0003528594970703125
ell 124, elapsed: 0.0002999305725097656
ell 123, elapsed: 0.00034880638122558594
ell 122, elapsed: 0.00035309791564941406
ell 121, elapsed: 0.0004210472106933594
ell 120, elapsed: 0.0004620552062988281
ell 119, elapsed: 0.0006959438323974609
ell 118, elapsed: 0.0003991127014160156
ell 117, elapsed: 0.0005869865417480469
ell 116, elapsed: 0.0005400180816650391
ell 115, elapsed: 0.0005509853363037109
ell 114, elapsed: 0.0005400180816650391
ell 113, elapsed: 0.0006079673767089844
ell 112, elapsed: 0.0005881786346435547
ell 111, elapsed: 0.0007109642028808594
ell 110, elapsed: 0.0005140304565429688
ell 109, elapsed: 0.0005128383636474609
ell 108, elapsed: 0.0004229545593261719
ell 107, elapsed: 0.0004730224609375
ell 106, elapsed: 0.0002899169921875
ell 105, elapsed: 0.0003619194030761719
ell 104, elapsed: 0.0002930164337158203
ell 103, elapsed: 0.0003409385681152344
ell 102, elapsed: 0.0002880096435546875
ell 101, elapsed: 0.0003418922424316406
ell 100, elapsed: 0.00029587745666503906
ell 99, elapsed: 0.0003459453582763672
ell 98, elapsed: 0.0002980232238769531
ell 97, elapsed: 0.0003409385681152344
ell 96, elapsed: 0.0002949237823486328
ell 95, elapsed: 0.0003371238708496094
ell 94, elapsed: 0.0003161430358886719
ell 93, elapsed: 0.0003440380096435547
ell 92, elapsed: 0.00029587745666503906
ell 91, elapsed: 0.0003428459167480469
ell 90, elapsed: 0.0002911090850830078
ell 89, elapsed: 0.0003418922424316406
ell 88, elapsed: 0.00028896331787109375
ell 87, elapsed: 0.0003409385681152344
ell 86, elapsed: 0.0002961158752441406
ell 85, elapsed: 0.0003421306610107422
ell 84, elapsed: 0.0003809928894042969
ell 83, elapsed: 0.00044083595275878906
ell 82, elapsed: 0.00030112266540527344
ell 81, elapsed: 0.0003418922424316406
ell 80, elapsed: 0.00029087066650390625
ell 79, elapsed: 0.00033402442932128906
ell 78, elapsed: 0.0002849102020263672
ell 77, elapsed: 0.0003399848937988281
ell 76, elapsed: 0.0002930164337158203
ell 75, elapsed: 0.00034999847412109375
ell 74, elapsed: 0.00030803680419921875
ell 73, elapsed: 0.0004329681396484375
ell 72, elapsed: 0.0003330707550048828
ell 71, elapsed: 0.0003428459167480469
ell 70, elapsed: 0.0002880096435546875
ell 69, elapsed: 0.0003349781036376953
ell 68, elapsed: 0.00029087066650390625
ell 67, elapsed: 0.00034308433532714844
ell 66, elapsed: 0.0002880096435546875
ell 65, elapsed: 0.0003371238708496094
ell 64, elapsed: 0.0002892017364501953
ell 63, elapsed: 0.0003361701965332031
ell 62, elapsed: 0.0002999305725097656
ell 61, elapsed: 0.0004398822784423828
ell 60, elapsed: 0.0003409385681152344
ell 59, elapsed: 0.00035309791564941406
ell 58, elapsed: 0.0002951622009277344
ell 57, elapsed: 0.00034499168395996094
ell 56, elapsed: 0.0002961158752441406
ell 55, elapsed: 0.0003459453582763672
ell 54, elapsed: 0.0003001689910888672
ell 53, elapsed: 0.0003440380096435547
ell 52, elapsed: 0.0002970695495605469
ell 51, elapsed: 0.0003440380096435547
ell 50, elapsed: 0.00030994415283203125
ell 49, elapsed: 0.00042700767517089844
ell 48, elapsed: 0.0006530284881591797
ell 47, elapsed: 0.0007050037384033203
ell 46, elapsed: 0.0003540515899658203
ell 45, elapsed: 0.0003440380096435547
ell 44, elapsed: 0.0002989768981933594
ell 43, elapsed: 0.00034809112548828125
ell 42, elapsed: 0.00029206275939941406
ell 41, elapsed: 0.00035190582275390625
ell 40, elapsed: 0.00032401084899902344
ell 39, elapsed: 0.00036907196044921875
ell 38, elapsed: 0.0003998279571533203
ell 37, elapsed: 0.0005331039428710938
ell 36, elapsed: 0.0006320476531982422
ell 35, elapsed: 0.0004620552062988281
ell 34, elapsed: 0.00028395652770996094
ell 33, elapsed: 0.0003330707550048828
ell 32, elapsed: 0.0002868175506591797
ell 31, elapsed: 0.0004608631134033203
ell 30, elapsed: 0.00029087066650390625
ell 29, elapsed: 0.0003368854522705078
ell 28, elapsed: 0.0002951622009277344
ell 27, elapsed: 0.0003399848937988281
ell 26, elapsed: 0.0003108978271484375
ell 25, elapsed: 0.0007281303405761719
ell 24, elapsed: 0.0006349086761474609
ell 23, elapsed: 0.0005612373352050781
ell 22, elapsed: 0.0005109310150146484
ell 21, elapsed: 0.000637054443359375
ell 20, elapsed: 0.0005350112915039062
ell 19, elapsed: 0.0006060600280761719
ell 18, elapsed: 0.0005409717559814453
ell 17, elapsed: 0.0005950927734375
ell 16, elapsed: 0.004536867141723633
ell 15, elapsed: 0.0006668567657470703
ell 14, elapsed: 0.0004799365997314453
ell 13, elapsed: 0.00045680999755859375
ell 12, elapsed: 0.0003979206085205078
ell 11, elapsed: 0.0005538463592529297
ell 10, elapsed: 0.0005650520324707031
ell 9, elapsed: 0.0008440017700195312
ell 8, elapsed: 0.0004241466522216797
ell 7, elapsed: 0.0004429817199707031
ell 6, elapsed: 0.00038504600524902344
ell 5, elapsed: 0.00043892860412597656
ell 4, elapsed: 0.0003790855407714844
ell 3, elapsed: 0.0004360675811767578
ell 2, elapsed: 0.0003819465637207031
ell 1, elapsed: 0.0005571842193603516
ell 0, elapsed: 0.00039005279541015625
  0.702666 seconds (41.19 k allocations: 2.939 MiB)
elapsed: 0.0005340576171875
step:          0.082591 sec (0 allocations: 0 byte, 0.0% gc time)
swapping:      0.000853 sec (0 allocations: 0 byte, 0.0% gc time)
calc_Mellell!: 0.011483 sec (0 allocations: 0 byte, 0.0% gc time)
  t0 :  0.003191 sec (0 allocations: 0 byte, 0.0% gc time)
  tm2 : 0.113148 sec (0 allocations: 0 byte, 0.0% gc time)
  tm2s: 0.002273 sec (0 allocations: 0 byte, 0.0% gc time)
  tm4 : 0.297396 sec (0 allocations: 0 byte, 0.0% gc time)
  tp2 : 0.0 sec (0 allocations: 0 byte, 0.0% gc time)
  tp2s: 0.0 sec (0 allocations: 0 byte, 0.0% gc time)
  tp4 : 0.0 sec (0 allocations: 0 byte, 0.0% gc time)
calc_wtdll!:   0.436424 sec (9.87 k allocations: 1.043 MB, 0.0% gc time)
calc_wljj!:    0.048217 sec (689 allocations: 10.766 KB, 0.0% gc time)
mult_prefac!:  0.0 sec (0 allocations: 0 byte, 0.0% gc time)
convert:       0.0 sec (0 allocations: 0 byte, 0.0% gc time)
write:         0.04626 sec (0 allocations: 0 byte, 0.0% gc time)
test_rand_2f1: 0.0 sec (0 allocations: 0 byte, 0.0% gc time)
Closing outfile out/Ml21-cache.bin...   0.000041 seconds
  0.000473 seconds (52 allocations: 28.297 KiB)
make_phi():   0.002073 seconds (8.33 k allocations: 250.453 KiB)
  0.704313 seconds (730.97 k allocations: 63.185 MiB, 16.38% gc time)
tskip:       0.00098 sec (0 allocations: 0 byte, 0.0% gc time)
tread:       0.032453 sec (19 allocations: 10.688 KB, 0.0% gc time)
tmultphi:    0.013478 sec (0 allocations: 0 byte, 0.0% gc time)
tbrfft:      0.541833 sec (593.866 k allocations: 59.996 MB, 21.29% gc time)
tmultprefac: 0.046506 sec (0 allocations: 0 byte, 0.0% gc time)
toutfunc:    0.066203 sec (129.905 k allocations: 2.421 MB, 0.0% gc time)
Testing R=1.0 ... passed
Calculating fmax: 
  dlrec    = 4
  dlrecRg1 = -4
  q=1.1, R=0.9:	  0.470205 seconds (116.47 k allocations: 15.614 MiB)

  0.470440 seconds (116.50 k allocations: 15.647 MiB)
ℓ = 1202
Δℓ = 4
ΔℓRg1 = -4
N = 1600
q = 1.1
kmin = 1.0e-5
kmax = 100000.00000000004
χ0 = 0.023029999999999995
RR = RR.tsv
ℓmax = ℓmax.bin
f21 = f21.bin
kmin = 1.0e-5
kmax = 100000.0
dlrec    = 4
dlrecRg1 = -4
Output size: 5741568 bytes = 0.005347251892089844 GiB
Output size: 51264 bytes = 4.774332046508789e-5 GiB
Reading 'out/F21EllCache'...   0.001046 seconds (267 allocations: 84.656 KiB)
ellmax: 1202
lmaxcache: 1202
fell[:,1,1] = Complex{Float64}[1.3482014726274674e-57 - 3.302141236118086e-73im, 1.357860004724329e-57 - 3.3257978169518355e-73im]
ell 1202, elapsed: 2.002716064453125e-5
ell 1201, elapsed: 0.00042819976806640625
ell 1200, elapsed: 0.0004458427429199219
ell 1199, elapsed: 0.0005910396575927734
ell 1198, elapsed: 0.00040984153747558594
ell 1002, elapsed: 0.01271510124206543
ell 1001, elapsed: 0.0003809928894042969
ell 1000, elapsed: 0.0003612041473388672
ell 999, elapsed: 0.0003979206085205078
ell 998, elapsed: 0.0005540847778320312
ell 902, elapsed: 0.0050470829010009766
ell 901, elapsed: 0.0005209445953369141
ell 900, elapsed: 0.0005581378936767578
ell 899, elapsed: 0.0005619525909423828
ell 898, elapsed: 0.0005409717559814453
ell 802, elapsed: 0.005257129669189453
ell 801, elapsed: 0.00038886070251464844
ell 800, elapsed: 0.00046896934509277344
ell 799, elapsed: 0.0004968643188476562
ell 798, elapsed: 0.0004911422729492188
ell 702, elapsed: 0.0050830841064453125
ell 701, elapsed: 0.0003800392150878906
ell 700, elapsed: 0.0005030632019042969
ell 699, elapsed: 0.0005028247833251953
ell 698, elapsed: 0.0003509521484375
ell 602, elapsed: 0.005250215530395508
ell 601, elapsed: 0.00038313865661621094
ell 600, elapsed: 0.0003619194030761719
ell 599, elapsed: 0.00043201446533203125
ell 598, elapsed: 0.0005578994750976562
ell 502, elapsed: 0.004987001419067383
ell 501, elapsed: 0.0003829002380371094
ell 500, elapsed: 0.0003581047058105469
ell 499, elapsed: 0.0003521442413330078
ell 498, elapsed: 0.0003559589385986328
ell 402, elapsed: 0.005515098571777344
ell 401, elapsed: 0.00037288665771484375
ell 400, elapsed: 0.0004780292510986328
ell 399, elapsed: 0.0005590915679931641
ell 398, elapsed: 0.0005581378936767578
ell 302, elapsed: 0.005299091339111328
ell 301, elapsed: 0.00039696693420410156
ell 300, elapsed: 0.0003559589385986328
ell 299, elapsed: 0.0003540515899658203
ell 298, elapsed: 0.00035500526428222656
ell 202, elapsed: 0.005261898040771484
ell 201, elapsed: 0.0004398822784423828
ell 200, elapsed: 0.0005578994750976562
ell 199, elapsed: 0.0004949569702148438
ell 198, elapsed: 0.0005118846893310547
ell 152, elapsed: 0.002791881561279297
ell 151, elapsed: 0.0003750324249267578
ell 150, elapsed: 0.0004680156707763672
ell 149, elapsed: 0.0005538463592529297
ell 148, elapsed: 0.0005571842193603516
ell 127, elapsed: 0.0016319751739501953
ell 126, elapsed: 0.0005240440368652344
ell 125, elapsed: 0.0005228519439697266
ell 124, elapsed: 0.0003612041473388672
ell 123, elapsed: 0.0003559589385986328
ell 114, elapsed: 0.0008220672607421875
ell 113, elapsed: 0.00035691261291503906
ell 112, elapsed: 0.00035500526428222656
ell 111, elapsed: 0.0003578662872314453
ell 110, elapsed: 0.0003609657287597656
ell 102, elapsed: 0.0008640289306640625
ell 101, elapsed: 0.00035881996154785156
ell 100, elapsed: 0.0003600120544433594
ell 99, elapsed: 0.0003609657287597656
ell 98, elapsed: 0.0003628730773925781
ell 97, elapsed: 0.0004048347473144531
ell 96, elapsed: 0.0004589557647705078
ell 95, elapsed: 0.0005240440368652344
ell 94, elapsed: 0.0006299018859863281
ell 93, elapsed: 0.0003991127014160156
ell 92, elapsed: 0.00044798851013183594
ell 91, elapsed: 0.0004010200500488281
ell 90, elapsed: 0.0004467964172363281
ell 89, elapsed: 0.0005660057067871094
ell 88, elapsed: 0.0005221366882324219
ell 87, elapsed: 0.00039887428283691406
ell 86, elapsed: 0.0004639625549316406
ell 85, elapsed: 0.0003979206085205078
ell 84, elapsed: 0.00044989585876464844
ell 83, elapsed: 0.000392913818359375
ell 82, elapsed: 0.0005991458892822266
ell 81, elapsed: 0.0005021095275878906
ell 80, elapsed: 0.00045108795166015625
ell 79, elapsed: 0.0004010200500488281
ell 78, elapsed: 0.0004680156707763672
ell 77, elapsed: 0.0003991127014160156
ell 76, elapsed: 0.00044798851013183594
ell 75, elapsed: 0.0005779266357421875
ell 74, elapsed: 0.0005271434783935547
ell 73, elapsed: 0.0003991127014160156
ell 72, elapsed: 0.00045108795166015625
ell 71, elapsed: 0.00039696693420410156
ell 70, elapsed: 0.0004601478576660156
ell 69, elapsed: 0.0003981590270996094
ell 68, elapsed: 0.0004558563232421875
ell 67, elapsed: 0.00038886070251464844
ell 66, elapsed: 0.0006029605865478516
ell 65, elapsed: 0.0005660057067871094
ell 64, elapsed: 0.0005471706390380859
ell 63, elapsed: 0.00047206878662109375
ell 62, elapsed: 0.0006182193756103516
ell 61, elapsed: 0.0003998279571533203
ell 60, elapsed: 0.00045013427734375
ell 59, elapsed: 0.0003972053527832031
ell 58, elapsed: 0.00045013427734375
ell 57, elapsed: 0.0003960132598876953
ell 56, elapsed: 0.00044989585876464844
ell 55, elapsed: 0.00039887428283691406
ell 54, elapsed: 0.00046896934509277344
ell 53, elapsed: 0.0004000663757324219
ell 52, elapsed: 0.00045609474182128906
ell 51, elapsed: 0.0003979206085205078
ell 50, elapsed: 0.0006158351898193359
ell 49, elapsed: 0.0005009174346923828
ell 48, elapsed: 0.0004589557647705078
ell 47, elapsed: 0.0004019737243652344
ell 46, elapsed: 0.0004949569702148438
ell 45, elapsed: 0.0004010200500488281
ell 44, elapsed: 0.00045108795166015625
ell 43, elapsed: 0.0003981590270996094
ell 42, elapsed: 0.00045609474182128906
ell 41, elapsed: 0.0004780292510986328
ell 40, elapsed: 0.0005841255187988281
ell 39, elapsed: 0.0003981590270996094
ell 38, elapsed: 0.00046706199645996094
ell 37, elapsed: 0.0004010200500488281
ell 36, elapsed: 0.00045299530029296875
ell 35, elapsed: 0.0003979206085205078
ell 34, elapsed: 0.00045299530029296875
ell 33, elapsed: 0.00039505958557128906
ell 32, elapsed: 0.0004329681396484375
ell 31, elapsed: 0.0003750324249267578
ell 30, elapsed: 0.000537872314453125
ell 29, elapsed: 0.0006201267242431641
ell 28, elapsed: 0.0006651878356933594
ell 27, elapsed: 0.0006082057952880859
ell 26, elapsed: 0.0006840229034423828
ell 25, elapsed: 0.0005199909210205078
ell 24, elapsed: 0.0005831718444824219
ell 23, elapsed: 0.0006289482116699219
ell 22, elapsed: 0.0006921291351318359
ell 21, elapsed: 0.0006098747253417969
ell 20, elapsed: 0.0005769729614257812
ell 19, elapsed: 0.0004038810729980469
ell 18, elapsed: 0.0004611015319824219
ell 17, elapsed: 0.00040411949157714844
ell 16, elapsed: 0.0004718303680419922
ell 15, elapsed: 0.00039887428283691406
ell 14, elapsed: 0.00044918060302734375
ell 13, elapsed: 0.0004858970642089844
ell 12, elapsed: 0.0005779266357421875
ell 11, elapsed: 0.00039887428283691406
ell 10, elapsed: 0.0004520416259765625
ell 9, elapsed: 0.0004010200500488281
ell 8, elapsed: 0.00046896934509277344
ell 7, elapsed: 0.00039005279541015625
ell 6, elapsed: 0.00042510032653808594
ell 5, elapsed: 0.00046896934509277344
ell 4, elapsed: 0.0006079673767089844
ell 3, elapsed: 0.0004010200500488281
ell 2, elapsed: 0.0004589557647705078
ell 1, elapsed: 0.0004010200500488281
ell 0, elapsed: 0.0004889965057373047
  0.138201 seconds (10.83 k allocations: 697.938 KiB)
elapsed: 0.0004980564117431641
step:          0.061135 sec (0 allocations: 0 byte, 0.0% gc time)
swapping:      0.000576 sec (0 allocations: 0 byte, 0.0% gc time)
calc_Mellell!: 0.001454 sec (0 allocations: 0 byte, 0.0% gc time)
  t0 :  0.000473 sec (0 allocations: 0 byte, 0.0% gc time)
  tm2 : 0.014407 sec (0 allocations: 0 byte, 0.0% gc time)
  tm2s: 0.000351 sec (0 allocations: 0 byte, 0.0% gc time)
  tm4 : 0.039003 sec (0 allocations: 0 byte, 0.0% gc time)
  tp2 : 0.0 sec (0 allocations: 0 byte, 0.0% gc time)
  tp2s: 0.0 sec (0 allocations: 0 byte, 0.0% gc time)
  tp4 : 0.0 sec (0 allocations: 0 byte, 0.0% gc time)
calc_wtdll!:   0.054814 sec (1.344 k allocations: 147.0 KB, 0.0% gc time)
calc_wljj!:    0.004293 sec (6 allocations: 96 byte, 0.0% gc time)
mult_prefac!:  0.0 sec (0 allocations: 0 byte, 0.0% gc time)
convert:       0.0 sec (0 allocations: 0 byte, 0.0% gc time)
write:         0.003854 sec (0 allocations: 0 byte, 0.0% gc time)
test_rand_2f1: 0.0 sec (0 allocations: 0 byte, 0.0% gc time)
Closing outfile out/Ml21-cache.bin...   0.000057 seconds
  0.000664 seconds (52 allocations: 28.297 KiB)
make_phi():   0.003216 seconds (8.33 k allocations: 250.516 KiB)
  0.048422 seconds (66.37 k allocations: 5.873 MiB)
tskip:       3.0e-5 sec (0 allocations: 0 byte, 0.0% gc time)
tread:       0.003225 sec (19 allocations: 2.172 KB, 0.0% gc time)
tmultphi:    0.001283 sec (0 allocations: 0 byte, 0.0% gc time)
tbrfft:      0.033846 sec (55.168 k allocations: 5.6 MB, 0.0% gc time)
tmultprefac: 0.003905 sec (0 allocations: 0 byte, 0.0% gc time)
toutfunc:    0.006044 sec (10.528 k allocations: 206.5 KB, 0.0% gc time)
Testing R=0.9 ... passed
Calculating fmax: 
  dlrec    = 4
  dlrecRg1 = -4
  q=1.1, R=0.8:	  0.379793 seconds (113.61 k allocations: 15.166 MiB)

  0.380073 seconds (113.65 k allocations: 15.200 MiB)
ℓ = 1202
Δℓ = 4
ΔℓRg1 = -4
N = 1600
q = 1.1
kmin = 1.0e-5
kmax = 100000.00000000004
χ0 = 0.023029999999999995
RR = RR.tsv
ℓmax = ℓmax.bin
f21 = f21.bin
kmin = 1.0e-5
kmax = 100000.0
dlrec    = 4
dlrecRg1 = -4
Output size: 5741568 bytes = 0.005347251892089844 GiB
Output size: 51264 bytes = 4.774332046508789e-5 GiB
Reading 'out/F21EllCache'...   0.000979 seconds (267 allocations: 84.656 KiB)
ellmax: 1202
lmaxcache: 1202
fell[:,1,1] = Complex{Float64}[7.519068145690986e-120 - 1.8416405474382574e-135im, 7.541664537386155e-120 - 1.847175067190611e-135im]
ell 1202, elapsed: 2.09808349609375e-5
ell 1201, elapsed: 0.0005559921264648438
ell 1200, elapsed: 0.000518798828125
ell 1199, elapsed: 0.0005040168762207031
ell 1198, elapsed: 0.0005309581756591797
ell 1002, elapsed: 0.010421991348266602
ell 1001, elapsed: 0.0003650188446044922
ell 1000, elapsed: 0.00035500526428222656
ell 999, elapsed: 0.00046181678771972656
ell 998, elapsed: 0.0005669593811035156
ell 902, elapsed: 0.005208015441894531
ell 901, elapsed: 0.0003781318664550781
ell 900, elapsed: 0.0005638599395751953
ell 899, elapsed: 0.00045680999755859375
ell 898, elapsed: 0.0004949569702148438
ell 802, elapsed: 0.005672931671142578
ell 801, elapsed: 0.0006129741668701172
ell 800, elapsed: 0.0006279945373535156
ell 799, elapsed: 0.0005991458892822266
ell 798, elapsed: 0.0005710124969482422
ell 702, elapsed: 0.00514984130859375
ell 701, elapsed: 0.00047516822814941406
ell 700, elapsed: 0.0006442070007324219
ell 699, elapsed: 0.0005750656127929688
ell 698, elapsed: 0.0004520416259765625
ell 602, elapsed: 0.005714893341064453
ell 601, elapsed: 0.0005459785461425781
ell 600, elapsed: 0.0005309581756591797
ell 599, elapsed: 0.00043392181396484375
ell 598, elapsed: 0.014258861541748047
ell 502, elapsed: 0.004987001419067383
ell 501, elapsed: 0.0003859996795654297
ell 500, elapsed: 0.0003590583801269531
ell 499, elapsed: 0.0003669261932373047
ell 498, elapsed: 0.00041413307189941406
ell 402, elapsed: 0.005340099334716797
ell 401, elapsed: 0.009021997451782227
ell 400, elapsed: 0.00055694580078125
ell 399, elapsed: 0.0005698204040527344
ell 398, elapsed: 0.0005540847778320312
ell 302, elapsed: 0.0050830841064453125
ell 301, elapsed: 0.0003879070281982422
ell 300, elapsed: 0.00047898292541503906
ell 299, elapsed: 0.00055694580078125
ell 298, elapsed: 0.0005578994750976562
ell 202, elapsed: 0.005129098892211914
ell 201, elapsed: 0.0005469322204589844
ell 200, elapsed: 0.0005578994750976562
ell 199, elapsed: 0.0005128383636474609
ell 198, elapsed: 0.0005559921264648438
ell 152, elapsed: 0.003184080123901367
ell 151, elapsed: 0.0005450248718261719
ell 150, elapsed: 0.0005660057067871094
ell 149, elapsed: 0.00055694580078125
ell 148, elapsed: 0.0005679130554199219
ell 127, elapsed: 0.0018820762634277344
ell 126, elapsed: 0.0005300045013427734
ell 125, elapsed: 0.0005521774291992188
ell 124, elapsed: 0.00055694580078125
ell 123, elapsed: 0.0005400180816650391
ell 114, elapsed: 0.0011610984802246094
ell 113, elapsed: 0.0005638599395751953
ell 112, elapsed: 0.000553131103515625
ell 111, elapsed: 0.0005500316619873047
ell 110, elapsed: 0.000576019287109375
ell 102, elapsed: 0.0012319087982177734
ell 101, elapsed: 0.0004088878631591797
ell 100, elapsed: 0.0005488395690917969
ell 99, elapsed: 0.0005521774291992188
ell 98, elapsed: 0.0005428791046142578
ell 97, elapsed: 0.0005970001220703125
ell 96, elapsed: 0.0007171630859375
ell 95, elapsed: 0.0006120204925537109
ell 94, elapsed: 0.000701904296875
ell 93, elapsed: 0.0006120204925537109
ell 92, elapsed: 0.0006239414215087891
ell 91, elapsed: 0.0005998611450195312
ell 90, elapsed: 0.0007379055023193359
ell 89, elapsed: 0.0006151199340820312
ell 88, elapsed: 0.0006549358367919922
ell 87, elapsed: 0.0006070137023925781
ell 86, elapsed: 0.0007348060607910156
ell 85, elapsed: 0.0006549358367919922
ell 84, elapsed: 0.000698089599609375
ell 83, elapsed: 0.0005979537963867188
ell 82, elapsed: 0.0007028579711914062
ell 81, elapsed: 0.0006101131439208984
ell 80, elapsed: 0.0007081031799316406
ell 79, elapsed: 0.0005578994750976562
ell 78, elapsed: 0.0006949901580810547
ell 77, elapsed: 0.0006120204925537109
ell 76, elapsed: 0.0006978511810302734
ell 75, elapsed: 0.0006151199340820312
ell 74, elapsed: 0.004681825637817383
ell 73, elapsed: 0.0003981590270996094
ell 72, elapsed: 0.0005819797515869141
ell 71, elapsed: 0.0006210803985595703
ell 70, elapsed: 0.0007188320159912109
ell 69, elapsed: 0.0006151199340820312
ell 68, elapsed: 0.0006799697875976562
ell 67, elapsed: 0.0005488395690917969
ell 66, elapsed: 0.0006990432739257812
ell 65, elapsed: 0.0006270408630371094
ell 64, elapsed: 0.0006809234619140625
ell 63, elapsed: 0.0004439353942871094
ell 62, elapsed: 0.0006439685821533203
ell 61, elapsed: 0.0005970001220703125
ell 60, elapsed: 0.0007040500640869141
ell 59, elapsed: 0.0006189346313476562
ell 58, elapsed: 0.0006880760192871094
ell 57, elapsed: 0.0006220340728759766
ell 56, elapsed: 0.000743865966796875
ell 55, elapsed: 0.0006299018859863281
ell 54, elapsed: 0.0007109642028808594
ell 53, elapsed: 0.0006201267242431641
ell 52, elapsed: 0.0007171630859375
ell 51, elapsed: 0.0004930496215820312
ell 50, elapsed: 0.0006530284881591797
ell 49, elapsed: 0.0006139278411865234
ell 48, elapsed: 0.0007081031799316406
ell 47, elapsed: 0.0006139278411865234
ell 46, elapsed: 0.0006320476531982422
ell 45, elapsed: 0.0005738735198974609
ell 44, elapsed: 0.0007078647613525391
ell 43, elapsed: 0.000614166259765625
ell 42, elapsed: 0.0006930828094482422
ell 41, elapsed: 0.0006220340728759766
ell 40, elapsed: 0.0006699562072753906
ell 39, elapsed: 0.0006330013275146484
ell 38, elapsed: 0.0006999969482421875
ell 37, elapsed: 0.0006129741668701172
ell 36, elapsed: 0.0007030963897705078
ell 35, elapsed: 0.0006129741668701172
ell 34, elapsed: 0.0006940364837646484
ell 33, elapsed: 0.0006380081176757812
ell 32, elapsed: 0.0007150173187255859
ell 31, elapsed: 0.00061798095703125
ell 30, elapsed: 0.0006160736083984375
ell 29, elapsed: 0.0005619525909423828
ell 28, elapsed: 0.0007150173187255859
ell 27, elapsed: 0.0006201267242431641
ell 26, elapsed: 0.0007131099700927734
ell 25, elapsed: 0.0006170272827148438
ell 24, elapsed: 0.0006248950958251953
ell 23, elapsed: 0.0005738735198974609
ell 22, elapsed: 0.0007278919219970703
ell 21, elapsed: 0.0006229877471923828
ell 20, elapsed: 0.0006430149078369141
ell 19, elapsed: 0.0004980564117431641
ell 18, elapsed: 0.0007009506225585938
ell 17, elapsed: 0.0006110668182373047
[...]
ell 782, elapsed: 0.0016391277313232422
ell 781, elapsed: 0.0008490085601806641
ell 780, elapsed: 0.0008471012115478516
ell 779, elapsed: 0.0008380413055419922
ell 778, elapsed: 0.0008509159088134766
ell 772, elapsed: 0.0016489028930664062
ell 771, elapsed: 0.00084686279296875
ell 770, elapsed: 0.0008518695831298828
ell 769, elapsed: 0.0008561611175537109
ell 768, elapsed: 0.0008459091186523438
ell 762, elapsed: 0.0016331672668457031
ell 761, elapsed: 0.0008490085601806641
ell 760, elapsed: 0.0008549690246582031
ell 759, elapsed: 0.0008428096771240234
ell 758, elapsed: 0.0008449554443359375
ell 752, elapsed: 0.0016949176788330078
ell 751, elapsed: 0.0008409023284912109
ell 750, elapsed: 0.0008261203765869141
ell 749, elapsed: 0.0008311271667480469
ell 748, elapsed: 0.0008418560028076172
ell 742, elapsed: 0.0016181468963623047
ell 741, elapsed: 0.0008509159088134766
ell 740, elapsed: 0.0008440017700195312
ell 739, elapsed: 0.0008609294891357422
ell 738, elapsed: 0.0008420944213867188
ell 732, elapsed: 0.0015931129455566406
ell 731, elapsed: 0.0008451938629150391
ell 730, elapsed: 0.0009579658508300781
ell 729, elapsed: 0.0008461475372314453
ell 728, elapsed: 0.0008480548858642578
ell 722, elapsed: 0.0015940666198730469
ell 721, elapsed: 0.0009610652923583984
ell 720, elapsed: 0.000843048095703125
ell 719, elapsed: 0.0008440017700195312
ell 718, elapsed: 0.0008449554443359375
ell 712, elapsed: 0.0017058849334716797
ell 711, elapsed: 0.0008511543273925781
ell 710, elapsed: 0.0008411407470703125
ell 709, elapsed: 0.0008399486541748047
ell 708, elapsed: 0.0009348392486572266
ell 702, elapsed: 0.0015981197357177734
ell 701, elapsed: 0.0008409023284912109
ell 700, elapsed: 0.0009419918060302734
ell 699, elapsed: 0.0008409023284912109
ell 698, elapsed: 0.0008389949798583984
ell 692, elapsed: 0.0015969276428222656
ell 691, elapsed: 0.0009341239929199219
ell 690, elapsed: 0.000843048095703125
ell 689, elapsed: 0.0008349418640136719
ell 688, elapsed: 0.0008399486541748047
ell 682, elapsed: 0.0017092227935791016
ell 681, elapsed: 0.0008420944213867188
ell 680, elapsed: 0.0008530616760253906
ell 679, elapsed: 0.0008518695831298828
ell 678, elapsed: 0.0009341239929199219
ell 672, elapsed: 0.0016019344329833984
ell 671, elapsed: 0.0008449554443359375
ell 670, elapsed: 0.0009500980377197266
ell 669, elapsed: 0.0008449554443359375
ell 668, elapsed: 0.0008358955383300781
ell 662, elapsed: 0.0015909671783447266
ell 661, elapsed: 0.0009319782257080078
ell 660, elapsed: 0.00086212158203125
ell 659, elapsed: 0.0008509159088134766
ell 658, elapsed: 0.0008571147918701172
ell 652, elapsed: 0.0021381378173828125
ell 651, elapsed: 0.0008618831634521484
ell 650, elapsed: 0.0008418560028076172
ell 649, elapsed: 0.0008490085601806641
ell 648, elapsed: 0.0008730888366699219
ell 642, elapsed: 0.0016050338745117188
ell 641, elapsed: 0.0008521080017089844
ell 640, elapsed: 0.001299142837524414
ell 639, elapsed: 0.0008580684661865234
ell 638, elapsed: 0.0008389949798583984
ell 632, elapsed: 0.0016760826110839844
ell 631, elapsed: 0.0008518695831298828
ell 630, elapsed: 0.01122593879699707
ell 629, elapsed: 0.0011742115020751953
ell 628, elapsed: 0.0008509159088134766
ell 622, elapsed: 0.0016109943389892578
ell 621, elapsed: 0.00084686279296875
ell 620, elapsed: 0.0008440017700195312
ell 619, elapsed: 0.0008478164672851562
ell 618, elapsed: 0.000843048095703125
ell 612, elapsed: 0.0016109943389892578
ell 611, elapsed: 0.0008471012115478516
ell 610, elapsed: 0.0009059906005859375
ell 609, elapsed: 0.0008380413055419922
ell 608, elapsed: 0.0008561611175537109
ell 602, elapsed: 0.0015950202941894531
ell 601, elapsed: 0.0008401870727539062
ell 600, elapsed: 0.0008518695831298828
ell 599, elapsed: 0.0008370876312255859
ell 598, elapsed: 0.0008389949798583984
ell 592, elapsed: 0.001596212387084961
ell 591, elapsed: 0.0008611679077148438
ell 590, elapsed: 0.0008389949798583984
ell 589, elapsed: 0.0008268356323242188
ell 588, elapsed: 0.0008401870727539062
ell 582, elapsed: 0.0016291141510009766
ell 581, elapsed: 0.0008440017700195312
ell 580, elapsed: 0.0008389949798583984
ell 579, elapsed: 0.0008399486541748047
ell 578, elapsed: 0.0008590221405029297
ell 572, elapsed: 0.0016109943389892578
ell 571, elapsed: 0.000843048095703125
ell 570, elapsed: 0.0008440017700195312
ell 569, elapsed: 0.0008578300476074219
ell 568, elapsed: 0.0008411407470703125
ell 562, elapsed: 0.0016148090362548828
ell 561, elapsed: 0.000843048095703125
ell 560, elapsed: 0.0008580684661865234
ell 559, elapsed: 0.0008389949798583984
ell 558, elapsed: 0.0008389949798583984
ell 552, elapsed: 0.001644134521484375
ell 551, elapsed: 0.0008378028869628906
ell 550, elapsed: 0.0008370876312255859
ell 549, elapsed: 0.0008358955383300781
ell 548, elapsed: 0.0008351802825927734
ell 542, elapsed: 0.0016360282897949219
ell 541, elapsed: 0.0008440017700195312
ell 540, elapsed: 0.0008471012115478516
ell 539, elapsed: 0.0008571147918701172
ell 538, elapsed: 0.0008471012115478516
ell 532, elapsed: 0.0016188621520996094
ell 531, elapsed: 0.0008919239044189453
ell 530, elapsed: 0.0010330677032470703
ell 529, elapsed: 0.0008311271667480469
ell 528, elapsed: 0.0008389949798583984
ell 522, elapsed: 0.0016350746154785156
ell 521, elapsed: 0.0009400844573974609
ell 520, elapsed: 0.0008471012115478516
ell 519, elapsed: 0.0008440017700195312
ell 518, elapsed: 0.0008411407470703125
ell 512, elapsed: 0.0026009082794189453
ell 511, elapsed: 0.0008540153503417969
ell 510, elapsed: 0.0008420944213867188
ell 509, elapsed: 0.0008988380432128906
ell 508, elapsed: 0.0008418560028076172
ell 502, elapsed: 0.0016088485717773438
ell 501, elapsed: 0.0009419918060302734
ell 500, elapsed: 0.0008411407470703125
ell 499, elapsed: 0.0008378028869628906
ell 498, elapsed: 0.0008399486541748047
ell 492, elapsed: 0.0016598701477050781
ell 491, elapsed: 0.0008518695831298828
ell 490, elapsed: 0.0008399486541748047
ell 489, elapsed: 0.0008399486541748047
ell 488, elapsed: 0.0008690357208251953
ell 482, elapsed: 0.0016150474548339844
ell 481, elapsed: 0.0008471012115478516
ell 480, elapsed: 0.0008449554443359375
ell 479, elapsed: 0.0008649826049804688
ell 478, elapsed: 0.0008480548858642578
ell 472, elapsed: 0.0016090869903564453
ell 471, elapsed: 0.0008409023284912109
ell 470, elapsed: 0.0008549690246582031
ell 469, elapsed: 0.0008451938629150391
ell 468, elapsed: 0.0008411407470703125
ell 462, elapsed: 0.0016269683837890625
ell 461, elapsed: 0.0008461475372314453
ell 460, elapsed: 0.0008389949798583984
ell 459, elapsed: 0.0008411407470703125
ell 458, elapsed: 0.0008409023284912109
ell 452, elapsed: 0.0015959739685058594
ell 451, elapsed: 0.0008389949798583984
ell 450, elapsed: 0.0008420944213867188
ell 449, elapsed: 0.0008599758148193359
ell 448, elapsed: 0.0008461475372314453
ell 442, elapsed: 0.0015931129455566406
ell 441, elapsed: 0.000843048095703125
ell 440, elapsed: 0.0008471012115478516
ell 439, elapsed: 0.0008440017700195312
ell 438, elapsed: 0.0008389949798583984
ell 432, elapsed: 0.0015959739685058594
ell 431, elapsed: 0.0008549690246582031
ell 430, elapsed: 0.0008380413055419922
ell 429, elapsed: 0.0008411407470703125
ell 428, elapsed: 0.0008459091186523438
ell 422, elapsed: 0.0016090869903564453
ell 421, elapsed: 0.0008409023284912109
ell 420, elapsed: 0.000843048095703125
ell 419, elapsed: 0.0008380413055419922
ell 418, elapsed: 0.0008549690246582031
ell 412, elapsed: 0.0016069412231445312
ell 411, elapsed: 0.0008420944213867188
ell 410, elapsed: 0.0008409023284912109
ell 409, elapsed: 0.0008599758148193359
ell 408, elapsed: 0.0008459091186523438
ell 402, elapsed: 0.0015861988067626953
ell 401, elapsed: 0.0008459091186523438
ell 400, elapsed: 0.0008640289306640625
ell 399, elapsed: 0.0008518695831298828
ell 398, elapsed: 0.0008571147918701172
ell 392, elapsed: 0.0016200542449951172
ell 391, elapsed: 0.0008411407470703125
ell 390, elapsed: 0.0008461475372314453
ell 389, elapsed: 0.0008490085601806641
ell 388, elapsed: 0.0008461475372314453
ell 382, elapsed: 0.0016021728515625
ell 381, elapsed: 0.0008409023284912109
ell 380, elapsed: 0.000843048095703125
ell 379, elapsed: 0.0008590221405029297
ell 378, elapsed: 0.0008449554443359375
ell 372, elapsed: 0.0015871524810791016
ell 371, elapsed: 0.0008471012115478516
ell 370, elapsed: 0.0008640289306640625
ell 369, elapsed: 0.0008440017700195312
ell 368, elapsed: 0.0008440017700195312
ell 362, elapsed: 0.0015788078308105469
ell 361, elapsed: 0.0008540153503417969
ell 360, elapsed: 0.0008368492126464844
ell 359, elapsed: 0.0008370876312255859
ell 358, elapsed: 0.0008299350738525391
ell 352, elapsed: 0.0015501976013183594
ell 351, elapsed: 0.0008690357208251953
ell 350, elapsed: 0.0008330345153808594
ell 349, elapsed: 0.0008320808410644531
ell 348, elapsed: 0.0008740425109863281
ell 342, elapsed: 0.0015778541564941406
ell 341, elapsed: 0.0008327960968017578
ell 340, elapsed: 0.0008330345153808594
ell 339, elapsed: 0.0009400844573974609
ell 338, elapsed: 0.0008401870727539062
ell 332, elapsed: 0.0015799999237060547
ell 331, elapsed: 0.000843048095703125
ell 330, elapsed: 0.0008549690246582031
ell 329, elapsed: 0.0008339881896972656
ell 328, elapsed: 0.0008411407470703125
ell 322, elapsed: 0.0016021728515625
ell 321, elapsed: 0.0008418560028076172
ell 320, elapsed: 0.0008370876312255859
ell 319, elapsed: 0.0008349418640136719
ell 318, elapsed: 0.0008289813995361328
ell 312, elapsed: 0.0015897750854492188
ell 311, elapsed: 0.0008330345153808594
ell 310, elapsed: 0.0008330345153808594
ell 309, elapsed: 0.0008370876312255859
ell 308, elapsed: 0.0008537769317626953
ell 302, elapsed: 0.0015540122985839844
ell 301, elapsed: 0.0008640289306640625
ell 300, elapsed: 0.0008518695831298828
ell 299, elapsed: 0.0008330345153808594
ell 298, elapsed: 0.0008299350738525391
ell 292, elapsed: 0.0015869140625
ell 291, elapsed: 0.0008459091186523438
ell 290, elapsed: 0.0008370876312255859
ell 289, elapsed: 0.0008311271667480469
ell 288, elapsed: 0.0008349418640136719
ell 282, elapsed: 0.0016400814056396484
ell 281, elapsed: 0.0008378028869628906
ell 280, elapsed: 0.000843048095703125
ell 279, elapsed: 0.0008380413055419922
ell 278, elapsed: 0.00084686279296875
ell 272, elapsed: 0.0015721321105957031
ell 271, elapsed: 0.0009331703186035156
ell 270, elapsed: 0.0010318756103515625
ell 269, elapsed: 0.0010209083557128906
ell 268, elapsed: 0.0010149478912353516
ell 262, elapsed: 0.0017299652099609375
ell 261, elapsed: 0.0010418891906738281
ell 260, elapsed: 0.0010068416595458984
ell 259, elapsed: 0.0009329319000244141
ell 258, elapsed: 0.0009219646453857422
ell 252, elapsed: 0.0017161369323730469
ell 251, elapsed: 0.0009479522705078125
ell 250, elapsed: 0.0009479522705078125
ell 249, elapsed: 0.0009419918060302734
ell 248, elapsed: 0.0009641647338867188
ell 242, elapsed: 0.0017080307006835938
ell 241, elapsed: 0.0009510517120361328
ell 240, elapsed: 0.0009398460388183594
ell 239, elapsed: 0.0009419918060302734
ell 238, elapsed: 0.009494781494140625
ell 232, elapsed: 0.001522064208984375
ell 231, elapsed: 0.0008549690246582031
ell 230, elapsed: 0.0008411407470703125
ell 229, elapsed: 0.005964994430541992
ell 228, elapsed: 0.0008749961853027344
ell 222, elapsed: 0.001622915267944336
ell 221, elapsed: 0.0015330314636230469
ell 220, elapsed: 0.0008759498596191406
ell 219, elapsed: 0.0008399486541748047
ell 218, elapsed: 0.0008409023284912109
ell 212, elapsed: 0.004510164260864258
ell 211, elapsed: 0.005352973937988281
ell 210, elapsed: 0.0008540153503417969
ell 209, elapsed: 0.0008440017700195312
ell 208, elapsed: 0.0008261203765869141
ell 202, elapsed: 0.0049860477447509766
ell 201, elapsed: 0.0008528232574462891
ell 200, elapsed: 0.0008409023284912109
ell 199, elapsed: 0.0008330345153808594
ell 198, elapsed: 0.0011010169982910156
ell 192, elapsed: 0.0015499591827392578
ell 191, elapsed: 0.0011610984802246094
ell 190, elapsed: 0.0010790824890136719
ell 189, elapsed: 0.0008668899536132812
ell 188, elapsed: 0.000985860824584961
ell 182, elapsed: 0.001708984375
ell 181, elapsed: 0.0009510517120361328
ell 180, elapsed: 0.0009429454803466797
ell 179, elapsed: 0.0009410381317138672
ell 178, elapsed: 0.0009369850158691406
ell 172, elapsed: 0.0017368793487548828
ell 171, elapsed: 0.0009350776672363281
ell 170, elapsed: 0.0009391307830810547
ell 169, elapsed: 0.0011408329010009766
ell 168, elapsed: 0.0009601116180419922
ell 162, elapsed: 0.0017180442810058594
ell 161, elapsed: 0.0008490085601806641
ell 160, elapsed: 0.0009000301361083984
ell 159, elapsed: 0.0008859634399414062
ell 158, elapsed: 0.000865936279296875
ell 152, elapsed: 0.0016138553619384766
ell 151, elapsed: 0.0008339881896972656
ell 150, elapsed: 0.0008687973022460938
ell 149, elapsed: 0.0008378028869628906
ell 148, elapsed: 0.0008490085601806641
ell 142, elapsed: 0.0015878677368164062
ell 141, elapsed: 0.0008358955383300781
ell 140, elapsed: 0.0008361339569091797
ell 139, elapsed: 0.0008549690246582031
ell 138, elapsed: 0.0008330345153808594
ell 132, elapsed: 0.0015289783477783203
ell 131, elapsed: 0.0007998943328857422
ell 130, elapsed: 0.0008089542388916016
ell 129, elapsed: 0.0007801055908203125
ell 128, elapsed: 0.0007879734039306641
ell 122, elapsed: 0.001672983169555664
ell 121, elapsed: 0.0008428096771240234
ell 120, elapsed: 0.0008211135864257812
ell 119, elapsed: 0.0008268356323242188
ell 118, elapsed: 0.0008149147033691406
ell 112, elapsed: 0.0016551017761230469
ell 111, elapsed: 0.0008420944213867188
ell 110, elapsed: 0.0008361339569091797
ell 109, elapsed: 0.0008330345153808594
ell 108, elapsed: 0.0029888153076171875
ell 102, elapsed: 0.0018529891967773438
ell 101, elapsed: 0.003217935562133789
ell 100, elapsed: 0.0032999515533447266
ell 99, elapsed: 0.0032389163970947266
ell 98, elapsed: 0.003237009048461914
ell 92, elapsed: 0.005805015563964844
ell 91, elapsed: 0.0032770633697509766
ell 90, elapsed: 0.003349781036376953
ell 89, elapsed: 0.0036530494689941406
ell 88, elapsed: 0.009512901306152344
ell 82, elapsed: 0.0063359737396240234
ell 81, elapsed: 0.0033981800079345703
ell 80, elapsed: 0.0034160614013671875
ell 79, elapsed: 0.003376007080078125
ell 78, elapsed: 0.003331899642944336
ell 72, elapsed: 0.0059719085693359375
ell 71, elapsed: 0.003381967544555664
ell 70, elapsed: 0.003376007080078125
ell 69, elapsed: 0.003389120101928711
ell 68, elapsed: 0.003378152847290039
ell 62, elapsed: 0.0065059661865234375
ell 61, elapsed: 0.0036139488220214844
ell 60, elapsed: 0.003361940383911133
ell 59, elapsed: 0.0034379959106445312
ell 58, elapsed: 0.0033829212188720703
ell 52, elapsed: 0.005986928939819336
ell 51, elapsed: 0.0033538341522216797
ell 50, elapsed: 0.0034279823303222656
ell 49, elapsed: 0.003400087356567383
ell 48, elapsed: 0.003271818161010742
ell 42, elapsed: 0.0058460235595703125
ell 41, elapsed: 0.003222942352294922
ell 40, elapsed: 0.0032660961151123047
ell 39, elapsed: 0.004047870635986328
ell 38, elapsed: 0.0032351016998291016
ell 32, elapsed: 0.005817890167236328
ell 31, elapsed: 0.003473997116088867
ell 30, elapsed: 0.0032930374145507812
ell 29, elapsed: 0.0032889842987060547
ell 28, elapsed: 0.0045320987701416016
ell 22, elapsed: 0.006068229675292969
ell 21, elapsed: 0.0032720565795898438
ell 20, elapsed: 0.0035529136657714844
ell 19, elapsed: 0.0034601688385009766
ell 18, elapsed: 0.0032901763916015625
ell 12, elapsed: 0.005898952484130859
ell 11, elapsed: 0.0032129287719726562
ell 10, elapsed: 0.0033559799194335938
ell 9, elapsed: 0.0032541751861572266
ell 8, elapsed: 0.003332853317260742
  0.835102 seconds (66.75 k allocations: 12.139 MiB, 1.22% gc time)
elapsed: 0.004042148590087891
step:          0.070726 sec (0 allocations: 0 byte, 0.0% gc time)
swapping:      0.000773 sec (0 allocations: 0 byte, 0.0% gc time)
calc_Mellell!: 0.037281 sec (0 allocations: 0 byte, 0.0% gc time)
  t0 :  0.01164 sec (0 allocations: 0 byte, 0.0% gc time)
  tm2 : 0.076964 sec (0 allocations: 0 byte, 0.0% gc time)
  tm2s: 0.008482 sec (0 allocations: 0 byte, 0.0% gc time)
  tm4 : 0.192408 sec (0 allocations: 0 byte, 0.0% gc time)
  tp2 : 0.0 sec (0 allocations: 0 byte, 0.0% gc time)
  tp2s: 0.0 sec (0 allocations: 0 byte, 0.0% gc time)
  tp4 : 0.0 sec (0 allocations: 0 byte, 0.0% gc time)
calc_wtdll!:   0.573079 sec (49.2 k allocations: 11.133 MB, 1.78% gc time)
calc_wljj!:    0.04144 sec (69 allocations: 1.078 KB, 0.0% gc time)
mult_prefac!:  0.0 sec (0 allocations: 0 byte, 0.0% gc time)
convert:       0.0 sec (0 allocations: 0 byte, 0.0% gc time)
write:         0.032462 sec (0 allocations: 0 byte, 0.0% gc time)
test_rand_2f1: 0.0 sec (0 allocations: 0 byte, 0.0% gc time)
Closing outfile out/MlCache/MlCache.bin...   0.000008 seconds
xi, l=0, nu=0:   0.441928 seconds (637.36 k allocations: 30.738 MiB, 3.45% gc time)
xi, l=0, nu=-2:  0.002677 seconds (409 allocations: 176.859 KiB)
Created 'out/xi.tsv'.
  q=1.1, R=0.6:	  0.741139 seconds (291.08 k allocations: 38.895 MiB, 1.95% gc time)
  q=1.1, R=0.7:	  0.868348 seconds (304.75 k allocations: 40.996 MiB, 1.05% gc time)
  q=1.1, R=0.8:	  0.891754 seconds (299.14 k allocations: 40.132 MiB, 1.00% gc time)
  q=1.1, R=0.9:	  0.993163 seconds (293.57 k allocations: 39.286 MiB)
  q=1.1, R=0.998:	 20.532348 seconds (10.67 M allocations: 823.453 MiB, 0.38% gc time)
  q=1.1, R=1.0:	  0.004666 seconds (10.24 k allocations: 768.375 KiB)

ℓ = 1000
Δℓ = 4
ΔℓRg1 = -4
N = 4096
q = 1.1
kmin = 1.0e-5
kmax = 1000.0
χ0 = 0.001
RR = RR.tsv
ℓmax = ℓmax.bin
f21 = f21.bin
kmin = 1.0e-5
kmax = 1000.0
dlrec    = 4
dlrecRg1 = -4
Output size: 1573632 bytes = 0.0014655590057373047 GiB
Output size: 786816 bytes = 0.0007327795028686523 GiB
Reading 'out/F21EllCache'...   0.001298 seconds (268 allocations: 533.531 KiB)
ellmax: 1002
lmaxcache: 1000
fell[:,1,1] = Complex{Float64}[1.7262928128202118e-224 - 4.2281979352226944e-240im, 1.7282693092099662e-224 - 4.233038955177176e-240im]
ell 1002, elapsed: 1.9073486328125e-5
ell 1001, elapsed: 0.0010309219360351562
ell 1000, elapsed: 0.0008029937744140625
ell 999, elapsed: 0.004308938980102539
ell 998, elapsed: 0.0042841434478759766
ell 44, elapsed: 0.6454071998596191
ell 43, elapsed: 0.007146120071411133
ell 42, elapsed: 0.00775599479675293
ell 41, elapsed: 0.0072269439697265625
ell 40, elapsed: 0.0076961517333984375
  0.693373 seconds (4.55 k allocations: 320.031 KiB)
elapsed: 0.007391929626464844
step:          0.644264 sec (0 allocations: 0 byte, 0.0% gc time)
swapping:      0.000481 sec (0 allocations: 0 byte, 0.0% gc time)
calc_Mellell!: 0.001042 sec (0 allocations: 0 byte, 0.0% gc time)
  t0 :  0.000734 sec (0 allocations: 0 byte, 0.0% gc time)
  tm2 : 0.010932 sec (0 allocations: 0 byte, 0.0% gc time)
  tm2s: 0.000608 sec (0 allocations: 0 byte, 0.0% gc time)
  tm4 : 0.030147 sec (0 allocations: 0 byte, 0.0% gc time)
  tp2 : 0.0 sec (0 allocations: 0 byte, 0.0% gc time)
  tp2s: 0.0 sec (0 allocations: 0 byte, 0.0% gc time)
  tp4 : 0.0 sec (0 allocations: 0 byte, 0.0% gc time)
calc_wtdll!:   0.042642 sec (480 allocations: 52.5 KB, 0.0% gc time)
calc_wljj!:    0.001287 sec (1 allocations: 16 byte, 0.0% gc time)
mult_prefac!:  0.0 sec (0 allocations: 0 byte, 0.0% gc time)
convert:       0.0 sec (0 allocations: 0 byte, 0.0% gc time)
write:         0.000795 sec (0 allocations: 0 byte, 0.0% gc time)
test_rand_2f1: 0.0 sec (0 allocations: 0 byte, 0.0% gc time)
Closing outfile out/MlCache/MlCache.bin...   0.000007 seconds
  1.221949 seconds (580.98 k allocations: 56.930 MiB, 1.22% gc time)
make_phi():   0.014736 seconds (225 allocations: 290.906 KiB)
  0.005416 seconds (5.99 k allocations: 616.750 KiB)
tskip:       1.0e-6 sec (0 allocations: 0 byte, 0.0% gc time)
tread:       0.000629 sec (19 allocations: 1.312 KB, 0.0% gc time)
tmultphi:    0.000315 sec (0 allocations: 0 byte, 0.0% gc time)
tbrfft:      0.003298 sec (5.98 k allocations: 615.438 KB, 0.0% gc time)
tmultprefac: 0.000977 sec (0 allocations: 0 byte, 0.0% gc time)
toutfunc:    0.000286 sec (0 allocations: 0 byte, 0.0% gc time)
Created 'out/wl42_jj00.tsv'.
Created 'out/wl42_jj02.tsv'.
    Testing TwoFAST tests passed 
