Julia Version 1.3.2-pre.0
Commit 2e6715c045 (2019-12-31 00:49 UTC)
Platform Info:
  OS: Linux (x86_64-linux-gnu)
  CPU: Intel(R) Xeon(R) Silver 4114 CPU @ 2.20GHz
  WORD_SIZE: 64
  LIBM: libopenlibm
  LLVM: libLLVM-6.0.1 (ORCJIT, skylake)
Environment:
  JULIA_DEPOT_PATH = ::/usr/local/share/julia

 Resolving package versions...
 Installed IntelOpenMP_jll ── v2018.0.3+0
 Installed Reexport ───────── v0.2.0
 Installed FFTW_jll ───────── v3.3.9+3
 Installed AbstractFFTs ───── v0.5.0
 Installed FFTW ───────────── v1.2.0
 Installed SpecialFunctions ─ v0.8.0
 Installed Nemo ───────────── v0.15.1
 Installed BinaryProvider ─── v0.5.8
 Installed URIParser ──────── v0.4.0
 Installed BinDeps ────────── v1.0.0
 Installed MKL_jll ────────── v2019.0.117+0
 Installed IncGammaBeta ───── v0.1.0
 Installed AbstractAlgebra ── v0.7.1
 Installed TwoFAST ────────── v0.1.0
  Updating `~/.julia/environments/v1.3/Project.toml`
  [0dd23c3e] + TwoFAST v0.1.0
  Updating `~/.julia/environments/v1.3/Manifest.toml`
  [c3fe647b] + AbstractAlgebra v0.7.1
  [621f4979] + AbstractFFTs v0.5.0
  [9e28174c] + BinDeps v1.0.0
  [b99e7846] + BinaryProvider v0.5.8
  [7a1cc6ca] + FFTW v1.2.0
  [f5851436] + FFTW_jll v3.3.9+3
  [5087d2c0] + IncGammaBeta v0.1.0
  [1d5cc7b8] + IntelOpenMP_jll v2018.0.3+0
  [856f044c] + MKL_jll v2019.0.117+0
  [2edaba10] + Nemo v0.15.1
  [189a3867] + Reexport v0.2.0
  [276daf66] + SpecialFunctions v0.8.0
  [0dd23c3e] + TwoFAST v0.1.0
  [30578b45] + URIParser v0.4.0
  [2a0f44e3] + Base64 
  [ade2ca70] + Dates 
  [8bb1440f] + DelimitedFiles 
  [8ba89e20] + Distributed 
  [b77e0a4c] + InteractiveUtils 
  [76f85450] + LibGit2 
  [8f399da3] + Libdl 
  [37e2e46d] + LinearAlgebra 
  [56ddb016] + Logging 
  [d6f4376e] + Markdown 
  [a63ad114] + Mmap 
  [44cfe95a] + Pkg 
  [de0858da] + Printf 
  [3fa0cd96] + REPL 
  [9a3f8284] + Random 
  [ea8e919c] + SHA 
  [9e88b42a] + Serialization 
  [6462fe0b] + Sockets 
  [2f01184e] + SparseArrays 
  [8dfed614] + Test 
  [cf7118a7] + UUIDs 
  [4ec0a83e] + Unicode 
  Building SpecialFunctions → `~/.julia/packages/SpecialFunctions/ne2iw/deps/build.log`
  Building FFTW ────────────→ `~/.julia/packages/FFTW/qqcBj/deps/build.log`
  Building Nemo ────────────→ `~/.julia/packages/Nemo/qzx0m/deps/build.log`
   Testing TwoFAST
 Resolving package versions...
 Installed Dierckx ─ v0.4.1
  Building Dierckx → `~/.julia/packages/Dierckx/9SY4A/deps/build.log`
    Status `/tmp/jl_Wnjsh9/Manifest.toml`
  [c3fe647b] AbstractAlgebra v0.7.1
  [621f4979] AbstractFFTs v0.5.0
  [9e28174c] BinDeps v1.0.0
  [b99e7846] BinaryProvider v0.5.8
  [39dd38d3] Dierckx v0.4.1
  [7a1cc6ca] FFTW v1.2.0
  [f5851436] FFTW_jll v3.3.9+3
  [5087d2c0] IncGammaBeta v0.1.0
  [1d5cc7b8] IntelOpenMP_jll v2018.0.3+0
  [856f044c] MKL_jll v2019.0.117+0
  [2edaba10] Nemo v0.15.1
  [189a3867] Reexport v0.2.0
  [276daf66] SpecialFunctions v0.8.0
  [0dd23c3e] TwoFAST v0.1.0
  [30578b45] URIParser v0.4.0
  [2a0f44e3] Base64  [`@stdlib/Base64`]
  [ade2ca70] Dates  [`@stdlib/Dates`]
  [8bb1440f] DelimitedFiles  [`@stdlib/DelimitedFiles`]
  [8ba89e20] Distributed  [`@stdlib/Distributed`]
  [b77e0a4c] InteractiveUtils  [`@stdlib/InteractiveUtils`]
  [76f85450] LibGit2  [`@stdlib/LibGit2`]
  [8f399da3] Libdl  [`@stdlib/Libdl`]
  [37e2e46d] LinearAlgebra  [`@stdlib/LinearAlgebra`]
  [56ddb016] Logging  [`@stdlib/Logging`]
  [d6f4376e] Markdown  [`@stdlib/Markdown`]
  [a63ad114] Mmap  [`@stdlib/Mmap`]
  [44cfe95a] Pkg  [`@stdlib/Pkg`]
  [de0858da] Printf  [`@stdlib/Printf`]
  [3fa0cd96] REPL  [`@stdlib/REPL`]
  [9a3f8284] Random  [`@stdlib/Random`]
  [ea8e919c] SHA  [`@stdlib/SHA`]
  [9e88b42a] Serialization  [`@stdlib/Serialization`]
  [6462fe0b] Sockets  [`@stdlib/Sockets`]
  [2f01184e] SparseArrays  [`@stdlib/SparseArrays`]
  [8dfed614] Test  [`@stdlib/Test`]
  [cf7118a7] UUIDs  [`@stdlib/UUIDs`]
  [4ec0a83e] Unicode  [`@stdlib/Unicode`]

Welcome to Nemo version 0.15.1

Nemo comes with absolutely no warranty whatsoever


Welcome to Nemo version 0.15.1

Nemo comes with absolutely no warranty whatsoever

Testing ξ(r), ℓ=0, ν=-1 ... passed
Testing ξ(r), ℓ=0, ν=0 ... passed
Testing ξ(r), ℓ=0, ν=1 ... passed
Testing ξ(r), ℓ=0, ν=2 ... passed
Testing ξ(r), ℓ=0, ν=3 ... passed
Testing ξ(r), ℓ=1, ν=0 ... passed
Testing ξ(r), ℓ=1, ν=1 ... passed
Testing ξ(r), ℓ=1, ν=2 ... passed
Testing ξ(r), ℓ=1, ν=3 ... passed
Testing ξ(r), ℓ=2, ν=-1 ... passed
Testing ξ(r), ℓ=2, ν=0 ... passed
Testing ξ(r), ℓ=2, ν=1 ... passed
Testing ξ(r), ℓ=2, ν=2 ... passed
Testing ξ(r), ℓ=2, ν=3 ... passed
Testing ξ(r), ℓ=3, ν=-1 ... passed
Testing ξ(r), ℓ=3, ν=0 ... passed
Testing ξ(r), ℓ=3, ν=1 ... passed
Testing ξ(r), ℓ=3, ν=2 ... passed
Testing ξ(r), ℓ=3, ν=3 ... passed
Testing ξ(r), ℓ=4, ν=-1 ... passed
Testing ξ(r), ℓ=4, ν=0 ... passed
Testing ξ(r), ℓ=4, ν=1 ... passed
Testing ξ(r), ℓ=4, ν=2 ... passed
Testing ξ(r), ℓ=4, ν=3 ... passed
Testing ξ(r) ... passed
Testing ξ′(r) ... passed
Testing ξ″(r) ... passed
Calculating fmax: 
  dlrec    = 4
  dlrecRg1 = -4
  q=1.1, R=1.1:	  3.940563 seconds (1.11 M allocations: 119.128 MiB, 4.13% gc time)

  3.994833 seconds (1.11 M allocations: 119.486 MiB, 4.08% gc time)
ℓ = 1202
Δℓ = 4
ΔℓRg1 = -4
N = 1600
q = 1.1
kmin = 1.0e-5
kmax = 100000.00000000004
χ0 = 0.023029999999999995
RR = RR.tsv
ℓmax = ℓmax.bin
f21 = f21.bin
kmin = 1.0e-5
kmax = 100000.0
dlrec    = 4
dlrecRg1 = -4
Output size: 5741568 bytes = 0.005347251892089844 GiB
Output size: 51264 bytes = 4.774332046508789e-5 GiB
Reading 'out/F21EllCache'...   0.759501 seconds (348.11 k allocations: 17.862 MiB, 2.78% gc time)
ellmax: 1202
lmaxcache: 1202
fell[:,1,1] = Complex{Float64}[3.9583795592771634e-52 - 9.695233714158177e-68im, 3.990121772925759e-52 - 9.772979714843386e-68im]
ell 1202, elapsed: 0.003710031509399414
ell 1201, elapsed: 2.507965087890625
ell 1200, elapsed: 0.0005660057067871094
ell 1199, elapsed: 0.0005300045013427734
ell 1198, elapsed: 0.0005290508270263672
ell 1002, elapsed: 0.01235508918762207
ell 1001, elapsed: 0.0004611015319824219
ell 1000, elapsed: 0.0012850761413574219
ell 999, elapsed: 0.00044798851013183594
ell 998, elapsed: 0.00044608116149902344
ell 902, elapsed: 0.006880044937133789
ell 901, elapsed: 0.0005550384521484375
ell 900, elapsed: 0.000537872314453125
ell 899, elapsed: 0.0005278587341308594
ell 898, elapsed: 0.0005321502685546875
ell 802, elapsed: 0.007300853729248047
ell 801, elapsed: 0.0005109310150146484
ell 800, elapsed: 0.0013408660888671875
ell 799, elapsed: 0.0005118846893310547
ell 798, elapsed: 0.0004968643188476562
ell 702, elapsed: 0.0063631534576416016
ell 701, elapsed: 0.000514984130859375
ell 700, elapsed: 0.000514984130859375
ell 699, elapsed: 0.0004999637603759766
ell 698, elapsed: 0.0005218982696533203
ell 602, elapsed: 0.005655050277709961
ell 601, elapsed: 0.0005168914794921875
ell 600, elapsed: 0.0005099773406982422
ell 599, elapsed: 0.0005009174346923828
ell 598, elapsed: 0.0005009174346923828
ell 502, elapsed: 0.0055980682373046875
ell 501, elapsed: 0.0005269050598144531
ell 500, elapsed: 0.00051116943359375
ell 499, elapsed: 0.0005078315734863281
ell 498, elapsed: 0.0004980564117431641
ell 402, elapsed: 0.005438804626464844
ell 401, elapsed: 0.0004489421844482422
ell 400, elapsed: 0.0004360675811767578
ell 399, elapsed: 0.00043392181396484375
ell 398, elapsed: 0.0004360675811767578
ell 302, elapsed: 0.004898786544799805
ell 301, elapsed: 0.00047588348388671875
ell 300, elapsed: 0.0004589557647705078
ell 299, elapsed: 0.00043892860412597656
ell 298, elapsed: 0.0004489421844482422
ell 202, elapsed: 0.00501704216003418
ell 201, elapsed: 0.00045013427734375
ell 200, elapsed: 0.0004489421844482422
ell 199, elapsed: 0.0004711151123046875
ell 198, elapsed: 0.0005099773406982422
ell 152, elapsed: 0.0025680065155029297
ell 151, elapsed: 0.0004489421844482422
ell 150, elapsed: 0.0004520416259765625
ell 149, elapsed: 0.00044417381286621094
ell 148, elapsed: 0.0004448890686035156
ell 127, elapsed: 0.0015130043029785156
ell 126, elapsed: 0.00043487548828125
ell 125, elapsed: 0.00042891502380371094
ell 124, elapsed: 0.0005741119384765625
ell 123, elapsed: 0.0004630088806152344
ell 114, elapsed: 0.0008590221405029297
ell 113, elapsed: 0.0004391670227050781
ell 112, elapsed: 0.00044083595275878906
ell 111, elapsed: 0.0004410743713378906
ell 110, elapsed: 0.0005300045013427734
ell 102, elapsed: 0.0009870529174804688
ell 101, elapsed: 0.0004470348358154297
ell 100, elapsed: 0.00043201446533203125
ell 99, elapsed: 0.0004341602325439453
ell 98, elapsed: 0.0004360675811767578
ell 97, elapsed: 0.0004839897155761719
ell 96, elapsed: 0.0007538795471191406
ell 95, elapsed: 0.0005600452423095703
ell 94, elapsed: 0.0006401538848876953
ell 93, elapsed: 0.0005400180816650391
ell 92, elapsed: 0.0005788803100585938
ell 91, elapsed: 0.0005979537963867188
ell 90, elapsed: 0.0006279945373535156
ell 89, elapsed: 0.0005040168762207031
ell 88, elapsed: 0.0006270408630371094
ell 87, elapsed: 0.0005600452423095703
ell 86, elapsed: 0.0006489753723144531
ell 85, elapsed: 0.0005550384521484375
ell 84, elapsed: 0.0006270408630371094
ell 83, elapsed: 0.0005509853363037109
ell 82, elapsed: 0.0006740093231201172
ell 81, elapsed: 0.0005588531494140625
ell 80, elapsed: 0.0006411075592041016
ell 79, elapsed: 0.0005509853363037109
ell 78, elapsed: 0.0006861686706542969
ell 77, elapsed: 0.0005438327789306641
ell 76, elapsed: 0.0006492137908935547
ell 75, elapsed: 0.0005469322204589844
ell 74, elapsed: 0.0005729198455810547
ell 73, elapsed: 0.0004849433898925781
ell 72, elapsed: 0.00055694580078125
ell 71, elapsed: 0.0004730224609375
ell 70, elapsed: 0.0005600452423095703
ell 69, elapsed: 0.0004820823669433594
ell 68, elapsed: 0.0005609989166259766
ell 67, elapsed: 0.0004761219024658203
ell 66, elapsed: 0.0007238388061523438
ell 65, elapsed: 0.0004980564117431641
ell 64, elapsed: 0.0005609989166259766
ell 63, elapsed: 0.0004730224609375
ell 62, elapsed: 0.000553131103515625
ell 61, elapsed: 0.0004820823669433594
ell 60, elapsed: 0.0007290840148925781
ell 59, elapsed: 0.0005598068237304688
ell 58, elapsed: 0.0007460117340087891
ell 57, elapsed: 0.0005509853363037109
ell 56, elapsed: 0.0006480216979980469
ell 55, elapsed: 0.0005822181701660156
ell 54, elapsed: 0.0006291866302490234
ell 53, elapsed: 0.0005338191986083984
ell 52, elapsed: 0.0006282329559326172
ell 51, elapsed: 0.00057220458984375
ell 50, elapsed: 0.0006699562072753906
ell 49, elapsed: 0.0004830360412597656
ell 48, elapsed: 0.0005528926849365234
ell 47, elapsed: 0.0004749298095703125
ell 46, elapsed: 0.0006899833679199219
ell 45, elapsed: 0.0004870891571044922
ell 44, elapsed: 0.016111135482788086
ell 43, elapsed: 0.0005290508270263672
ell 42, elapsed: 0.0006611347198486328
ell 41, elapsed: 0.0004818439483642578
ell 40, elapsed: 0.0005528926849365234
ell 39, elapsed: 0.0007100105285644531
ell 38, elapsed: 0.0005750656127929688
ell 37, elapsed: 0.00047087669372558594
ell 36, elapsed: 0.0005578994750976562
ell 35, elapsed: 0.0004730224609375
ell 34, elapsed: 0.0005559921264648438
ell 33, elapsed: 0.00047206878662109375
ell 32, elapsed: 0.0007050037384033203
ell 31, elapsed: 0.0004818439483642578
ell 30, elapsed: 0.0005519390106201172
ell 29, elapsed: 0.0004749298095703125
ell 28, elapsed: 0.0005609989166259766
ell 27, elapsed: 0.00047397613525390625
ell 26, elapsed: 0.0005528926849365234
ell 25, elapsed: 0.0006299018859863281
ell 24, elapsed: 0.0005629062652587891
ell 23, elapsed: 0.00047898292541503906
ell 22, elapsed: 0.0005540847778320312
ell 21, elapsed: 0.0004830360412597656
ell 20, elapsed: 0.00055694580078125
ell 19, elapsed: 0.0005919933319091797
ell 18, elapsed: 0.0006110668182373047
ell 17, elapsed: 0.0004820823669433594
ell 16, elapsed: 0.0005660057067871094
ell 15, elapsed: 0.0004799365997314453
ell 14, elapsed: 0.0005600452423095703
ell 13, elapsed: 0.0004839897155761719
ell 12, elapsed: 0.0007510185241699219
ell 11, elapsed: 0.00047516822814941406
ell 10, elapsed: 0.0005581378936767578
ell 9, elapsed: 0.0004799365997314453
ell 8, elapsed: 0.0005540847778320312
ell 7, elapsed: 0.0004749298095703125
ell 6, elapsed: 0.0005621910095214844
ell 5, elapsed: 0.0006010532379150391
ell 4, elapsed: 0.0005691051483154297
ell 3, elapsed: 0.0004899501800537109
ell 2, elapsed: 0.0005691051483154297
ell 1, elapsed: 0.00047707557678222656
ell 0, elapsed: 0.0005490779876708984
  2.807906 seconds (1.51 M allocations: 74.523 MiB, 1.51% gc time)
elapsed: 0.0007388591766357422
step:          0.785662 sec (478.14 k allocations: 23.742 MB, 0.0% gc time)
swapping:      0.000578 sec (0 allocations: 0 byte, 0.0% gc time)
calc_Mellell!: 0.575848 sec (371.693 k allocations: 18.416 MB, 0.0% gc time)
  t0 :  0.0 sec (0 allocations: 0 byte, 0.0% gc time)
  tm2 : 0.0 sec (0 allocations: 0 byte, 0.0% gc time)
  tm2s: 0.0 sec (0 allocations: 0 byte, 0.0% gc time)
  tm4 : 0.0 sec (0 allocations: 0 byte, 0.0% gc time)
  tp2 : 0.0 sec (0 allocations: 0 byte, 0.0% gc time)
  tp2s: 0.0 sec (0 allocations: 0 byte, 0.0% gc time)
  tp4 : 0.0 sec (0 allocations: 0 byte, 0.0% gc time)
calc_wtdll!:   1.293253 sec (571.77 k allocations: 28.059 MB, 3.27% gc time)
calc_wljj!:    0.003849 sec (6 allocations: 96 byte, 0.0% gc time)
mult_prefac!:  0.0 sec (0 allocations: 0 byte, 0.0% gc time)
convert:       0.0 sec (0 allocations: 0 byte, 0.0% gc time)
write:         0.005493 sec (0 allocations: 0 byte, 0.0% gc time)
test_rand_2f1: 0.0 sec (0 allocations: 0 byte, 0.0% gc time)
Closing outfile out/Ml21-cache.bin...   0.000116 seconds
  1.187851 seconds (8.63 k allocations: 420.063 KiB)
make_phi():   0.013278 seconds (8.20 k allocations: 238.016 KiB)
  0.227156 seconds (121.94 k allocations: 5.917 MiB)
tskip:       2.1e-5 sec (0 allocations: 0 byte, 0.0% gc time)
tread:       0.002486 sec (20 allocations: 2.188 KB, 0.0% gc time)
tmultphi:    0.054787 sec (26.146 k allocations: 1.344 MB, 0.0% gc time)
tbrfft:      0.004271 sec (896 allocations: 42.0 KB, 0.0% gc time)
tmultprefac: 0.003813 sec (0 allocations: 0 byte, 0.0% gc time)
toutfunc:    0.161679 sec (94.224 k allocations: 4.46 MB, 0.0% gc time)
Testing R=1.1 ... passed
Calculating fmax: 
  dlrec    = 4
  dlrecRg1 = -4
  q=1.1, R=1.0:	  0.059347 seconds (4.81 k allocations: 3.569 MiB, 67.64% gc time)

  0.059600 seconds (4.88 k allocations: 3.602 MiB, 67.35% gc time)
ℓ = 1202
Δℓ = 4
ΔℓRg1 = -4
N = 1600
q = 1.1
kmin = 1.0e-5
kmax = 100000.00000000004
χ0 = 0.023029999999999995
RR = RR.tsv
ℓmax = ℓmax.bin
f21 = f21.bin
kmin = 1.0e-5
kmax = 100000.0
dlrec    = 4
dlrecRg1 = -4
Output size: 61465536 bytes = 0.05724424123764038 GiB
Output size: 51264 bytes = 4.774332046508789e-5 GiB
Reading 'out/F21EllCache'...   0.001130 seconds (271 allocations: 84.719 KiB)
ellmax: 1202
lmaxcache: 1202
fell[:,1,1] = Complex{Float64}[809.6031528389767 - 1.9829558194077161e-13im, 0.0 + 0.0im]
ell 1202, elapsed: 2.3126602172851562e-5
ell 1201, elapsed: 0.015297889709472656
ell 1200, elapsed: 0.0006539821624755859
ell 1199, elapsed: 0.0005791187286376953
ell 1198, elapsed: 0.0005578994750976562
ell 1197, elapsed: 0.00061798095703125
ell 1196, elapsed: 0.0006442070007324219
ell 1195, elapsed: 0.0007970333099365234
ell 1194, elapsed: 0.00045299530029296875
ell 1193, elapsed: 0.00048804283142089844
ell 1192, elapsed: 0.00039315223693847656
ell 1191, elapsed: 0.0005030632019042969
ell 1190, elapsed: 0.0006768703460693359
ell 1189, elapsed: 0.0009050369262695312
ell 1188, elapsed: 0.0006530284881591797
ell 1187, elapsed: 0.0008349418640136719
ell 1186, elapsed: 0.00046515464782714844
ell 1185, elapsed: 0.0005412101745605469
ell 1184, elapsed: 0.0004520416259765625
ell 1183, elapsed: 0.0008130073547363281
ell 1182, elapsed: 0.0006439685821533203
ell 1181, elapsed: 0.0007479190826416016
ell 1180, elapsed: 0.00045299530029296875
ell 1179, elapsed: 0.0005409717559814453
ell 1178, elapsed: 0.0005431175231933594
ell 1177, elapsed: 0.0007760524749755859
ell 1176, elapsed: 0.0006380081176757812
ell 1175, elapsed: 0.0006709098815917969
ell 1174, elapsed: 0.00045108795166015625
ell 1173, elapsed: 0.0005359649658203125
ell 1172, elapsed: 0.0005669593811035156
ell 1171, elapsed: 0.0008268356323242188
ell 1170, elapsed: 0.0006520748138427734
ell 1169, elapsed: 0.0006611347198486328
ell 1168, elapsed: 0.00045108795166015625
ell 1167, elapsed: 0.0005350112915039062
ell 1166, elapsed: 0.0005888938903808594
ell 1165, elapsed: 0.0007519721984863281
ell 1164, elapsed: 0.0006530284881591797
ell 1163, elapsed: 0.0006170272827148438
ell 1162, elapsed: 0.00045108795166015625
ell 1161, elapsed: 0.0005450248718261719
ell 1160, elapsed: 0.0006508827209472656
ell 1159, elapsed: 0.0006909370422363281
ell 1158, elapsed: 0.0006990432739257812
ell 1157, elapsed: 0.0005741119384765625
ell 1156, elapsed: 0.000453948974609375
ell 1155, elapsed: 0.0006339550018310547
ell 1154, elapsed: 0.0006048679351806641
ell 1153, elapsed: 0.000759124755859375
ell 1152, elapsed: 0.0006010532379150391
ell 1151, elapsed: 0.0005559921264648438
ell 1150, elapsed: 0.00044989585876464844
ell 1149, elapsed: 0.0006418228149414062
ell 1148, elapsed: 0.0006520748138427734
ell 1147, elapsed: 0.0007288455963134766
ell 1146, elapsed: 0.0005750656127929688
ell 1145, elapsed: 0.0005512237548828125
ell 1144, elapsed: 0.0004520416259765625
ell 1143, elapsed: 0.0006241798400878906
ell 1142, elapsed: 0.0006921291351318359
ell 1141, elapsed: 0.000782012939453125
ell 1140, elapsed: 0.0005428791046142578
ell 1139, elapsed: 0.0005459785461425781
ell 1138, elapsed: 0.00044989585876464844
ell 1137, elapsed: 0.0006639957427978516
ell 1136, elapsed: 0.0004699230194091797
ell 1135, elapsed: 0.0006728172302246094
ell 1134, elapsed: 0.0005810260772705078
ell 1133, elapsed: 0.0005538463592529297
ell 1132, elapsed: 0.00045108795166015625
ell 1131, elapsed: 0.0006320476531982422
ell 1130, elapsed: 0.0006680488586425781
ell 1129, elapsed: 0.0007319450378417969
ell 1128, elapsed: 0.0005559921264648438
ell 1127, elapsed: 0.0005459785461425781
ell 1126, elapsed: 0.0004520416259765625
ell 1125, elapsed: 0.0006468296051025391
ell 1124, elapsed: 0.0007131099700927734
ell 1123, elapsed: 0.0008180141448974609
ell 1122, elapsed: 0.0004589557647705078
ell 1121, elapsed: 0.0005550384521484375
ell 1120, elapsed: 0.0004489421844482422
ell 1119, elapsed: 0.0006868839263916016
ell 1118, elapsed: 0.0006380081176757812
ell 1117, elapsed: 0.0008502006530761719
ell 1116, elapsed: 0.0004658699035644531
ell 1115, elapsed: 0.0005409717559814453
ell 1114, elapsed: 0.00045108795166015625
ell 1113, elapsed: 0.0007238388061523438
ell 1112, elapsed: 0.0006058216094970703
ell 1111, elapsed: 0.0005500316619873047
ell 1110, elapsed: 0.0004470348358154297
ell 1109, elapsed: 0.0005369186401367188
ell 1108, elapsed: 0.00045013427734375
ell 1107, elapsed: 0.0006389617919921875
ell 1106, elapsed: 0.0006580352783203125
ell 1105, elapsed: 0.0006580352783203125
ell 1104, elapsed: 0.0005970001220703125
ell 1103, elapsed: 0.0006608963012695312
ell 1102, elapsed: 0.0004489421844482422
ell 1101, elapsed: 0.0007781982421875
ell 1100, elapsed: 0.0006570816040039062
ell 1099, elapsed: 0.0005631446838378906
ell 1098, elapsed: 0.0004508495330810547
ell 1097, elapsed: 0.0005369186401367188
ell 1096, elapsed: 0.0004520416259765625
ell 1095, elapsed: 0.0006299018859863281
ell 1094, elapsed: 0.0007200241088867188
ell 1093, elapsed: 0.0007469654083251953
ell 1092, elapsed: 0.0005490779876708984
ell 1091, elapsed: 0.0005490779876708984
ell 1090, elapsed: 0.0004520416259765625
ell 1089, elapsed: 0.0006620883941650391
ell 1088, elapsed: 0.000476837158203125
ell 1087, elapsed: 0.0008149147033691406
ell 1086, elapsed: 0.000476837158203125
ell 1085, elapsed: 0.0005478858947753906
ell 1084, elapsed: 0.00045299530029296875
ell 1083, elapsed: 0.0005540847778320312
ell 1082, elapsed: 0.0007240772247314453
ell 1081, elapsed: 0.0005700588226318359
ell 1080, elapsed: 0.00045609474182128906
ell 1079, elapsed: 0.0005438327789306641
ell 1078, elapsed: 0.00045299530029296875
ell 1077, elapsed: 0.0005600452423095703
ell 1076, elapsed: 0.0004558563232421875
ell 1075, elapsed: 0.0005400180816650391
ell 1074, elapsed: 0.0006918907165527344
ell 1073, elapsed: 0.0006470680236816406
ell 1072, elapsed: 0.00045418739318847656
ell 1071, elapsed: 0.0005548000335693359
ell 1070, elapsed: 0.000453948974609375
ell 1069, elapsed: 0.0005440711975097656
ell 1068, elapsed: 0.000453948974609375
ell 1067, elapsed: 0.0005381107330322266
ell 1066, elapsed: 0.0004570484161376953
ell 1065, elapsed: 0.0005390644073486328
ell 1064, elapsed: 0.0004639625549316406
ell 1063, elapsed: 0.0005412101745605469
ell 1062, elapsed: 0.0004520416259765625
ell 1061, elapsed: 0.0005419254302978516
ell 1060, elapsed: 0.0004520416259765625
ell 1059, elapsed: 0.0005409717559814453
ell 1058, elapsed: 0.0004551410675048828
ell 1057, elapsed: 0.0005998611450195312
ell 1056, elapsed: 0.0004570484161376953
ell 1055, elapsed: 0.0005500316619873047
ell 1054, elapsed: 0.00045800209045410156
ell 1053, elapsed: 0.0005409717559814453
ell 1052, elapsed: 0.00045299530029296875
ell 1051, elapsed: 0.0005400180816650391
ell 1050, elapsed: 0.0004930496215820312
ell 1049, elapsed: 0.0005490779876708984
ell 1048, elapsed: 0.00045609474182128906
ell 1047, elapsed: 0.0005428791046142578
ell 1046, elapsed: 0.00045800209045410156
ell 1045, elapsed: 0.0005459785461425781
ell 1044, elapsed: 0.0004558563232421875
ell 1043, elapsed: 0.0005538463592529297
ell 1042, elapsed: 0.00045299530029296875
ell 1041, elapsed: 0.0005350112915039062
ell 1040, elapsed: 0.00045490264892578125
ell 1039, elapsed: 0.0005390644073486328
ell 1038, elapsed: 0.000453948974609375
ell 1037, elapsed: 0.0005431175231933594
ell 1036, elapsed: 0.0004620552062988281
ell 1035, elapsed: 0.0005431175231933594
ell 1034, elapsed: 0.0004520416259765625
ell 1033, elapsed: 0.0005409717559814453
ell 1032, elapsed: 0.0004520416259765625
ell 1031, elapsed: 0.0005340576171875
ell 1030, elapsed: 0.00045680999755859375
ell 1029, elapsed: 0.0007910728454589844
ell 1028, elapsed: 0.0004439353942871094
ell 1027, elapsed: 0.0004971027374267578
ell 1026, elapsed: 0.00041294097900390625
ell 1025, elapsed: 0.000492095947265625
ell 1024, elapsed: 0.00041103363037109375
ell 1023, elapsed: 0.0005109310150146484
ell 1022, elapsed: 0.0006399154663085938
ell 1021, elapsed: 0.0006680488586425781
ell 1020, elapsed: 0.00041413307189941406
ell 1019, elapsed: 0.0004990100860595703
ell 1018, elapsed: 0.0004119873046875
ell 1017, elapsed: 0.0004909038543701172
ell 1016, elapsed: 0.0005009174346923828
ell 1015, elapsed: 0.0006821155548095703
ell 1014, elapsed: 0.00040912628173828125
ell 1013, elapsed: 0.0004899501800537109
ell 1012, elapsed: 0.00040793418884277344
ell 1011, elapsed: 0.00048089027404785156
ell 1010, elapsed: 0.0004069805145263672
ell 1009, elapsed: 0.0005671977996826172
ell 1008, elapsed: 0.0005958080291748047
ell 1007, elapsed: 0.0007009506225585938
ell 1006, elapsed: 0.0004181861877441406
ell 1005, elapsed: 0.0004901885986328125
ell 1004, elapsed: 0.00040912628173828125
ell 1003, elapsed: 0.0004851818084716797
ell 1002, elapsed: 0.0006191730499267578
ell 1001, elapsed: 0.0006971359252929688
ell 1000, elapsed: 0.0004189014434814453
ell 999, elapsed: 0.0004918575286865234
ell 998, elapsed: 0.0004000663757324219
ell 997, elapsed: 0.0005021095275878906
ell 996, elapsed: 0.00040793418884277344
ell 995, elapsed: 0.0006749629974365234
ell 994, elapsed: 0.0006527900695800781
ell 993, elapsed: 0.000637054443359375
ell 992, elapsed: 0.0004088878631591797
ell 991, elapsed: 0.00049591064453125
ell 990, elapsed: 0.00040793418884277344
ell 989, elapsed: 0.0004830360412597656
ell 988, elapsed: 0.0007870197296142578
ell 987, elapsed: 0.0005609989166259766
ell 986, elapsed: 0.0004119873046875
ell 985, elapsed: 0.00049591064453125
ell 984, elapsed: 0.0004100799560546875
ell 983, elapsed: 0.0004899501800537109
ell 982, elapsed: 0.00041484832763671875
ell 981, elapsed: 0.0007698535919189453
ell 980, elapsed: 0.0006029605865478516
ell 979, elapsed: 0.0004990100860595703
ell 978, elapsed: 0.0004088878631591797
ell 977, elapsed: 0.0004951953887939453
ell 976, elapsed: 0.00041103363037109375
ell 975, elapsed: 0.0007619857788085938
ell 974, elapsed: 0.0005640983581542969
ell 973, elapsed: 0.0005030632019042969
ell 972, elapsed: 0.00040793418884277344
ell 971, elapsed: 0.0004889965057373047
ell 970, elapsed: 0.0004100799560546875
ell 969, elapsed: 0.0004851818084716797
ell 968, elapsed: 0.0005881786346435547
ell 967, elapsed: 0.0007879734039306641
ell 966, elapsed: 0.0004858970642089844
ell 965, elapsed: 0.0004930496215820312
ell 964, elapsed: 0.00040793418884277344
ell 963, elapsed: 0.0004918575286865234
ell 962, elapsed: 0.0004069805145263672
ell 961, elapsed: 0.0009419918060302734
ell 960, elapsed: 0.0004248619079589844
ell 959, elapsed: 0.0004849433898925781
ell 958, elapsed: 0.00040793418884277344
ell 957, elapsed: 0.00048804283142089844
ell 956, elapsed: 0.00040793418884277344
ell 955, elapsed: 0.0005688667297363281
ell 954, elapsed: 0.0006470680236816406
ell 953, elapsed: 0.0006930828094482422
ell 952, elapsed: 0.00040912628173828125
ell 951, elapsed: 0.00048613548278808594
ell 950, elapsed: 0.00040984153747558594
ell 949, elapsed: 0.0004830360412597656
ell 948, elapsed: 0.0005509853363037109
ell 947, elapsed: 0.000782012939453125
ell 946, elapsed: 0.0004169940948486328
ell 945, elapsed: 0.0004899501800537109
ell 944, elapsed: 0.00040793418884277344
ell 943, elapsed: 0.0004849433898925781
ell 942, elapsed: 0.0004119873046875
ell 941, elapsed: 0.0005900859832763672
ell 940, elapsed: 0.000637054443359375
ell 939, elapsed: 0.0006930828094482422
ell 938, elapsed: 0.00041222572326660156
ell 937, elapsed: 0.0004849433898925781
ell 936, elapsed: 0.00040984153747558594
ell 935, elapsed: 0.00048804283142089844
ell 934, elapsed: 0.0006489753723144531
ell 933, elapsed: 0.0006480216979980469
ell 932, elapsed: 0.0004100799560546875
ell 931, elapsed: 0.0004909038543701172
ell 930, elapsed: 0.00040793418884277344
ell 929, elapsed: 0.0004858970642089844
ell 928, elapsed: 0.00041103363037109375
ell 927, elapsed: 0.0007178783416748047
ell 926, elapsed: 0.0006611347198486328
ell 925, elapsed: 0.0005679130554199219
ell 924, elapsed: 0.0004088878631591797
ell 923, elapsed: 0.0004949569702148438
ell 922, elapsed: 0.00040984153747558594
ell 921, elapsed: 0.0006051063537597656
ell 920, elapsed: 0.0006730556488037109
ell 919, elapsed: 0.0005190372467041016
ell 918, elapsed: 0.00040912628173828125
ell 917, elapsed: 0.0004820823669433594
ell 916, elapsed: 0.00040793418884277344
ell 915, elapsed: 0.0004911422729492188
ell 914, elapsed: 0.00041103363037109375
ell 913, elapsed: 0.0007729530334472656
ell 912, elapsed: 0.0006029605865478516
ell 911, elapsed: 0.0005037784576416016
ell 910, elapsed: 0.00040912628173828125
ell 909, elapsed: 0.0004949569702148438
ell 908, elapsed: 0.0004119873046875
ell 907, elapsed: 0.0005941390991210938
ell 906, elapsed: 0.0004119873046875
ell 905, elapsed: 0.0004911422729492188
ell 904, elapsed: 0.00040984153747558594
ell 903, elapsed: 0.000492095947265625
ell 902, elapsed: 0.0004100799560546875
ell 901, elapsed: 0.0004889965057373047
ell 900, elapsed: 0.00040984153747558594
ell 899, elapsed: 0.0008640289306640625
ell 898, elapsed: 0.0006690025329589844
ell 897, elapsed: 0.0005490779876708984
ell 896, elapsed: 0.00040793418884277344
ell 895, elapsed: 0.000492095947265625
ell 894, elapsed: 0.0004057884216308594
ell 893, elapsed: 0.0007519721984863281
ell 892, elapsed: 0.0005841255187988281
ell 891, elapsed: 0.0004930496215820312
ell 890, elapsed: 0.0004088878631591797
ell 889, elapsed: 0.0004930496215820312
ell 888, elapsed: 0.0004100799560546875
ell 887, elapsed: 0.0004858970642089844
ell 886, elapsed: 0.0007159709930419922
ell 885, elapsed: 0.0007917881011962891
ell 884, elapsed: 0.00042510032653808594
ell 883, elapsed: 0.0004971027374267578
ell 882, elapsed: 0.00040912628173828125
ell 881, elapsed: 0.0004870891571044922
ell 880, elapsed: 0.0005199909210205078
ell 879, elapsed: 0.0007951259613037109
ell 878, elapsed: 0.0004210472106933594
ell 877, elapsed: 0.0004870891571044922
ell 876, elapsed: 0.00040912628173828125
ell 875, elapsed: 0.0004839897155761719
ell 874, elapsed: 0.00041103363037109375
ell 873, elapsed: 0.0005860328674316406
ell 872, elapsed: 0.0006251335144042969
ell 871, elapsed: 0.0007040500640869141
ell 870, elapsed: 0.0004169940948486328
ell 869, elapsed: 0.00049591064453125
ell 868, elapsed: 0.00040984153747558594
ell 867, elapsed: 0.00048804283142089844
ell 866, elapsed: 0.0006291866302490234
ell 865, elapsed: 0.0006608963012695312
ell 864, elapsed: 0.0004138946533203125
ell 863, elapsed: 0.0004990100860595703
ell 862, elapsed: 0.00041413307189941406
ell 861, elapsed: 0.0004980564117431641
ell 860, elapsed: 0.0004138946533203125
ell 859, elapsed: 0.0005130767822265625
ell 858, elapsed: 0.00039887428283691406
ell 857, elapsed: 0.0004980564117431641
ell 856, elapsed: 0.00041484832763671875
ell 855, elapsed: 0.0004930496215820312
ell 854, elapsed: 0.0004131793975830078
ell 853, elapsed: 0.0004990100860595703
ell 852, elapsed: 0.00041294097900390625
ell 851, elapsed: 0.0005068778991699219
ell 850, elapsed: 0.0004100799560546875
ell 849, elapsed: 0.000492095947265625
ell 848, elapsed: 0.0004107952117919922
ell 847, elapsed: 0.0004901885986328125
ell 846, elapsed: 0.0004119873046875
ell 845, elapsed: 0.000492095947265625
ell 844, elapsed: 0.00045990943908691406
ell 843, elapsed: 0.0006818771362304688
ell 842, elapsed: 0.0006101131439208984
ell 841, elapsed: 0.0005030632019042969
ell 840, elapsed: 0.00041103363037109375
ell 839, elapsed: 0.00048804283142089844
ell 838, elapsed: 0.00041103363037109375
ell 837, elapsed: 0.0006380081176757812
ell 836, elapsed: 0.0005700588226318359
ell 835, elapsed: 0.0005009174346923828
ell 834, elapsed: 0.00040602684020996094
ell 833, elapsed: 0.0004830360412597656
ell 832, elapsed: 0.00040602684020996094
ell 831, elapsed: 0.0004858970642089844
ell 830, elapsed: 0.00042510032653808594
ell 829, elapsed: 0.0007741451263427734
ell 828, elapsed: 0.0005199909210205078
ell 827, elapsed: 0.0004780292510986328
ell 826, elapsed: 0.00039005279541015625
ell 825, elapsed: 0.0004508495330810547
ell 824, elapsed: 0.0003771781921386719
ell 823, elapsed: 0.00047087669372558594
ell 822, elapsed: 0.00037384033203125
ell 821, elapsed: 0.0004661083221435547
ell 820, elapsed: 0.0004150867462158203
ell 819, elapsed: 0.0004930496215820312
ell 818, elapsed: 0.0003941059112548828
ell 817, elapsed: 0.00047206878662109375
ell 816, elapsed: 0.00039315223693847656
ell 815, elapsed: 0.0009300708770751953
ell 814, elapsed: 0.0005049705505371094
ell 813, elapsed: 0.0006270408630371094
ell 812, elapsed: 0.0009229183197021484
ell 811, elapsed: 0.0008471012115478516
ell 810, elapsed: 0.0009360313415527344
ell 809, elapsed: 0.00086212158203125
ell 808, elapsed: 0.0006690025329589844
ell 807, elapsed: 0.0007359981536865234
ell 806, elapsed: 0.0006549358367919922
ell 805, elapsed: 0.0010340213775634766
ell 804, elapsed: 0.0006549358367919922
ell 803, elapsed: 0.0008351802825927734
ell 802, elapsed: 0.0006861686706542969
ell 801, elapsed: 0.0008218288421630859
ell 800, elapsed: 0.0007498264312744141
ell 799, elapsed: 0.0006279945373535156
ell 798, elapsed: 0.00041103363037109375
ell 797, elapsed: 0.0006539821624755859
ell 796, elapsed: 0.0005590915679931641
ell 795, elapsed: 0.0006678104400634766
ell 794, elapsed: 0.0005559921264648438
ell 793, elapsed: 0.0006730556488037109
ell 792, elapsed: 0.0007669925689697266
ell 791, elapsed: 0.0010349750518798828
ell 790, elapsed: 0.0007119178771972656
ell 789, elapsed: 0.0005748271942138672
ell 788, elapsed: 0.0004208087921142578
ell 787, elapsed: 0.0006041526794433594
ell 786, elapsed: 0.0004100799560546875
ell 785, elapsed: 0.0004990100860595703
ell 784, elapsed: 0.00040984153747558594
ell 783, elapsed: 0.0004849433898925781
ell 782, elapsed: 0.0004048347473144531
ell 781, elapsed: 0.0004999637603759766
ell 780, elapsed: 0.0005230903625488281
ell 779, elapsed: 0.0007770061492919922
ell 778, elapsed: 0.0004191398620605469
ell 777, elapsed: 0.00049591064453125
ell 776, elapsed: 0.0004100799560546875
ell 775, elapsed: 0.0004971027374267578
ell 774, elapsed: 0.0004088878631591797
ell 773, elapsed: 0.0005869865417480469
ell 772, elapsed: 0.00041103363037109375
ell 771, elapsed: 0.0004980564117431641
ell 770, elapsed: 0.00040912628173828125
ell 769, elapsed: 0.0004971027374267578
ell 768, elapsed: 0.00040912628173828125
ell 767, elapsed: 0.0005011558532714844
ell 766, elapsed: 0.0004119873046875
ell 765, elapsed: 0.0005819797515869141
ell 764, elapsed: 0.0004100799560546875
ell 763, elapsed: 0.0004999637603759766
ell 762, elapsed: 0.00041413307189941406
ell 761, elapsed: 0.0004980564117431641
ell 760, elapsed: 0.0004119873046875
ell 759, elapsed: 0.0005130767822265625
ell 758, elapsed: 0.0004858970642089844
ell 757, elapsed: 0.0005071163177490234
ell 756, elapsed: 0.00040793418884277344
ell 755, elapsed: 0.0004940032958984375
ell 754, elapsed: 0.00040912628173828125
ell 753, elapsed: 0.0004918575286865234
ell 752, elapsed: 0.0004100799560546875
ell 751, elapsed: 0.0004911422729492188
ell 750, elapsed: 0.0004849433898925781
ell 749, elapsed: 0.0004961490631103516
ell 748, elapsed: 0.0004107952117919922
ell 747, elapsed: 0.0004940032958984375
ell 746, elapsed: 0.00041294097900390625
ell 745, elapsed: 0.0005018711090087891
ell 744, elapsed: 0.00041103363037109375
ell 743, elapsed: 0.0005729198455810547
ell 742, elapsed: 0.0004100799560546875
ell 741, elapsed: 0.0004889965057373047
ell 740, elapsed: 0.0004088878631591797
ell 739, elapsed: 0.0004930496215820312
ell 738, elapsed: 0.00041294097900390625
ell 737, elapsed: 0.0004980564117431641
ell 736, elapsed: 0.0004119873046875
ell 735, elapsed: 0.000579833984375
ell 734, elapsed: 0.00041103363037109375
ell 733, elapsed: 0.00049591064453125
ell 732, elapsed: 0.00040984153747558594
ell 731, elapsed: 0.0004961490631103516
ell 730, elapsed: 0.0004119873046875
ell 729, elapsed: 0.0004951953887939453
ell 728, elapsed: 0.00041103363037109375
ell 727, elapsed: 0.000576019287109375
ell 726, elapsed: 0.0004119873046875
ell 725, elapsed: 0.0005071163177490234
ell 724, elapsed: 0.0004107952117919922
ell 723, elapsed: 0.0004968643188476562
ell 722, elapsed: 0.00041484832763671875
ell 721, elapsed: 0.0005049705505371094
ell 720, elapsed: 0.00047397613525390625
ell 719, elapsed: 0.0004909038543701172
ell 718, elapsed: 0.0004069805145263672
ell 717, elapsed: 0.0004870891571044922
ell 716, elapsed: 0.0004119873046875
ell 715, elapsed: 0.0004999637603759766
ell 714, elapsed: 0.0004119873046875
ell 713, elapsed: 0.0004951953887939453
ell 712, elapsed: 0.0004899501800537109
ell 711, elapsed: 0.0004978179931640625
ell 710, elapsed: 0.00040721893310546875
ell 709, elapsed: 0.000492095947265625
ell 708, elapsed: 0.0004119873046875
ell 707, elapsed: 0.0004980564117431641
ell 706, elapsed: 0.0004088878631591797
ell 705, elapsed: 0.0005559921264648438
ell 704, elapsed: 0.00028586387634277344
ell 703, elapsed: 0.0003349781036376953
ell 702, elapsed: 0.00026297569274902344
ell 701, elapsed: 0.0003230571746826172
ell 700, elapsed: 0.0002639293670654297
ell 699, elapsed: 0.00032591819763183594
ell 698, elapsed: 0.0003008842468261719
ell 697, elapsed: 0.0003540515899658203
ell 696, elapsed: 0.0002779960632324219
ell 695, elapsed: 0.0003368854522705078
ell 694, elapsed: 0.0003249645233154297
ell 693, elapsed: 0.00034499168395996094
ell 692, elapsed: 0.00028514862060546875
ell 691, elapsed: 0.0003421306610107422
ell 690, elapsed: 0.0002758502960205078
ell 689, elapsed: 0.0003421306610107422
ell 688, elapsed: 0.0002770423889160156
ell 687, elapsed: 0.00033783912658691406
ell 686, elapsed: 0.0002779960632324219
ell 685, elapsed: 0.00034117698669433594
ell 684, elapsed: 0.0004558563232421875
ell 683, elapsed: 0.0008380413055419922
ell 682, elapsed: 0.0006170272827148438
ell 681, elapsed: 0.0005190372467041016
ell 680, elapsed: 0.0004239082336425781
ell 679, elapsed: 0.0005159378051757812
ell 678, elapsed: 0.0004360675811767578
ell 677, elapsed: 0.0007472038269042969
ell 676, elapsed: 0.0007069110870361328
ell 675, elapsed: 0.0005578994750976562
ell 674, elapsed: 0.0004241466522216797
ell 673, elapsed: 0.0005161762237548828
ell 672, elapsed: 0.0004448890686035156
ell 671, elapsed: 0.0005159378051757812
ell 670, elapsed: 0.0004100799560546875
ell 669, elapsed: 0.0004930496215820312
ell 668, elapsed: 0.00040602684020996094
ell 667, elapsed: 0.0004849433898925781
ell 666, elapsed: 0.00040793418884277344
ell 665, elapsed: 0.0004949569702148438
ell 664, elapsed: 0.0004191398620605469
ell 663, elapsed: 0.0005068778991699219
ell 662, elapsed: 0.00040912628173828125
ell 661, elapsed: 0.0004930496215820312
ell 660, elapsed: 0.0004088878631591797
ell 659, elapsed: 0.0004930496215820312
ell 658, elapsed: 0.0004100799560546875
ell 657, elapsed: 0.0005521774291992188
ell 656, elapsed: 0.000415802001953125
ell 655, elapsed: 0.0004990100860595703
ell 654, elapsed: 0.00040602684020996094
ell 653, elapsed: 0.0004909038543701172
ell 652, elapsed: 0.0004138946533203125
ell 651, elapsed: 0.0004980564117431641
ell 650, elapsed: 0.00040721893310546875
ell 649, elapsed: 0.0005729198455810547
ell 648, elapsed: 0.00040793418884277344
ell 647, elapsed: 0.0004928112030029297
ell 646, elapsed: 0.0004088878631591797
ell 645, elapsed: 0.0004858970642089844
ell 644, elapsed: 0.0004100799560546875
ell 643, elapsed: 0.0004990100860595703
ell 642, elapsed: 0.000408172607421875
ell 641, elapsed: 0.0005071163177490234
ell 640, elapsed: 0.00041103363037109375
ell 639, elapsed: 0.0004990100860595703
ell 638, elapsed: 0.0004088878631591797
ell 637, elapsed: 0.0004909038543701172
ell 636, elapsed: 0.0004048347473144531
ell 635, elapsed: 0.0004858970642089844
ell 634, elapsed: 0.0005209445953369141
ell 633, elapsed: 0.0008001327514648438
ell 632, elapsed: 0.0004999637603759766
ell 631, elapsed: 0.0004930496215820312
ell 630, elapsed: 0.0004050731658935547
ell 629, elapsed: 0.0004889965057373047
ell 628, elapsed: 0.0004069805145263672
ell 627, elapsed: 0.0007021427154541016
ell 626, elapsed: 0.0006480216979980469
ell 625, elapsed: 0.0006799697875976562
ell 624, elapsed: 0.000408172607421875
ell 623, elapsed: 0.00048804283142089844
ell 622, elapsed: 0.00040602684020996094
ell 621, elapsed: 0.0005691051483154297
ell 620, elapsed: 0.0005629062652587891
ell 619, elapsed: 0.0006551742553710938
ell 618, elapsed: 0.00040793418884277344
ell 617, elapsed: 0.0004870891571044922
ell 616, elapsed: 0.0004069805145263672
ell 615, elapsed: 0.0004858970642089844
ell 614, elapsed: 0.0004899501800537109
ell 613, elapsed: 0.0005090236663818359
ell 612, elapsed: 0.0004088878631591797
ell 611, elapsed: 0.0004940032958984375
ell 610, elapsed: 0.00040602684020996094
ell 609, elapsed: 0.0004940032958984375
ell 608, elapsed: 0.00040793418884277344
ell 607, elapsed: 0.0004940032958984375
ell 606, elapsed: 0.000637054443359375
ell 605, elapsed: 0.0007979869842529297
ell 604, elapsed: 0.0004181861877441406
ell 603, elapsed: 0.000492095947265625
ell 602, elapsed: 0.0004069805145263672
ell 601, elapsed: 0.0004918575286865234
ell 600, elapsed: 0.0006449222564697266
ell 599, elapsed: 0.0005152225494384766
ell 598, elapsed: 0.0004100799560546875
ell 597, elapsed: 0.0004949569702148438
ell 596, elapsed: 0.00040793418884277344
ell 595, elapsed: 0.0004909038543701172
ell 594, elapsed: 0.00040793418884277344
ell 593, elapsed: 0.0004899501800537109
ell 592, elapsed: 0.0007560253143310547
ell 591, elapsed: 0.0006971359252929688
ell 590, elapsed: 0.0004169940948486328
ell 589, elapsed: 0.00048804283142089844
ell 588, elapsed: 0.00040602684020996094
ell 587, elapsed: 0.0004878044128417969
ell 586, elapsed: 0.0005578994750976562
ell 585, elapsed: 0.0004909038543701172
ell 584, elapsed: 0.0004069805145263672
ell 583, elapsed: 0.0004878044128417969
ell 582, elapsed: 0.0004048347473144531
ell 581, elapsed: 0.0004830360412597656
ell 580, elapsed: 0.0004069805145263672
ell 579, elapsed: 0.0004990100860595703
ell 578, elapsed: 0.0006349086761474609
ell 577, elapsed: 0.0008320808410644531
ell 576, elapsed: 0.0005650520324707031
ell 575, elapsed: 0.0005011558532714844
ell 574, elapsed: 0.00040602684020996094
ell 573, elapsed: 0.0004868507385253906
ell 572, elapsed: 0.00048804283142089844
ell 571, elapsed: 0.0005049705505371094
ell 570, elapsed: 0.0004069805145263672
ell 569, elapsed: 0.0004889965057373047
ell 568, elapsed: 0.0004057884216308594
ell 567, elapsed: 0.000492095947265625
ell 566, elapsed: 0.00040793418884277344
ell 565, elapsed: 0.0004949569702148438
ell 564, elapsed: 0.0006117820739746094
ell 563, elapsed: 0.0008380413055419922
ell 562, elapsed: 0.0004858970642089844
ell 561, elapsed: 0.0004928112030029297
ell 560, elapsed: 0.0004069805145263672
ell 559, elapsed: 0.0004878044128417969
ell 558, elapsed: 0.0004899501800537109
ell 557, elapsed: 0.0005109310150146484
ell 556, elapsed: 0.0004088878631591797
ell 555, elapsed: 0.0004990100860595703
ell 554, elapsed: 0.0004069805145263672
ell 553, elapsed: 0.00048804283142089844
ell 552, elapsed: 0.00040793418884277344
ell 551, elapsed: 0.0004951953887939453
ell 550, elapsed: 0.0004930496215820312
ell 549, elapsed: 0.0004999637603759766
ell 548, elapsed: 0.00041222572326660156
ell 547, elapsed: 0.0004961490631103516
ell 546, elapsed: 0.00040602684020996094
ell 545, elapsed: 0.0004901885986328125
ell 544, elapsed: 0.00040721893310546875
ell 543, elapsed: 0.0005669593811035156
ell 542, elapsed: 0.00041604042053222656
ell 541, elapsed: 0.00049591064453125
ell 540, elapsed: 0.0004119873046875
ell 539, elapsed: 0.0004889965057373047
ell 538, elapsed: 0.00040912628173828125
ell 537, elapsed: 0.0004968643188476562
ell 536, elapsed: 0.00040912628173828125
ell 535, elapsed: 0.0005769729614257812
ell 534, elapsed: 0.0004100799560546875
ell 533, elapsed: 0.000492095947265625
ell 532, elapsed: 0.00040793418884277344
ell 531, elapsed: 0.0004899501800537109
ell 530, elapsed: 0.0004069805145263672
ell 529, elapsed: 0.00048804283142089844
ell 528, elapsed: 0.0004100799560546875
ell 527, elapsed: 0.0005698204040527344
ell 526, elapsed: 0.00040912628173828125
ell 525, elapsed: 0.00048804283142089844
ell 524, elapsed: 0.00040793418884277344
ell 523, elapsed: 0.0004940032958984375
ell 522, elapsed: 0.0004088878631591797
ell 521, elapsed: 0.0004930496215820312
ell 520, elapsed: 0.0004889965057373047
ell 519, elapsed: 0.00051116943359375
ell 518, elapsed: 0.0004107952117919922
ell 517, elapsed: 0.00049591064453125
ell 516, elapsed: 0.00040602684020996094
ell 515, elapsed: 0.0004928112030029297
ell 514, elapsed: 0.00040602684020996094
ell 513, elapsed: 0.0004899501800537109
ell 512, elapsed: 0.000476837158203125
ell 511, elapsed: 0.0004961490631103516
ell 510, elapsed: 0.0004050731658935547
ell 509, elapsed: 0.0004899501800537109
ell 508, elapsed: 0.00046706199645996094
ell 507, elapsed: 0.0008499622344970703
ell 506, elapsed: 0.0007901191711425781
ell 505, elapsed: 0.0008389949798583984
ell 504, elapsed: 0.00043201446533203125
ell 503, elapsed: 0.0004949569702148438
ell 502, elapsed: 0.00040793418884277344
ell 501, elapsed: 0.0004909038543701172
ell 500, elapsed: 0.0004107952117919922
ell 499, elapsed: 0.0006690025329589844
ell 498, elapsed: 0.0006768703460693359
ell 497, elapsed: 0.0006611347198486328
ell 496, elapsed: 0.0004088878631591797
ell 495, elapsed: 0.0004937648773193359
ell 494, elapsed: 0.00040602684020996094
ell 493, elapsed: 0.0005898475646972656
ell 492, elapsed: 0.00041604042053222656
ell 491, elapsed: 0.0005040168762207031
ell 490, elapsed: 0.0004088878631591797
ell 489, elapsed: 0.0004830360412597656
ell 488, elapsed: 0.0004069805145263672
ell 487, elapsed: 0.0004940032958984375
ell 486, elapsed: 0.0004119873046875
ell 485, elapsed: 0.0006458759307861328
ell 484, elapsed: 0.0006761550903320312
ell 483, elapsed: 0.0008111000061035156
ell 482, elapsed: 0.0005548000335693359
ell 481, elapsed: 0.0005140304565429688
ell 480, elapsed: 0.00040984153747558594
ell 479, elapsed: 0.0005879402160644531
ell 478, elapsed: 0.00041103363037109375
ell 477, elapsed: 0.0004990100860595703
ell 476, elapsed: 0.0004088878631591797
ell 475, elapsed: 0.0004968643188476562
ell 474, elapsed: 0.00040793418884277344
ell 473, elapsed: 0.0004930496215820312
ell 472, elapsed: 0.0005788803100585938
ell 471, elapsed: 0.0007181167602539062
ell 470, elapsed: 0.0006589889526367188
ell 469, elapsed: 0.0005650520324707031
ell 468, elapsed: 0.00040793418884277344
ell 467, elapsed: 0.0004839897155761719
ell 466, elapsed: 0.00040793418884277344
ell 465, elapsed: 0.0004980564117431641
ell 464, elapsed: 0.00040984153747558594
ell 463, elapsed: 0.0004980564117431641
ell 462, elapsed: 0.0004069805145263672
ell 461, elapsed: 0.00049591064453125
ell 460, elapsed: 0.0004100799560546875
ell 459, elapsed: 0.0004911422729492188
ell 458, elapsed: 0.0004868507385253906
ell 457, elapsed: 0.0005347728729248047
ell 456, elapsed: 0.0004608631134033203
ell 455, elapsed: 0.0005710124969482422
ell 454, elapsed: 0.0004680156707763672
ell 453, elapsed: 0.0005688667297363281
ell 452, elapsed: 0.00046706199645996094
ell 451, elapsed: 0.0005440711975097656
ell 450, elapsed: 0.0004639625549316406
ell 449, elapsed: 0.0006151199340820312
ell 448, elapsed: 0.0004658699035644531
ell 447, elapsed: 0.0005710124969482422
ell 446, elapsed: 0.0004680156707763672
ell 445, elapsed: 0.0005629062652587891
ell 444, elapsed: 0.00046181678771972656
ell 443, elapsed: 0.0005640983581542969
ell 442, elapsed: 0.00046706199645996094
ell 441, elapsed: 0.0005619525909423828
ell 440, elapsed: 0.0004630088806152344
ell 439, elapsed: 0.0006330013275146484
ell 438, elapsed: 0.0004630088806152344
ell 437, elapsed: 0.0005660057067871094
ell 436, elapsed: 0.0004620552062988281
ell 435, elapsed: 0.0005660057067871094
ell 434, elapsed: 0.0004649162292480469
ell 433, elapsed: 0.0005640983581542969
ell 432, elapsed: 0.0005118846893310547
ell 431, elapsed: 0.0005939006805419922
ell 430, elapsed: 0.0005009174346923828
ell 429, elapsed: 0.0005509853363037109
ell 428, elapsed: 0.00044798851013183594
ell 427, elapsed: 0.0005369186401367188
ell 426, elapsed: 0.00044989585876464844
ell 425, elapsed: 0.000537872314453125
ell 424, elapsed: 0.00044798851013183594
ell 423, elapsed: 0.0008449554443359375
ell 422, elapsed: 0.0006010532379150391
ell 421, elapsed: 0.0006451606750488281
ell 420, elapsed: 0.00038504600524902344
ell 419, elapsed: 0.0004999637603759766
ell 418, elapsed: 0.0005159378051757812
ell 417, elapsed: 0.0006430149078369141
ell 416, elapsed: 0.00036787986755371094
ell 415, elapsed: 0.0004711151123046875
ell 414, elapsed: 0.0004029273986816406
ell 413, elapsed: 0.0004658699035644531
ell 412, elapsed: 0.00038313865661621094
ell 411, elapsed: 0.0004799365997314453
ell 410, elapsed: 0.00038695335388183594
ell 409, elapsed: 0.0005638599395751953
ell 408, elapsed: 0.00038313865661621094
ell 407, elapsed: 0.00048804283142089844
ell 406, elapsed: 0.0005009174346923828
ell 405, elapsed: 0.000553131103515625
ell 404, elapsed: 0.0003719329833984375
ell 403, elapsed: 0.00045013427734375
ell 402, elapsed: 0.00038313865661621094
ell 401, elapsed: 0.0005519390106201172
ell 400, elapsed: 0.0003781318664550781
ell 399, elapsed: 0.0005130767822265625
ell 398, elapsed: 0.0003790855407714844
ell 397, elapsed: 0.00045299530029296875
ell 396, elapsed: 0.0004429817199707031
ell 395, elapsed: 0.0006058216094970703
ell 394, elapsed: 0.0004630088806152344
ell 393, elapsed: 0.0006270408630371094
ell 392, elapsed: 0.0004398822784423828
ell 391, elapsed: 0.0004520416259765625
ell 390, elapsed: 0.0003719329833984375
ell 389, elapsed: 0.00045990943908691406
ell 388, elapsed: 0.0004830360412597656
ell 387, elapsed: 0.0008471012115478516
ell 386, elapsed: 0.0003910064697265625
ell 385, elapsed: 0.0006160736083984375
ell 384, elapsed: 0.0005419254302978516
ell 383, elapsed: 0.0006659030914306641
ell 382, elapsed: 0.00042700767517089844
ell 381, elapsed: 0.0004639625549316406
ell 380, elapsed: 0.0005741119384765625
ell 379, elapsed: 0.000698089599609375
ell 378, elapsed: 0.0004100799560546875
ell 377, elapsed: 0.0005881786346435547
ell 376, elapsed: 0.0004780292510986328
ell 375, elapsed: 0.0004661083221435547
ell 374, elapsed: 0.0004711151123046875
ell 373, elapsed: 0.0004711151123046875
ell 372, elapsed: 0.0003829002380371094
ell 371, elapsed: 0.00047206878662109375
ell 370, elapsed: 0.0004258155822753906
ell 369, elapsed: 0.0005078315734863281
ell 368, elapsed: 0.0005121231079101562
ell 367, elapsed: 0.000576019287109375
ell 366, elapsed: 0.0004038810729980469
ell 365, elapsed: 0.00045990943908691406
ell 364, elapsed: 0.00037598609924316406
ell 363, elapsed: 0.0004570484161376953
ell 362, elapsed: 0.00037407875061035156
ell 361, elapsed: 0.0004520416259765625
ell 360, elapsed: 0.00037598609924316406
ell 359, elapsed: 0.0008151531219482422
ell 358, elapsed: 0.0005028247833251953
ell 357, elapsed: 0.0005700588226318359
ell 356, elapsed: 0.0003769397735595703
ell 355, elapsed: 0.0004611015319824219
ell 354, elapsed: 0.0003800392150878906
ell 353, elapsed: 0.0004608631134033203
ell 352, elapsed: 0.0003840923309326172
ell 351, elapsed: 0.0005559921264648438
ell 350, elapsed: 0.0005180835723876953
ell 349, elapsed: 0.0007622241973876953
ell 348, elapsed: 0.00044989585876464844
ell 347, elapsed: 0.0005500316619873047
ell 346, elapsed: 0.00045609474182128906
ell 345, elapsed: 0.0007610321044921875
ell 344, elapsed: 0.000682830810546875
ell 343, elapsed: 0.0006659030914306641
ell 342, elapsed: 0.00045299530029296875
ell 341, elapsed: 0.0005359649658203125
ell 340, elapsed: 0.00044989585876464844
ell 339, elapsed: 0.0007641315460205078
ell 338, elapsed: 0.0005879402160644531
ell 337, elapsed: 0.0005490779876708984
ell 336, elapsed: 0.0004520416259765625
ell 335, elapsed: 0.0005369186401367188
ell 334, elapsed: 0.00044798851013183594
ell 333, elapsed: 0.0005371570587158203
ell 332, elapsed: 0.0006229877471923828
ell 331, elapsed: 0.0006849765777587891
ell 330, elapsed: 0.00044798851013183594
ell 329, elapsed: 0.0005340576171875
ell 328, elapsed: 0.00045418739318847656
ell 327, elapsed: 0.0005409717559814453
ell 326, elapsed: 0.0005888938903808594
ell 325, elapsed: 0.0008080005645751953
ell 324, elapsed: 0.0005030632019042969
ell 323, elapsed: 0.0005440711975097656
ell 322, elapsed: 0.00045299530029296875
ell 321, elapsed: 0.0005419254302978516
ell 320, elapsed: 0.0006737709045410156
ell 319, elapsed: 0.0006890296936035156
ell 318, elapsed: 0.0004520416259765625
ell 317, elapsed: 0.0005431175231933594
ell 316, elapsed: 0.00045108795166015625
ell 315, elapsed: 0.0005419254302978516
ell 314, elapsed: 0.0004470348358154297
ell 313, elapsed: 0.0008819103240966797
ell 312, elapsed: 0.00047779083251953125
ell 311, elapsed: 0.0005509853363037109
ell 310, elapsed: 0.0004489421844482422
ell 309, elapsed: 0.0005350112915039062
ell 308, elapsed: 0.0004489421844482422
ell 307, elapsed: 0.0008130073547363281
ell 306, elapsed: 0.0005578994750976562
ell 305, elapsed: 0.000553131103515625
ell 304, elapsed: 0.0004489421844482422
ell 303, elapsed: 0.0005400180816650391
ell 302, elapsed: 0.00044798851013183594
ell 301, elapsed: 0.0010509490966796875
ell 300, elapsed: 0.0005350112915039062
ell 299, elapsed: 0.0006430149078369141
ell 298, elapsed: 0.0004589557647705078
ell 297, elapsed: 0.0006031990051269531
ell 296, elapsed: 0.00045800209045410156
ell 295, elapsed: 0.0005421638488769531
ell 294, elapsed: 0.00044989585876464844
ell 293, elapsed: 0.000537872314453125
ell 292, elapsed: 0.00044918060302734375
ell 291, elapsed: 0.0005381107330322266
ell 290, elapsed: 0.0005700588226318359
ell 289, elapsed: 0.0007169246673583984
ell 288, elapsed: 0.0004489421844482422
ell 287, elapsed: 0.0005328655242919922
ell 286, elapsed: 0.0004508495330810547
ell 285, elapsed: 0.0005388259887695312
ell 284, elapsed: 0.0005300045013427734
ell 283, elapsed: 0.0008370876312255859
ell 282, elapsed: 0.0004978179931640625
ell 281, elapsed: 0.0005409717559814453
ell 280, elapsed: 0.0004467964172363281
ell 279, elapsed: 0.0005350112915039062
ell 278, elapsed: 0.00044798851013183594
ell 277, elapsed: 0.0008170604705810547
ell 276, elapsed: 0.0004661083221435547
ell 275, elapsed: 0.0005400180816650391
ell 274, elapsed: 0.0004470348358154297
ell 273, elapsed: 0.0005350112915039062
ell 272, elapsed: 0.0004458427429199219
ell 271, elapsed: 0.0005521774291992188
ell 270, elapsed: 0.00044798851013183594
ell 269, elapsed: 0.0005350112915039062
ell 268, elapsed: 0.0004470348358154297
ell 267, elapsed: 0.0005309581756591797
ell 266, elapsed: 0.0004470348358154297
ell 265, elapsed: 0.0005359649658203125
ell 264, elapsed: 0.0004317760467529297
ell 263, elapsed: 0.0007970333099365234
ell 262, elapsed: 0.0004839897155761719
ell 261, elapsed: 0.0005371570587158203
ell 260, elapsed: 0.0004470348358154297
ell 259, elapsed: 0.000537872314453125
ell 258, elapsed: 0.0004470348358154297
ell 257, elapsed: 0.0007498264312744141
ell 256, elapsed: 0.0007109642028808594
ell 255, elapsed: 0.0005679130554199219
ell 254, elapsed: 0.0004470348358154297
ell 253, elapsed: 0.0005311965942382812
ell 252, elapsed: 0.00044798851013183594
ell 251, elapsed: 0.000698089599609375
ell 250, elapsed: 0.0005369186401367188
ell 249, elapsed: 0.0005409717559814453
ell 248, elapsed: 0.00044798851013183594
ell 247, elapsed: 0.0005359649658203125
ell 246, elapsed: 0.0004489421844482422
ell 245, elapsed: 0.0005321502685546875
ell 244, elapsed: 0.0006051063537597656
ell 243, elapsed: 0.0007131099700927734
ell 242, elapsed: 0.00044798851013183594
ell 241, elapsed: 0.0005409717559814453
ell 240, elapsed: 0.0004470348358154297
ell 239, elapsed: 0.0005428791046142578
ell 238, elapsed: 0.0005450248718261719
ell 237, elapsed: 0.0007131099700927734
ell 236, elapsed: 0.00044798851013183594
ell 235, elapsed: 0.0005350112915039062
ell 234, elapsed: 0.0004467964172363281
ell 233, elapsed: 0.0005328655242919922
ell 232, elapsed: 0.0004439353942871094
ell 231, elapsed: 0.0006837844848632812
ell 230, elapsed: 0.0005950927734375
ell 229, elapsed: 0.0005459785461425781
ell 228, elapsed: 0.0004470348358154297
ell 227, elapsed: 0.0005300045013427734
ell 226, elapsed: 0.00044798851013183594
ell 225, elapsed: 0.0006079673767089844
ell 224, elapsed: 0.0006618499755859375
ell 223, elapsed: 0.0007297992706298828
ell 222, elapsed: 0.00045013427734375
ell 221, elapsed: 0.0005340576171875
ell 220, elapsed: 0.0004470348358154297
ell 219, elapsed: 0.0005459785461425781
ell 218, elapsed: 0.0007228851318359375
ell 217, elapsed: 0.0005600452423095703
ell 216, elapsed: 0.00044918060302734375
ell 215, elapsed: 0.0005369186401367188
ell 214, elapsed: 0.00044608116149902344
ell 213, elapsed: 0.0005340576171875
ell 212, elapsed: 0.00044989585876464844
ell 211, elapsed: 0.0008258819580078125
ell 210, elapsed: 0.00045990943908691406
ell 209, elapsed: 0.0005338191986083984
ell 208, elapsed: 0.0004470348358154297
ell 207, elapsed: 0.0005311965942382812
ell 206, elapsed: 0.0004458427429199219
ell 205, elapsed: 0.0007798671722412109
ell 204, elapsed: 0.00045490264892578125
ell 203, elapsed: 0.0005328655242919922
ell 202, elapsed: 0.0004448890686035156
ell 201, elapsed: 0.0005321502685546875
ell 200, elapsed: 0.0004451274871826172
ell 199, elapsed: 0.0005440711975097656
ell 198, elapsed: 0.0006589889526367188
ell 197, elapsed: 0.0006210803985595703
ell 196, elapsed: 0.00045108795166015625
ell 195, elapsed: 0.0005440711975097656
ell 194, elapsed: 0.00044608116149902344
ell 193, elapsed: 0.0005311965942382812
ell 192, elapsed: 0.0004620552062988281
ell 191, elapsed: 0.0005409717559814453
ell 190, elapsed: 0.00045013427734375
ell 189, elapsed: 0.0005400180816650391
ell 188, elapsed: 0.00045299530029296875
ell 187, elapsed: 0.0006399154663085938
ell 186, elapsed: 0.000453948974609375
ell 185, elapsed: 0.0005440711975097656
ell 184, elapsed: 0.00044798851013183594
ell 183, elapsed: 0.0005371570587158203
ell 182, elapsed: 0.00044918060302734375
ell 181, elapsed: 0.0006258487701416016
ell 180, elapsed: 0.0004031658172607422
ell 179, elapsed: 0.0004889965057373047
ell 178, elapsed: 0.0003948211669921875
ell 177, elapsed: 0.00048089027404785156
ell 176, elapsed: 0.00038504600524902344
ell 175, elapsed: 0.0004608631134033203
ell 174, elapsed: 0.0003788471221923828
ell 173, elapsed: 0.00048804283142089844
ell 172, elapsed: 0.0003769397735595703
ell 171, elapsed: 0.000453948974609375
ell 170, elapsed: 0.00037407875061035156
ell 169, elapsed: 0.00045299530029296875
ell 168, elapsed: 0.00037980079650878906
ell 167, elapsed: 0.0004520416259765625
ell 166, elapsed: 0.00037097930908203125
ell 165, elapsed: 0.0004839897155761719
ell 164, elapsed: 0.0003960132598876953
ell 163, elapsed: 0.0004820823669433594
ell 162, elapsed: 0.00039196014404296875
ell 161, elapsed: 0.0004649162292480469
ell 160, elapsed: 0.0003879070281982422
ell 159, elapsed: 0.0004620552062988281
ell 158, elapsed: 0.0005168914794921875
ell 157, elapsed: 0.0005848407745361328
ell 156, elapsed: 0.0005371570587158203
ell 155, elapsed: 0.0006108283996582031
ell 154, elapsed: 0.0005619525909423828
ell 153, elapsed: 0.0005440711975097656
ell 152, elapsed: 0.0004069805145263672
ell 151, elapsed: 0.0004849433898925781
ell 150, elapsed: 0.000453948974609375
ell 149, elapsed: 0.0005960464477539062
ell 148, elapsed: 0.00044989585876464844
ell 147, elapsed: 0.00045490264892578125
ell 146, elapsed: 0.0004849433898925781
ell 145, elapsed: 0.0006198883056640625
ell 144, elapsed: 0.00037789344787597656
ell 143, elapsed: 0.0006589889526367188
ell 142, elapsed: 0.0004200935363769531
ell 141, elapsed: 0.00046515464782714844
ell 140, elapsed: 0.00038886070251464844
ell 139, elapsed: 0.0004601478576660156
ell 138, elapsed: 0.0003840923309326172
ell 137, elapsed: 0.0004730224609375
ell 136, elapsed: 0.0003719329833984375
ell 135, elapsed: 0.0006539821624755859
ell 134, elapsed: 0.00037980079650878906
ell 133, elapsed: 0.000453948974609375
ell 132, elapsed: 0.00048089027404785156
ell 131, elapsed: 0.0005960464477539062
ell 130, elapsed: 0.0003859996795654297
ell 129, elapsed: 0.0004649162292480469
ell 128, elapsed: 0.0004048347473144531
ell 127, elapsed: 0.0006079673767089844
ell 126, elapsed: 0.0004551410675048828
ell 125, elapsed: 0.0004520416259765625
ell 124, elapsed: 0.0003840923309326172
ell 123, elapsed: 0.0005700588226318359
ell 122, elapsed: 0.0004909038543701172
ell 121, elapsed: 0.0006570816040039062
ell 120, elapsed: 0.0004210472106933594
ell 119, elapsed: 0.00046515464782714844
ell 118, elapsed: 0.0005199909210205078
ell 117, elapsed: 0.0005469322204589844
ell 116, elapsed: 0.0003790855407714844
ell 115, elapsed: 0.00044989585876464844
ell 114, elapsed: 0.0004010200500488281
ell 113, elapsed: 0.0006380081176757812
ell 112, elapsed: 0.0004420280456542969
ell 111, elapsed: 0.0005571842193603516
ell 110, elapsed: 0.0004868507385253906
ell 109, elapsed: 0.00045299530029296875
ell 108, elapsed: 0.0005450248718261719
ell 107, elapsed: 0.0005640983581542969
ell 106, elapsed: 0.0003769397735595703
ell 105, elapsed: 0.0004601478576660156
ell 104, elapsed: 0.0003769397735595703
ell 103, elapsed: 0.0004601478576660156
ell 102, elapsed: 0.0003769397735595703
ell 101, elapsed: 0.0006361007690429688
ell 100, elapsed: 0.0006260871887207031
ell 99, elapsed: 0.0005199909210205078
ell 98, elapsed: 0.0003790855407714844
ell 97, elapsed: 0.0006349086761474609
ell 96, elapsed: 0.0004699230194091797
ell 95, elapsed: 0.0004630088806152344
ell 94, elapsed: 0.00037789344787597656
ell 93, elapsed: 0.00045800209045410156
ell 92, elapsed: 0.0008170604705810547
ell 91, elapsed: 0.00046896934509277344
ell 90, elapsed: 0.0003840923309326172
ell 89, elapsed: 0.0004680156707763672
ell 88, elapsed: 0.0003838539123535156
ell 87, elapsed: 0.0005629062652587891
ell 86, elapsed: 0.0005011558532714844
ell 85, elapsed: 0.0010640621185302734
ell 84, elapsed: 0.00039196014404296875
ell 83, elapsed: 0.0006558895111083984
ell 82, elapsed: 0.0004107952117919922
ell 81, elapsed: 0.0004589557647705078
ell 80, elapsed: 0.0003790855407714844
ell 79, elapsed: 0.0009958744049072266
ell 78, elapsed: 0.0005249977111816406
ell 77, elapsed: 0.000537872314453125
ell 76, elapsed: 0.0003859996795654297
ell 75, elapsed: 0.00045299530029296875
ell 74, elapsed: 0.0005269050598144531
ell 73, elapsed: 0.0010821819305419922
ell 72, elapsed: 0.00037598609924316406
ell 71, elapsed: 0.000659942626953125
ell 70, elapsed: 0.00047707557678222656
ell 69, elapsed: 0.0004589557647705078
ell 68, elapsed: 0.00037097930908203125
ell 67, elapsed: 0.0004520416259765625
ell 66, elapsed: 0.0009558200836181641
ell 65, elapsed: 0.0004611015319824219
ell 64, elapsed: 0.00037407875061035156
ell 63, elapsed: 0.0005581378936767578
ell 62, elapsed: 0.0005078315734863281
ell 61, elapsed: 0.0004570484161376953
ell 60, elapsed: 0.0006098747253417969
ell 59, elapsed: 0.0005850791931152344
ell 58, elapsed: 0.0003790855407714844
ell 57, elapsed: 0.0004570484161376953
ell 56, elapsed: 0.0005390644073486328
ell 55, elapsed: 0.0005159378051757812
ell 54, elapsed: 0.0003819465637207031
ell 53, elapsed: 0.00045990943908691406
ell 52, elapsed: 0.0003840923309326172
ell 51, elapsed: 0.0004639625549316406
ell 50, elapsed: 0.0004677772521972656
ell 49, elapsed: 0.0007169246673583984
ell 48, elapsed: 0.0004260540008544922
ell 47, elapsed: 0.0004520416259765625
ell 46, elapsed: 0.0003769397735595703
ell 45, elapsed: 0.0007581710815429688
ell 44, elapsed: 0.0003941059112548828
ell 43, elapsed: 0.0004589557647705078
ell 42, elapsed: 0.0003840923309326172
ell 41, elapsed: 0.0004601478576660156
ell 40, elapsed: 0.0003859996795654297
ell 39, elapsed: 0.00044608116149902344
ell 38, elapsed: 0.0003769397735595703
ell 37, elapsed: 0.0006048679351806641
ell 36, elapsed: 0.0004520416259765625
ell 35, elapsed: 0.00044798851013183594
ell 34, elapsed: 0.00037097930908203125
ell 33, elapsed: 0.00045180320739746094
ell 32, elapsed: 0.0005118846893310547
ell 31, elapsed: 0.000598907470703125
ell 30, elapsed: 0.0003859996795654297
ell 29, elapsed: 0.0004680156707763672
ell 28, elapsed: 0.00037598609924316406
ell 27, elapsed: 0.0004489421844482422
ell 26, elapsed: 0.00038313865661621094
ell 25, elapsed: 0.0006148815155029297
ell 24, elapsed: 0.00047707557678222656
ell 23, elapsed: 0.0007100105285644531
ell 22, elapsed: 0.0004999637603759766
ell 21, elapsed: 0.0007522106170654297
ell 20, elapsed: 0.0005369186401367188
ell 19, elapsed: 0.0006229877471923828
ell 18, elapsed: 0.0004639625549316406
ell 17, elapsed: 0.0005481243133544922
ell 16, elapsed: 0.00055694580078125
ell 15, elapsed: 0.0006940364837646484
ell 14, elapsed: 0.0004570484161376953
ell 13, elapsed: 0.00043010711669921875
ell 12, elapsed: 0.0003821849822998047
ell 11, elapsed: 0.00045299530029296875
ell 10, elapsed: 0.0004401206970214844
ell 9, elapsed: 0.00045013427734375
ell 8, elapsed: 0.0003600120544433594
ell 7, elapsed: 0.00043702125549316406
ell 6, elapsed: 0.00035881996154785156
ell 5, elapsed: 0.00043201446533203125
ell 4, elapsed: 0.0003590583801269531
ell 3, elapsed: 0.00047087669372558594
ell 2, elapsed: 0.0003840923309326172
ell 1, elapsed: 0.0005669593811035156
ell 0, elapsed: 0.00039696693420410156
  0.748659 seconds (57.01 k allocations: 2.784 MiB)
elapsed: 0.0005910396575927734
step:          0.076828 sec (0 allocations: 0 byte, 0.0% gc time)
swapping:      0.000827 sec (0 allocations: 0 byte, 0.0% gc time)
calc_Mellell!: 0.01281 sec (0 allocations: 0 byte, 0.0% gc time)
  t0 :  0.002819 sec (0 allocations: 0 byte, 0.0% gc time)
  tm2 : 0.103623 sec (0 allocations: 0 byte, 0.0% gc time)
  tm2s: 0.002222 sec (0 allocations: 0 byte, 0.0% gc time)
  tm4 : 0.270923 sec (0 allocations: 0 byte, 0.0% gc time)
  tp2 : 0.0 sec (0 allocations: 0 byte, 0.0% gc time)
  tp2s: 0.0 sec (0 allocations: 0 byte, 0.0% gc time)
  tp4 : 0.0 sec (0 allocations: 0 byte, 0.0% gc time)
calc_wtdll!:   0.398708 sec (9.88 k allocations: 1.044 MB, 0.0% gc time)
calc_wljj!:    0.052711 sec (689 allocations: 10.766 KB, 0.0% gc time)
mult_prefac!:  0.0 sec (0 allocations: 0 byte, 0.0% gc time)
convert:       0.0 sec (0 allocations: 0 byte, 0.0% gc time)
write:         0.064144 sec (0 allocations: 0 byte, 0.0% gc time)
test_rand_2f1: 0.0 sec (0 allocations: 0 byte, 0.0% gc time)
Closing outfile out/Ml21-cache.bin...   0.023216 seconds
  0.000586 seconds (52 allocations: 28.297 KiB)
make_phi():   0.002978 seconds (8.20 k allocations: 238.016 KiB)
  0.276679 seconds (146.69 k allocations: 3.629 MiB)
tskip:       0.001062 sec (0 allocations: 0 byte, 0.0% gc time)
tread:       0.049052 sec (20 allocations: 10.703 KB, 0.0% gc time)
tmultphi:    0.021488 sec (0 allocations: 0 byte, 0.0% gc time)
tbrfft:      0.057721 sec (9.592 k allocations: 449.625 KB, 0.0% gc time)
tmultprefac: 0.059876 sec (0 allocations: 0 byte, 0.0% gc time)
toutfunc:    0.085166 sec (129.905 k allocations: 2.421 MB, 0.0% gc time)
Testing R=1.0 ... passed
Calculating fmax: 
  dlrec    = 4
  dlrecRg1 = -4
  q=1.1, R=0.9:	  0.633998 seconds (149.41 k allocations: 69.863 MiB, 2.57% gc time)

  0.634338 seconds (149.47 k allocations: 69.895 MiB, 2.57% gc time)
ℓ = 1202
Δℓ = 4
ΔℓRg1 = -4
N = 1600
q = 1.1
kmin = 1.0e-5
kmax = 100000.00000000004
χ0 = 0.023029999999999995
RR = RR.tsv
ℓmax = ℓmax.bin
f21 = f21.bin
kmin = 1.0e-5
kmax = 100000.0
dlrec    = 4
dlrecRg1 = -4
Output size: 5741568 bytes = 0.005347251892089844 GiB
Output size: 51264 bytes = 4.774332046508789e-5 GiB
Reading 'out/F21EllCache'...   0.001213 seconds (271 allocations: 84.719 KiB)
ellmax: 1202
lmaxcache: 1202
fell[:,1,1] = Complex{Float64}[1.3482014726274674e-57 - 3.302141236118086e-73im, 1.357860004724329e-57 - 3.3257978169518355e-73im]
ell 1202, elapsed: 2.5987625122070312e-5
ell 1201, elapsed: 0.00046896934509277344
ell 1200, elapsed: 0.00041794776916503906
ell 1199, elapsed: 0.00041294097900390625
ell 1198, elapsed: 0.00041604042053222656
ell 1002, elapsed: 0.012711048126220703
ell 1001, elapsed: 0.0005838871002197266
ell 1000, elapsed: 0.00047206878662109375
ell 999, elapsed: 0.00036907196044921875
ell 998, elapsed: 0.00036907196044921875
ell 902, elapsed: 0.00676417350769043
ell 901, elapsed: 0.0003960132598876953
ell 900, elapsed: 0.0003781318664550781
ell 899, elapsed: 0.00037097930908203125
ell 898, elapsed: 0.00036787986755371094
ell 802, elapsed: 0.006977081298828125
ell 801, elapsed: 0.0003941059112548828
ell 800, elapsed: 0.00036907196044921875
ell 799, elapsed: 0.0003681182861328125
ell 798, elapsed: 0.00036907196044921875
ell 702, elapsed: 0.006415128707885742
ell 701, elapsed: 0.00038695335388183594
ell 700, elapsed: 0.00037288665771484375
ell 699, elapsed: 0.0003712177276611328
ell 698, elapsed: 0.00037384033203125
ell 602, elapsed: 0.006228923797607422
ell 601, elapsed: 0.000370025634765625
ell 600, elapsed: 0.00037598609924316406
ell 599, elapsed: 0.00036597251892089844
ell 598, elapsed: 0.0003650188446044922
ell 502, elapsed: 0.006078958511352539
ell 501, elapsed: 0.00037097930908203125
ell 500, elapsed: 0.00036787986755371094
ell 499, elapsed: 0.00036597251892089844
ell 498, elapsed: 0.00036716461181640625
ell 402, elapsed: 0.006041049957275391
ell 401, elapsed: 0.0003840923309326172
ell 400, elapsed: 0.00036787986755371094
ell 399, elapsed: 0.00036597251892089844
ell 398, elapsed: 0.0003688335418701172
ell 302, elapsed: 0.006454944610595703
ell 301, elapsed: 0.00038886070251464844
ell 300, elapsed: 0.0003681182861328125
ell 299, elapsed: 0.0003681182861328125
ell 298, elapsed: 0.00036787986755371094
ell 202, elapsed: 0.0064160823822021484
ell 201, elapsed: 0.00038814544677734375
ell 200, elapsed: 0.00036907196044921875
ell 199, elapsed: 0.000370025634765625
ell 198, elapsed: 0.0003688335418701172
ell 152, elapsed: 0.0034220218658447266
ell 151, elapsed: 0.0003859996795654297
ell 150, elapsed: 0.0003688335418701172
ell 149, elapsed: 0.00036787986755371094
ell 148, elapsed: 0.0003838539123535156
ell 127, elapsed: 0.0016360282897949219
ell 126, elapsed: 0.0003688335418701172
ell 125, elapsed: 0.0003669261932373047
ell 124, elapsed: 0.0003669261932373047
ell 123, elapsed: 0.0003669261932373047
ell 114, elapsed: 0.0012640953063964844
ell 113, elapsed: 0.0003781318664550781
ell 112, elapsed: 0.0003669261932373047
ell 111, elapsed: 0.00036597251892089844
ell 110, elapsed: 0.0003650188446044922
ell 102, elapsed: 0.0009419918060302734
ell 101, elapsed: 0.0003809928894042969
ell 100, elapsed: 0.00045609474182128906
ell 99, elapsed: 0.00036787986755371094
ell 98, elapsed: 0.0003681182861328125
ell 97, elapsed: 0.0004119873046875
ell 96, elapsed: 0.0005040168762207031
ell 95, elapsed: 0.00040912628173828125
ell 94, elapsed: 0.0004899501800537109
ell 93, elapsed: 0.0005300045013427734
ell 92, elapsed: 0.0008039474487304688
ell 91, elapsed: 0.0004260540008544922
ell 90, elapsed: 0.0004990100860595703
ell 89, elapsed: 0.00041294097900390625
ell 88, elapsed: 0.0004918575286865234
ell 87, elapsed: 0.00048804283142089844
ell 86, elapsed: 0.0004668235778808594
ell 85, elapsed: 0.00037407875061035156
ell 84, elapsed: 0.0004749298095703125
ell 83, elapsed: 0.0003800392150878906
ell 82, elapsed: 0.00047087669372558594
ell 81, elapsed: 0.0005269050598144531
ell 80, elapsed: 0.0005540847778320312
ell 79, elapsed: 0.0005700588226318359
ell 78, elapsed: 0.0005249977111816406
ell 77, elapsed: 0.0003731250762939453
ell 76, elapsed: 0.0004639625549316406
ell 75, elapsed: 0.0003650188446044922
ell 74, elapsed: 0.00046896934509277344
ell 73, elapsed: 0.0003781318664550781
ell 72, elapsed: 0.0004830360412597656
ell 71, elapsed: 0.000370025634765625
ell 70, elapsed: 0.0005800724029541016
ell 69, elapsed: 0.0004611015319824219
ell 68, elapsed: 0.00046706199645996094
ell 67, elapsed: 0.0003800392150878906
ell 66, elapsed: 0.0005710124969482422
ell 65, elapsed: 0.0004749298095703125
ell 64, elapsed: 0.0004780292510986328
ell 63, elapsed: 0.00038504600524902344
ell 62, elapsed: 0.000476837158203125
ell 61, elapsed: 0.00036907196044921875
ell 60, elapsed: 0.000469207763671875
ell 59, elapsed: 0.00037384033203125
ell 58, elapsed: 0.0004630088806152344
ell 57, elapsed: 0.00037598609924316406
ell 56, elapsed: 0.00048279762268066406
ell 55, elapsed: 0.0005400180816650391
ell 54, elapsed: 0.0005168914794921875
ell 53, elapsed: 0.0005409717559814453
ell 52, elapsed: 0.0005471706390380859
ell 51, elapsed: 0.0003809928894042969
ell 50, elapsed: 0.000469207763671875
ell 49, elapsed: 0.00038909912109375
ell 48, elapsed: 0.00044798851013183594
ell 47, elapsed: 0.0003840923309326172
ell 46, elapsed: 0.00046896934509277344
ell 45, elapsed: 0.0003819465637207031
ell 44, elapsed: 0.0004620552062988281
ell 43, elapsed: 0.0003809928894042969
ell 42, elapsed: 0.0004711151123046875
ell 41, elapsed: 0.00039887428283691406
ell 40, elapsed: 0.00046896934509277344
ell 39, elapsed: 0.0003848075866699219
ell 38, elapsed: 0.0004658699035644531
ell 37, elapsed: 0.0003662109375
ell 36, elapsed: 0.0005660057067871094
ell 35, elapsed: 0.0004761219024658203
ell 34, elapsed: 0.0004851818084716797
ell 33, elapsed: 0.00037789344787597656
ell 32, elapsed: 0.0004711151123046875
ell 31, elapsed: 0.00038504600524902344
ell 30, elapsed: 0.00047016143798828125
ell 29, elapsed: 0.0003819465637207031
ell 28, elapsed: 0.00046706199645996094
ell 27, elapsed: 0.0003819465637207031
ell 26, elapsed: 0.0004799365997314453
ell 25, elapsed: 0.00045800209045410156
ell 24, elapsed: 0.00061798095703125
ell 23, elapsed: 0.0003819465637207031
ell 22, elapsed: 0.000476837158203125
ell 21, elapsed: 0.0003788471221923828
ell 20, elapsed: 0.00046515464782714844
ell 19, elapsed: 0.0003790855407714844
ell 18, elapsed: 0.0004830360412597656
ell 17, elapsed: 0.0003669261932373047
ell 16, elapsed: 0.0005719661712646484
ell 15, elapsed: 0.0004730224609375
ell 14, elapsed: 0.0004620552062988281
ell 13, elapsed: 0.0003819465637207031
ell 12, elapsed: 0.0004639625549316406
ell 11, elapsed: 0.00038313865661621094
ell 10, elapsed: 0.0004830360412597656
ell 9, elapsed: 0.00037598609924316406
ell 8, elapsed: 0.0004649162292480469
ell 7, elapsed: 0.00037598609924316406
ell 6, elapsed: 0.000453948974609375
ell 5, elapsed: 0.0003781318664550781
ell 4, elapsed: 0.0004591941833496094
ell 3, elapsed: 0.00037217140197753906
ell 2, elapsed: 0.0006649494171142578
ell 1, elapsed: 0.0003941059112548828
ell 0, elapsed: 0.0004570484161376953
  0.150051 seconds (13.00 k allocations: 674.766 KiB)
elapsed: 0.0005090236663818359
step:          0.071928 sec (0 allocations: 0 byte, 0.0% gc time)
swapping:      0.000668 sec (0 allocations: 0 byte, 0.0% gc time)
calc_Mellell!: 0.001559 sec (0 allocations: 0 byte, 0.0% gc time)
  t0 :  0.000396 sec (0 allocations: 0 byte, 0.0% gc time)
  tm2 : 0.01267 sec (0 allocations: 0 byte, 0.0% gc time)
  tm2s: 0.000358 sec (0 allocations: 0 byte, 0.0% gc time)
  tm4 : 0.033686 sec (0 allocations: 0 byte, 0.0% gc time)
  tp2 : 0.0 sec (0 allocations: 0 byte, 0.0% gc time)
  tp2s: 0.0 sec (0 allocations: 0 byte, 0.0% gc time)
  tp4 : 0.0 sec (0 allocations: 0 byte, 0.0% gc time)
calc_wtdll!:   0.047664 sec (1.344 k allocations: 147.0 KB, 0.0% gc time)
calc_wljj!:    0.004464 sec (6 allocations: 96 byte, 0.0% gc time)
mult_prefac!:  0.0 sec (0 allocations: 0 byte, 0.0% gc time)
convert:       0.0 sec (0 allocations: 0 byte, 0.0% gc time)
write:         0.00569 sec (0 allocations: 0 byte, 0.0% gc time)
test_rand_2f1: 0.0 sec (0 allocations: 0 byte, 0.0% gc time)
Closing outfile out/Ml21-cache.bin...   0.004161 seconds
  0.000523 seconds (52 allocations: 28.297 KiB)
make_phi():   0.002691 seconds (8.20 k allocations: 238.016 KiB)
  0.018007 seconds (12.10 k allocations: 322.000 KiB)
tskip:       2.2e-5 sec (0 allocations: 0 byte, 0.0% gc time)
tread:       0.002471 sec (20 allocations: 2.188 KB, 0.0% gc time)
tmultphi:    0.00158 sec (0 allocations: 0 byte, 0.0% gc time)
tbrfft:      0.004162 sec (896 allocations: 42.0 KB, 0.0% gc time)
tmultprefac: 0.004016 sec (0 allocations: 0 byte, 0.0% gc time)
toutfunc:    0.005767 sec (10.528 k allocations: 206.5 KB, 0.0% gc time)
Testing R=0.9 ... passed
Calculating fmax: 
  dlrec    = 4
  dlrecRg1 = -4
  q=1.1, R=0.8:	  0.552040 seconds (145.59 k allocations: 68.095 MiB, 14.26% gc time)

  0.552293 seconds (145.66 k allocations: 68.128 MiB, 14.25% gc time)
ℓ = 1202
Δℓ = 4
ΔℓRg1 = -4
N = 1600
q = 1.1
kmin = 1.0e-5
kmax = 100000.00000000004
χ0 = 0.023029999999999995
RR = RR.tsv
ℓmax = ℓmax.bin
f21 = f21.bin
kmin = 1.0e-5
kmax = 100000.0
dlrec    = 4
dlrecRg1 = -4
Output size: 5741568 bytes = 0.005347251892089844 GiB
Output size: 51264 bytes = 4.774332046508789e-5 GiB
Reading 'out/F21EllCache'...   0.006502 seconds (271 allocations: 84.719 KiB)
ellmax: 1202
lmaxcache: 1202
fell[:,1,1] = Complex{Float64}[7.519068145690986e-120 - 1.8416405474382574e-135im, 7.541664537386155e-120 - 1.847175067190611e-135im]
ell 1202, elapsed: 5.507469177246094e-5
ell 1201, elapsed: 0.0009369850158691406
ell 1200, elapsed: 0.0007371902465820312
ell 1199, elapsed: 0.0009191036224365234
ell 1198, elapsed: 0.0007379055023193359
ell 1002, elapsed: 0.011363029479980469
ell 1001, elapsed: 0.0003750324249267578
ell 1000, elapsed: 0.0003399848937988281
ell 999, elapsed: 0.0003371238708496094
ell 998, elapsed: 0.0003380775451660156
ell 902, elapsed: 0.006707191467285156
ell 901, elapsed: 0.00046896934509277344
ell 900, elapsed: 0.0005819797515869141
ell 899, elapsed: 0.0004820823669433594
ell 898, elapsed: 0.0004658699035644531
ell 802, elapsed: 0.006841897964477539
ell 801, elapsed: 0.0004761219024658203
ell 800, elapsed: 0.0004470348358154297
ell 799, elapsed: 0.0004451274871826172
ell 798, elapsed: 0.0004620552062988281
ell 702, elapsed: 0.007921218872070312
ell 701, elapsed: 0.0008308887481689453
ell 700, elapsed: 0.0006330013275146484
ell 699, elapsed: 0.0006320476531982422
ell 698, elapsed: 0.0005981922149658203
ell 602, elapsed: 0.007539033889770508
ell 601, elapsed: 0.0006449222564697266
ell 600, elapsed: 0.0007779598236083984
ell 599, elapsed: 0.0007419586181640625
ell 598, elapsed: 0.0005950927734375
ell 502, elapsed: 0.009618043899536133
ell 501, elapsed: 0.0005970001220703125
ell 500, elapsed: 0.0006718635559082031
ell 499, elapsed: 0.0006759166717529297
ell 498, elapsed: 0.00044989585876464844
ell 402, elapsed: 0.006700992584228516
ell 401, elapsed: 0.0004010200500488281
ell 400, elapsed: 0.0004379749298095703
ell 399, elapsed: 0.00039696693420410156
ell 398, elapsed: 0.00039505958557128906
ell 302, elapsed: 0.006573915481567383
ell 301, elapsed: 0.0004329681396484375
ell 300, elapsed: 0.0005431175231933594
ell 299, elapsed: 0.0004968643188476562
ell 298, elapsed: 0.0004048347473144531
ell 202, elapsed: 0.0066950321197509766
ell 201, elapsed: 0.0006248950958251953
ell 200, elapsed: 0.0003991127014160156
ell 199, elapsed: 0.0003960132598876953
ell 198, elapsed: 0.0004010200500488281
ell 152, elapsed: 0.0033440589904785156
ell 151, elapsed: 0.0003960132598876953
ell 150, elapsed: 0.0003981590270996094
ell 149, elapsed: 0.0003981590270996094
ell 148, elapsed: 0.00043201446533203125
ell 127, elapsed: 0.0018548965454101562
ell 126, elapsed: 0.0003991127014160156
ell 125, elapsed: 0.0003960132598876953
ell 124, elapsed: 0.0003960132598876953
ell 123, elapsed: 0.00039696693420410156
ell 114, elapsed: 0.0009970664978027344
ell 113, elapsed: 0.00039505958557128906
ell 112, elapsed: 0.0003921985626220703
ell 111, elapsed: 0.00039696693420410156
ell 110, elapsed: 0.000392913818359375
ell 102, elapsed: 0.000985860824584961
ell 101, elapsed: 0.00043487548828125
ell 100, elapsed: 0.00039505958557128906
ell 99, elapsed: 0.00039505958557128906
ell 98, elapsed: 0.00039386749267578125
ell 97, elapsed: 0.00044417381286621094
ell 96, elapsed: 0.0005471706390380859
ell 95, elapsed: 0.00044798851013183594
ell 94, elapsed: 0.0005390644073486328
ell 93, elapsed: 0.0004849433898925781
ell 92, elapsed: 0.0005338191986083984
ell 91, elapsed: 0.0004429817199707031
ell 90, elapsed: 0.0005288124084472656
ell 89, elapsed: 0.0004429817199707031
ell 88, elapsed: 0.0005249977111816406
ell 87, elapsed: 0.00044798851013183594
ell 86, elapsed: 0.0005819797515869141
ell 85, elapsed: 0.0004429817199707031
ell 84, elapsed: 0.0005319118499755859
ell 83, elapsed: 0.0004439353942871094
ell 82, elapsed: 0.0005328655242919922
ell 81, elapsed: 0.0004451274871826172
ell 80, elapsed: 0.0005280971527099609
ell 79, elapsed: 0.0004930496215820312
ell 78, elapsed: 0.0005340576171875
ell 77, elapsed: 0.0004470348358154297
ell 76, elapsed: 0.0005431175231933594
ell 75, elapsed: 0.00044608116149902344
ell 74, elapsed: 0.0005390644073486328
ell 73, elapsed: 0.0004451274871826172
ell 72, elapsed: 0.0005750656127929688
ell 71, elapsed: 0.00044798851013183594
ell 70, elapsed: 0.0005340576171875
ell 69, elapsed: 0.0004448890686035156
ell 68, elapsed: 0.0005271434783935547
ell 67, elapsed: 0.0004439353942871094
ell 66, elapsed: 0.0005300045013427734
ell 65, elapsed: 0.0004868507385253906
ell 64, elapsed: 0.0005500316619873047
ell 63, elapsed: 0.0004420280456542969
ell 62, elapsed: 0.0005369186401367188
ell 61, elapsed: 0.0004439353942871094
ell 60, elapsed: 0.0005381107330322266
ell 59, elapsed: 0.0004470348358154297
ell 58, elapsed: 0.0005781650543212891
ell 57, elapsed: 0.0005791187286376953
ell 56, elapsed: 0.0007030963897705078
ell 55, elapsed: 0.0004482269287109375
ell 54, elapsed: 0.0005328655242919922
ell 53, elapsed: 0.0004439353942871094
ell 52, elapsed: 0.0005278587341308594
ell 51, elapsed: 0.0004980564117431641
ell 50, elapsed: 0.0008361339569091797
ell 49, elapsed: 0.00047206878662109375
ell 48, elapsed: 0.0005681514739990234
ell 47, elapsed: 0.0004379749298095703
ell 46, elapsed: 0.0005497932434082031
ell 45, elapsed: 0.0005009174346923828
ell 44, elapsed: 0.0007791519165039062
ell 43, elapsed: 0.0005371570587158203
ell 42, elapsed: 0.0007648468017578125
ell 41, elapsed: 0.00044798851013183594
ell 40, elapsed: 0.0005340576171875
ell 39, elapsed: 0.0004730224609375
ell 38, elapsed: 0.0008270740509033203
ell 37, elapsed: 0.0004591941833496094
ell 36, elapsed: 0.0005390644073486328
ell 35, elapsed: 0.0004448890686035156
ell 34, elapsed: 0.0005309581756591797
ell 33, elapsed: 0.0004448890686035156
[...]
ell 788, elapsed: 0.0008749961853027344
ell 782, elapsed: 0.0016350746154785156
ell 781, elapsed: 0.0008189678192138672
ell 780, elapsed: 0.0008220672607421875
ell 779, elapsed: 0.0008502006530761719
ell 778, elapsed: 0.0008108615875244141
ell 772, elapsed: 0.0016529560089111328
ell 771, elapsed: 0.0008409023284912109
ell 770, elapsed: 0.0008258819580078125
ell 769, elapsed: 0.0008168220520019531
ell 768, elapsed: 0.000823974609375
ell 762, elapsed: 0.0018429756164550781
ell 761, elapsed: 0.0009489059448242188
ell 760, elapsed: 0.0009520053863525391
ell 759, elapsed: 0.0009160041809082031
ell 758, elapsed: 0.0008211135864257812
ell 752, elapsed: 0.0016369819641113281
ell 751, elapsed: 0.0008199214935302734
ell 750, elapsed: 0.0009980201721191406
ell 749, elapsed: 0.000949859619140625
ell 748, elapsed: 0.000946044921875
ell 742, elapsed: 0.001722097396850586
ell 741, elapsed: 0.0008249282836914062
ell 740, elapsed: 0.0008199214935302734
ell 739, elapsed: 0.0008180141448974609
ell 738, elapsed: 0.0009949207305908203
ell 732, elapsed: 0.0017390251159667969
ell 731, elapsed: 0.0008189678192138672
ell 730, elapsed: 0.0008189678192138672
ell 729, elapsed: 0.0008380413055419922
ell 728, elapsed: 0.0008151531219482422
ell 722, elapsed: 0.0016491413116455078
ell 721, elapsed: 0.0008721351623535156
ell 720, elapsed: 0.000820159912109375
ell 719, elapsed: 0.0008230209350585938
ell 718, elapsed: 0.0008218288421630859
ell 712, elapsed: 0.0016939640045166016
ell 711, elapsed: 0.0008220672607421875
ell 710, elapsed: 0.0008130073547363281
ell 709, elapsed: 0.0008101463317871094
ell 708, elapsed: 0.0008690357208251953
ell 702, elapsed: 0.0016360282897949219
ell 701, elapsed: 0.0008120536804199219
ell 700, elapsed: 0.0008161067962646484
ell 699, elapsed: 0.0008718967437744141
ell 698, elapsed: 0.0008149147033691406
ell 692, elapsed: 0.0016410350799560547
ell 691, elapsed: 0.0008668899536132812
ell 690, elapsed: 0.0008199214935302734
ell 689, elapsed: 0.0008158683776855469
ell 688, elapsed: 0.0008170604705810547
ell 682, elapsed: 0.0016779899597167969
ell 681, elapsed: 0.0008268356323242188
ell 680, elapsed: 0.0008149147033691406
ell 679, elapsed: 0.0008120536804199219
ell 678, elapsed: 0.0008149147033691406
ell 672, elapsed: 0.0016450881958007812
ell 671, elapsed: 0.0008199214935302734
ell 670, elapsed: 0.0008220672607421875
ell 669, elapsed: 0.0008711814880371094
ell 668, elapsed: 0.0008301734924316406
ell 662, elapsed: 0.0016558170318603516
ell 661, elapsed: 0.0008180141448974609
ell 660, elapsed: 0.0008699893951416016
ell 659, elapsed: 0.0008170604705810547
ell 658, elapsed: 0.0008211135864257812
ell 652, elapsed: 0.0016868114471435547
ell 651, elapsed: 0.0008208751678466797
ell 650, elapsed: 0.0008211135864257812
ell 649, elapsed: 0.0008151531219482422
ell 648, elapsed: 0.0008199214935302734
ell 642, elapsed: 0.001680135726928711
ell 641, elapsed: 0.0008192062377929688
ell 640, elapsed: 0.0008220672607421875
ell 639, elapsed: 0.0008759498596191406
ell 638, elapsed: 0.0008251667022705078
ell 632, elapsed: 0.0016717910766601562
ell 631, elapsed: 0.0008220672607421875
ell 630, elapsed: 0.0008711814880371094
ell 629, elapsed: 0.0008211135864257812
ell 628, elapsed: 0.0008218288421630859
ell 622, elapsed: 0.0017108917236328125
ell 621, elapsed: 0.000823974609375
ell 620, elapsed: 0.000823974609375
ell 619, elapsed: 0.0008149147033691406
ell 618, elapsed: 0.0008211135864257812
ell 612, elapsed: 0.0017139911651611328
ell 611, elapsed: 0.000823974609375
ell 610, elapsed: 0.000820159912109375
ell 609, elapsed: 0.0008320808410644531
ell 608, elapsed: 0.0008170604705810547
ell 602, elapsed: 0.0016279220581054688
ell 601, elapsed: 0.0008180141448974609
ell 600, elapsed: 0.0008718967437744141
ell 599, elapsed: 0.0008139610290527344
ell 598, elapsed: 0.0008189678192138672
ell 592, elapsed: 0.0016210079193115234
ell 591, elapsed: 0.0008101463317871094
ell 590, elapsed: 0.0008180141448974609
ell 589, elapsed: 0.0008220672607421875
ell 588, elapsed: 0.0008220672607421875
ell 582, elapsed: 0.0016961097717285156
ell 581, elapsed: 0.0008180141448974609
ell 580, elapsed: 0.002496957778930664
ell 579, elapsed: 0.0008139610290527344
ell 578, elapsed: 0.0008170604705810547
ell 572, elapsed: 0.0017120838165283203
ell 571, elapsed: 0.0008199214935302734
ell 570, elapsed: 0.000820159912109375
ell 569, elapsed: 0.0008158683776855469
ell 568, elapsed: 0.0008158683776855469
ell 562, elapsed: 0.0016927719116210938
ell 561, elapsed: 0.0008161067962646484
ell 560, elapsed: 0.0008180141448974609
ell 559, elapsed: 0.000865936279296875
ell 558, elapsed: 0.0008220672607421875
ell 552, elapsed: 0.0016460418701171875
ell 551, elapsed: 0.0008080005645751953
ell 550, elapsed: 0.0008769035339355469
ell 549, elapsed: 0.0008261203765869141
ell 548, elapsed: 0.0008389949798583984
ell 542, elapsed: 0.001722097396850586
ell 541, elapsed: 0.0008130073547363281
ell 540, elapsed: 0.0008189678192138672
ell 539, elapsed: 0.0008177757263183594
ell 538, elapsed: 0.0008218288421630859
ell 532, elapsed: 0.001734018325805664
ell 531, elapsed: 0.0008208751678466797
ell 530, elapsed: 0.0008180141448974609
ell 529, elapsed: 0.0009210109710693359
ell 528, elapsed: 0.0008189678192138672
ell 522, elapsed: 0.0016489028930664062
ell 521, elapsed: 0.000823974609375
ell 520, elapsed: 0.0008678436279296875
ell 519, elapsed: 0.0008249282836914062
ell 518, elapsed: 0.0008170604705810547
ell 512, elapsed: 0.0017130374908447266
ell 511, elapsed: 0.0008230209350585938
ell 510, elapsed: 0.0008220672607421875
ell 509, elapsed: 0.0008130073547363281
ell 508, elapsed: 0.0008139610290527344
ell 502, elapsed: 0.0016980171203613281
ell 501, elapsed: 0.0008118152618408203
ell 500, elapsed: 0.0008230209350585938
ell 499, elapsed: 0.0008730888366699219
ell 498, elapsed: 0.0008189678192138672
ell 492, elapsed: 0.0016460418701171875
ell 491, elapsed: 0.0008108615875244141
ell 490, elapsed: 0.0008711814880371094
ell 489, elapsed: 0.0008208751678466797
ell 488, elapsed: 0.0008227825164794922
ell 482, elapsed: 0.0016808509826660156
ell 481, elapsed: 0.0008399486541748047
ell 480, elapsed: 0.0008230209350585938
ell 479, elapsed: 0.0008230209350585938
ell 478, elapsed: 0.0008189678192138672
ell 472, elapsed: 0.001695871353149414
ell 471, elapsed: 0.0008389949798583984
ell 470, elapsed: 0.0008199214935302734
ell 469, elapsed: 0.0008690357208251953
ell 468, elapsed: 0.0008280277252197266
ell 462, elapsed: 0.0016369819641113281
ell 461, elapsed: 0.0008230209350585938
ell 460, elapsed: 0.0008800029754638672
ell 459, elapsed: 0.0008211135864257812
ell 458, elapsed: 0.0008189678192138672
ell 452, elapsed: 0.0016849040985107422
ell 451, elapsed: 0.0008268356323242188
ell 450, elapsed: 0.000823974609375
ell 449, elapsed: 0.0008211135864257812
ell 448, elapsed: 0.0008208751678466797
ell 442, elapsed: 0.0016548633575439453
ell 441, elapsed: 0.0008199214935302734
ell 440, elapsed: 0.0008270740509033203
ell 439, elapsed: 0.0008440017700195312
ell 438, elapsed: 0.0008368492126464844
ell 432, elapsed: 0.0016279220581054688
ell 431, elapsed: 0.0008220672607421875
ell 430, elapsed: 0.0008480548858642578
ell 429, elapsed: 0.0008170604705810547
ell 428, elapsed: 0.0008199214935302734
ell 422, elapsed: 0.0016469955444335938
ell 421, elapsed: 0.0008280277252197266
ell 420, elapsed: 0.0008220672607421875
ell 419, elapsed: 0.0007908344268798828
ell 418, elapsed: 0.0008039474487304688
ell 412, elapsed: 0.001567840576171875
ell 411, elapsed: 0.0007750988006591797
ell 410, elapsed: 0.0008032321929931641
ell 409, elapsed: 0.0008139610290527344
ell 408, elapsed: 0.0008208751678466797
ell 402, elapsed: 0.0015740394592285156
ell 401, elapsed: 0.0008130073547363281
ell 400, elapsed: 0.0008938312530517578
ell 399, elapsed: 0.0008549690246582031
ell 398, elapsed: 0.0008080005645751953
ell 392, elapsed: 0.0015878677368164062
ell 391, elapsed: 0.0008869171142578125
ell 390, elapsed: 0.0008070468902587891
ell 389, elapsed: 0.0007967948913574219
ell 388, elapsed: 0.0008151531219482422
ell 382, elapsed: 0.00168609619140625
ell 381, elapsed: 0.0007979869842529297
ell 380, elapsed: 0.00080108642578125
ell 379, elapsed: 0.0008130073547363281
ell 378, elapsed: 0.0009109973907470703
ell 372, elapsed: 0.0016200542449951172
ell 371, elapsed: 0.0008029937744140625
ell 370, elapsed: 0.0007929801940917969
ell 369, elapsed: 0.0008900165557861328
ell 368, elapsed: 0.0008068084716796875
ell 362, elapsed: 0.0015821456909179688
ell 361, elapsed: 0.0008890628814697266
ell 360, elapsed: 0.0007660388946533203
ell 359, elapsed: 0.0007898807525634766
ell 358, elapsed: 0.0007829666137695312
ell 352, elapsed: 0.0016398429870605469
ell 351, elapsed: 0.0008060932159423828
ell 350, elapsed: 0.0008149147033691406
ell 349, elapsed: 0.0008070468902587891
ell 348, elapsed: 0.0008029937744140625
ell 342, elapsed: 0.0015897750854492188
ell 341, elapsed: 0.0007879734039306641
ell 340, elapsed: 0.0007939338684082031
ell 339, elapsed: 0.0012378692626953125
ell 338, elapsed: 0.0008149147033691406
ell 332, elapsed: 0.0016210079193115234
ell 331, elapsed: 0.0012040138244628906
ell 330, elapsed: 0.0008261203765869141
ell 329, elapsed: 0.0008230209350585938
ell 328, elapsed: 0.0008039474487304688
ell 322, elapsed: 0.0021920204162597656
ell 321, elapsed: 0.0007739067077636719
ell 320, elapsed: 0.000804901123046875
ell 319, elapsed: 0.0011920928955078125
ell 318, elapsed: 0.0008020401000976562
ell 312, elapsed: 0.0016031265258789062
ell 311, elapsed: 0.0008020401000976562
ell 310, elapsed: 0.0008220672607421875
ell 309, elapsed: 0.0008080005645751953
ell 308, elapsed: 0.0008189678192138672
ell 302, elapsed: 0.001995086669921875
ell 301, elapsed: 0.0008099079132080078
ell 300, elapsed: 0.0008230209350585938
ell 299, elapsed: 0.0008070468902587891
ell 298, elapsed: 0.0012428760528564453
ell 292, elapsed: 0.001583099365234375
ell 291, elapsed: 0.0009918212890625
ell 290, elapsed: 0.0008270740509033203
ell 289, elapsed: 0.0008029937744140625
ell 288, elapsed: 0.0008108615875244141
ell 282, elapsed: 0.0015270709991455078
ell 281, elapsed: 0.0011420249938964844
ell 280, elapsed: 0.0006799697875976562
ell 279, elapsed: 0.0008051395416259766
ell 278, elapsed: 0.0008001327514648438
ell 272, elapsed: 0.002006053924560547
ell 271, elapsed: 0.0007908344268798828
ell 270, elapsed: 0.0008080005645751953
ell 269, elapsed: 0.0008821487426757812
ell 268, elapsed: 0.0008161067962646484
ell 262, elapsed: 0.001825094223022461
ell 261, elapsed: 0.0008108615875244141
ell 260, elapsed: 0.0008809566497802734
ell 259, elapsed: 0.0008141994476318359
ell 258, elapsed: 0.0008139610290527344
ell 252, elapsed: 0.0016880035400390625
ell 251, elapsed: 0.0008041858673095703
ell 250, elapsed: 0.0007998943328857422
ell 249, elapsed: 0.0008170604705810547
ell 248, elapsed: 0.0008170604705810547
ell 242, elapsed: 0.0016541481018066406
ell 241, elapsed: 0.0008211135864257812
ell 240, elapsed: 0.0008120536804199219
ell 239, elapsed: 0.0008769035339355469
ell 238, elapsed: 0.0008108615875244141
ell 232, elapsed: 0.001577138900756836
ell 231, elapsed: 0.0008101463317871094
ell 230, elapsed: 0.0008928775787353516
ell 229, elapsed: 0.0008111000061035156
ell 228, elapsed: 0.0008161067962646484
ell 222, elapsed: 0.0016770362854003906
ell 221, elapsed: 0.0008211135864257812
ell 220, elapsed: 0.0008120536804199219
ell 219, elapsed: 0.0008039474487304688
ell 218, elapsed: 0.0008130073547363281
ell 212, elapsed: 0.001650094985961914
ell 211, elapsed: 0.0008118152618408203
ell 210, elapsed: 0.0008211135864257812
ell 209, elapsed: 0.0008130073547363281
ell 208, elapsed: 0.0008091926574707031
ell 202, elapsed: 0.0015358924865722656
ell 201, elapsed: 0.0008060932159423828
ell 200, elapsed: 0.0008940696716308594
ell 199, elapsed: 0.000804901123046875
ell 198, elapsed: 0.0008029937744140625
ell 192, elapsed: 0.0015900135040283203
ell 191, elapsed: 0.0009250640869140625
ell 190, elapsed: 0.0007932186126708984
ell 189, elapsed: 0.0007970333099365234
ell 188, elapsed: 0.0008099079132080078
ell 182, elapsed: 0.001638174057006836
ell 181, elapsed: 0.0007979869842529297
ell 180, elapsed: 0.0007898807525634766
ell 179, elapsed: 0.0007929801940917969
ell 178, elapsed: 0.0009129047393798828
ell 172, elapsed: 0.0015821456909179688
ell 171, elapsed: 0.0008080005645751953
ell 170, elapsed: 0.0008101463317871094
ell 169, elapsed: 0.0008161067962646484
ell 168, elapsed: 0.0008060932159423828
ell 162, elapsed: 0.0015649795532226562
ell 161, elapsed: 0.0008730888366699219
ell 160, elapsed: 0.0008060932159423828
ell 159, elapsed: 0.0008151531219482422
ell 158, elapsed: 0.0007698535919189453
ell 152, elapsed: 0.0016589164733886719
ell 151, elapsed: 0.0008220672607421875
ell 150, elapsed: 0.0008039474487304688
ell 149, elapsed: 0.0008130073547363281
ell 148, elapsed: 0.0008950233459472656
ell 142, elapsed: 0.0015590190887451172
ell 141, elapsed: 0.0007989406585693359
ell 140, elapsed: 0.0008070468902587891
ell 139, elapsed: 0.0009260177612304688
ell 138, elapsed: 0.0007951259613037109
ell 132, elapsed: 0.0015749931335449219
ell 131, elapsed: 0.0008130073547363281
ell 130, elapsed: 0.0008139610290527344
ell 129, elapsed: 0.0007979869842529297
ell 128, elapsed: 0.0007920265197753906
ell 122, elapsed: 0.0016968250274658203
ell 121, elapsed: 0.0007929801940917969
ell 120, elapsed: 0.000804901123046875
ell 119, elapsed: 0.0008170604705810547
ell 118, elapsed: 0.0008158683776855469
ell 112, elapsed: 0.001683950424194336
ell 111, elapsed: 0.0008130073547363281
ell 110, elapsed: 0.0008089542388916016
ell 109, elapsed: 0.0008859634399414062
ell 108, elapsed: 0.0008170604705810547
ell 102, elapsed: 0.0015859603881835938
ell 101, elapsed: 0.0035300254821777344
ell 100, elapsed: 0.003576040267944336
ell 99, elapsed: 0.0032379627227783203
ell 98, elapsed: 0.003052949905395508
ell 92, elapsed: 0.00652003288269043
ell 91, elapsed: 0.003314971923828125
ell 90, elapsed: 0.003159046173095703
ell 89, elapsed: 0.003749847412109375
ell 88, elapsed: 0.0028028488159179688
ell 82, elapsed: 0.005941867828369141
ell 81, elapsed: 0.0033049583435058594
ell 80, elapsed: 0.003242969512939453
ell 79, elapsed: 0.0029439926147460938
ell 78, elapsed: 0.0031981468200683594
ell 72, elapsed: 0.005832195281982422
ell 71, elapsed: 0.0024559497833251953
ell 70, elapsed: 0.0031960010528564453
ell 69, elapsed: 0.0033299922943115234
ell 68, elapsed: 0.002969980239868164
ell 62, elapsed: 0.006148099899291992
ell 61, elapsed: 0.003130197525024414
ell 60, elapsed: 0.0030031204223632812
ell 59, elapsed: 0.0033440589904785156
ell 58, elapsed: 0.0031881332397460938
ell 52, elapsed: 0.0060939788818359375
ell 51, elapsed: 0.0031058788299560547
ell 50, elapsed: 0.00298309326171875
ell 49, elapsed: 0.0029180049896240234
ell 48, elapsed: 0.0033118724822998047
ell 42, elapsed: 0.0061681270599365234
ell 41, elapsed: 0.0029587745666503906
ell 40, elapsed: 0.0033049583435058594
ell 39, elapsed: 0.0032880306243896484
ell 38, elapsed: 0.0033080577850341797
ell 32, elapsed: 0.0064427852630615234
ell 31, elapsed: 0.003339052200317383
ell 30, elapsed: 0.0033180713653564453
ell 29, elapsed: 0.0031561851501464844
ell 28, elapsed: 0.003101825714111328
ell 22, elapsed: 0.006218910217285156
ell 21, elapsed: 0.004210948944091797
ell 20, elapsed: 0.004060029983520508
ell 19, elapsed: 0.003336191177368164
ell 18, elapsed: 0.0029239654541015625
ell 12, elapsed: 0.004246950149536133
ell 11, elapsed: 0.0020580291748046875
ell 10, elapsed: 0.0031909942626953125
ell 9, elapsed: 0.0041961669921875
ell 8, elapsed: 0.00360107421875
  0.814602 seconds (74.14 k allocations: 12.051 MiB, 0.71% gc time)
elapsed: 0.003959178924560547
step:          0.076864 sec (0 allocations: 0 byte, 0.0% gc time)
swapping:      0.000726 sec (0 allocations: 0 byte, 0.0% gc time)
calc_Mellell!: 0.037653 sec (0 allocations: 0 byte, 0.0% gc time)
  t0 :  0.010107 sec (0 allocations: 0 byte, 0.0% gc time)
  tm2 : 0.071321 sec (0 allocations: 0 byte, 0.0% gc time)
  tm2s: 0.008696 sec (0 allocations: 0 byte, 0.0% gc time)
  tm4 : 0.193572 sec (0 allocations: 0 byte, 0.0% gc time)
  tp2 : 0.0 sec (0 allocations: 0 byte, 0.0% gc time)
  tp2s: 0.0 sec (0 allocations: 0 byte, 0.0% gc time)
  tp4 : 0.0 sec (0 allocations: 0 byte, 0.0% gc time)
calc_wtdll!:   0.538144 sec (49.2 k allocations: 11.133 MB, 1.08% gc time)
calc_wljj!:    0.042653 sec (69 allocations: 1.078 KB, 0.0% gc time)
mult_prefac!:  0.0 sec (0 allocations: 0 byte, 0.0% gc time)
convert:       0.0 sec (0 allocations: 0 byte, 0.0% gc time)
write:         0.03648 sec (0 allocations: 0 byte, 0.0% gc time)
test_rand_2f1: 0.0 sec (0 allocations: 0 byte, 0.0% gc time)
Closing outfile out/MlCache/MlCache.bin...   0.000010 seconds
xi, l=0, nu=0:   0.410586 seconds (555.95 k allocations: 27.067 MiB, 3.81% gc time)
xi, l=0, nu=-2:  0.002842 seconds (144 allocations: 149.563 KiB)
Created 'out/xi.tsv'.
  q=1.1, R=0.6:	  1.324064 seconds (373.06 k allocations: 174.511 MiB, 5.04% gc time)
  q=1.1, R=0.7:	  1.346105 seconds (391.29 k allocations: 182.916 MiB, 1.90% gc time)
  q=1.1, R=0.8:	  1.423058 seconds (383.81 k allocations: 179.466 MiB, 1.92% gc time)
  q=1.1, R=0.9:	  1.204448 seconds (376.40 k allocations: 176.056 MiB, 1.53% gc time)
  q=1.1, R=0.998:	 20.408399 seconds (10.67 M allocations: 831.832 MiB, 0.46% gc time)
  q=1.1, R=1.0:	  0.052039 seconds (12.29 k allocations: 9.129 MiB)

ℓ = 1000
Δℓ = 4
ΔℓRg1 = -4
N = 4096
q = 1.1
kmin = 1.0e-5
kmax = 1000.0
χ0 = 0.001
RR = RR.tsv
ℓmax = ℓmax.bin
f21 = f21.bin
kmin = 1.0e-5
kmax = 1000.0
dlrec    = 4
dlrecRg1 = -4
Output size: 1573632 bytes = 0.0014655590057373047 GiB
Output size: 786816 bytes = 0.0007327795028686523 GiB
Reading 'out/F21EllCache'...   0.001907 seconds (272 allocations: 533.594 KiB)
ellmax: 1002
lmaxcache: 1000
fell[:,1,1] = Complex{Float64}[1.7262928128202118e-224 - 4.2281979352226944e-240im, 1.7282693092099662e-224 - 4.233038955177176e-240im]
ell 1002, elapsed: 3.695487976074219e-5
ell 1001, elapsed: 0.0017998218536376953
ell 1000, elapsed: 0.001405954360961914
ell 999, elapsed: 0.006526947021484375
ell 998, elapsed: 0.006489992141723633
ell 44, elapsed: 0.8392539024353027
ell 43, elapsed: 0.006140947341918945
ell 42, elapsed: 0.006042957305908203
ell 41, elapsed: 0.0060160160064697266
ell 40, elapsed: 0.005986928939819336
  0.887886 seconds (4.65 k allocations: 318.375 KiB)
elapsed: 0.007561922073364258
step:          0.836624 sec (0 allocations: 0 byte, 0.0% gc time)
swapping:      0.000542 sec (0 allocations: 0 byte, 0.0% gc time)
calc_Mellell!: 0.001706 sec (0 allocations: 0 byte, 0.0% gc time)
  t0 :  0.000943 sec (0 allocations: 0 byte, 0.0% gc time)
  tm2 : 0.010682 sec (0 allocations: 0 byte, 0.0% gc time)
  tm2s: 0.000793 sec (0 allocations: 0 byte, 0.0% gc time)
  tm4 : 0.030199 sec (0 allocations: 0 byte, 0.0% gc time)
  tp2 : 0.0 sec (0 allocations: 0 byte, 0.0% gc time)
  tp2s: 0.0 sec (0 allocations: 0 byte, 0.0% gc time)
  tp4 : 0.0 sec (0 allocations: 0 byte, 0.0% gc time)
calc_wtdll!:   0.04283 sec (480 allocations: 52.5 KB, 0.0% gc time)
calc_wljj!:    0.001873 sec (1 allocations: 16 byte, 0.0% gc time)
mult_prefac!:  0.0 sec (0 allocations: 0 byte, 0.0% gc time)
convert:       0.0 sec (0 allocations: 0 byte, 0.0% gc time)
write:         0.00121 sec (0 allocations: 0 byte, 0.0% gc time)
test_rand_2f1: 0.0 sec (0 allocations: 0 byte, 0.0% gc time)
Closing outfile out/MlCache/MlCache.bin...   0.002149 seconds
  0.559141 seconds (54 allocations: 67.203 KiB)
make_phi():   0.011319 seconds (80 allocations: 276.297 KiB)
  0.004402 seconds (108 allocations: 5.813 KiB)
tskip:       1.0e-6 sec (0 allocations: 0 byte, 0.0% gc time)
tread:       0.000769 sec (20 allocations: 1.328 KB, 0.0% gc time)
tmultphi:    0.000471 sec (0 allocations: 0 byte, 0.0% gc time)
tbrfft:      0.001532 sec (96 allocations: 4.5 KB, 0.0% gc time)
tmultprefac: 0.001479 sec (0 allocations: 0 byte, 0.0% gc time)
toutfunc:    0.0003 sec (0 allocations: 0 byte, 0.0% gc time)
Created 'out/wl42_jj00.tsv'.
Created 'out/wl42_jj02.tsv'.
   Testing TwoFAST tests passed 
