Julia Version 1.6.0-DEV.1048
Commit 04a5be7554 (2020-09-25 12:35 UTC)
Platform Info:
  OS: Linux (x86_64-linux-gnu)
  CPU: Intel(R) Xeon(R) Silver 4114 CPU @ 2.20GHz
  WORD_SIZE: 64
  LIBM: libopenlibm
  LLVM: libLLVM-10.0.1 (ORCJIT, skylake-avx512)
Environment:
  JULIA_DEPOT_PATH = ::/usr/local/share/julia
  JULIA_NUM_THREADS = 2

  Resolving package versions...
  Installed Reexport ───────────────────── v0.2.0
  Installed IntelOpenMP_jll ────────────── v2018.0.3+0
  Installed OpenSpecFun_jll ────────────── v0.5.3+3
  Installed AbstractFFTs ───────────────── v0.5.0
  Installed CompilerSupportLibraries_jll ─ v0.3.3+0
  Installed SpecialFunctions ───────────── v0.10.3
  Installed BinaryProvider ─────────────── v0.5.10
  Installed GenericSVD ─────────────────── v0.3.0
  Installed FFTW_jll ───────────────────── v3.3.9+5
  Installed ArbNumerics ────────────────── v1.2.1
  Installed FFTW ───────────────────────── v1.2.4
  Installed TwoFAST ────────────────────── v0.1.3
  Installed MKL_jll ────────────────────── v2020.2.254+0
  Installed GenericSchur ───────────────── v0.4.0
  Installed Readables ──────────────────── v0.3.3
Updating `~/.julia/environments/v1.6/Project.toml`
  [0dd23c3e] + TwoFAST v0.1.3
Updating `~/.julia/environments/v1.6/Manifest.toml`
  [621f4979] + AbstractFFTs v0.5.0
  [7e558dbc] + ArbNumerics v1.2.1
  [b99e7846] + BinaryProvider v0.5.10
  [e66e0078] + CompilerSupportLibraries_jll v0.3.3+0
  [7a1cc6ca] + FFTW v1.2.4
  [f5851436] + FFTW_jll v3.3.9+5
  [01680d73] + GenericSVD v0.3.0
  [c145ed77] + GenericSchur v0.4.0
  [1d5cc7b8] + IntelOpenMP_jll v2018.0.3+0
  [856f044c] + MKL_jll v2020.2.254+0
  [efe28fd5] + OpenSpecFun_jll v0.5.3+3
  [0d4725de] + Readables v0.3.3
  [189a3867] + Reexport v0.2.0
  [276daf66] + SpecialFunctions v0.10.3
  [0dd23c3e] + TwoFAST v0.1.3
  [56f22d72] + Artifacts
  [2a0f44e3] + Base64
  [ade2ca70] + Dates
  [8bb1440f] + DelimitedFiles
  [8ba89e20] + Distributed
  [b77e0a4c] + InteractiveUtils
  [76f85450] + LibGit2
  [8f399da3] + Libdl
  [37e2e46d] + LinearAlgebra
  [56ddb016] + Logging
  [d6f4376e] + Markdown
  [a63ad114] + Mmap
  [44cfe95a] + Pkg
  [de0858da] + Printf
  [3fa0cd96] + REPL
  [9a3f8284] + Random
  [ea8e919c] + SHA
  [9e88b42a] + Serialization
  [6462fe0b] + Sockets
  [fa267f1f] + TOML
  [8dfed614] + Test
  [cf7118a7] + UUIDs
  [4ec0a83e] + Unicode
   Building FFTW ───────→ `~/.julia/packages/FFTW/DMUbN/deps/build.log`
   Building ArbNumerics → `~/.julia/packages/ArbNumerics/joGFm/deps/build.log`
    Testing TwoFAST
Status `/tmp/jl_mSYFPg/Project.toml`
  [7e558dbc] ArbNumerics v1.2.1
  [39dd38d3] Dierckx v0.5.0
  [7a1cc6ca] FFTW v1.2.4
  [276daf66] SpecialFunctions v0.10.3
  [0dd23c3e] TwoFAST v0.1.3
  [8bb1440f] DelimitedFiles
  [37e2e46d] LinearAlgebra
  [56ddb016] Logging
  [8dfed614] Test
Status `/tmp/jl_mSYFPg/Manifest.toml`
  [621f4979] AbstractFFTs v0.5.0
  [7e558dbc] ArbNumerics v1.2.1
  [b99e7846] BinaryProvider v0.5.10
  [e66e0078] CompilerSupportLibraries_jll v0.3.3+0
  [39dd38d3] Dierckx v0.5.0
  [cd4c43a9] Dierckx_jll v0.0.1+0
  [7a1cc6ca] FFTW v1.2.4
  [f5851436] FFTW_jll v3.3.9+5
  [01680d73] GenericSVD v0.3.0
  [c145ed77] GenericSchur v0.4.0
  [1d5cc7b8] IntelOpenMP_jll v2018.0.3+0
  [856f044c] MKL_jll v2020.2.254+0
  [efe28fd5] OpenSpecFun_jll v0.5.3+3
  [0d4725de] Readables v0.3.3
  [189a3867] Reexport v0.2.0
  [276daf66] SpecialFunctions v0.10.3
  [0dd23c3e] TwoFAST v0.1.3
  [56f22d72] Artifacts
  [2a0f44e3] Base64
  [ade2ca70] Dates
  [8bb1440f] DelimitedFiles
  [8ba89e20] Distributed
  [b77e0a4c] InteractiveUtils
  [76f85450] LibGit2
  [8f399da3] Libdl
  [37e2e46d] LinearAlgebra
  [56ddb016] Logging
  [d6f4376e] Markdown
  [a63ad114] Mmap
  [44cfe95a] Pkg
  [de0858da] Printf
  [3fa0cd96] REPL
  [9a3f8284] Random
  [ea8e919c] SHA
  [9e88b42a] Serialization
  [6462fe0b] Sockets
  [fa267f1f] TOML
  [8dfed614] Test
  [cf7118a7] UUIDs
  [4ec0a83e] Unicode
    Testing Running tests...
WARNING: could not import Printf.ini_hex into ArbNumerics
WARNING: could not import Printf.ini_HEX into ArbNumerics
t = 0.0 sec (0 allocations: 0 byte, 0.0% gc time)
typeof(t) = NamedTuple{(:value, :time, :bytes, :gctime, :gcstats), Tuple{DataType, Float64, Int64, Float64, Base.GC_Diff}}
TwoFAST.PerformanceStats.TimedType = Union{NamedTuple{(:value, :time, :bytes, :gctime, :gcstats), Tuple{T, Float64, Int64, Float64, Base.GC_Diff}}, Tuple{Any, Float64, Int64, Float64, Base.GC_Diff}} where T
t = 1.0e-6 sec (0 allocations: 0 byte, 0.0% gc time)
t: 1.0e-6 sec (0 allocations: 0 byte, 0.0% gc time)
Testing ξ(r), ℓ=0, ν=-1 ... passed
Testing ξ(r), ℓ=0, ν=0 ... passed
Testing ξ(r), ℓ=0, ν=1 ... passed
Testing ξ(r), ℓ=0, ν=2 ... passed
Testing ξ(r), ℓ=0, ν=3 ... passed
Testing ξ(r), ℓ=1, ν=0 ... passed
Testing ξ(r), ℓ=1, ν=1 ... passed
Testing ξ(r), ℓ=1, ν=2 ... passed
Testing ξ(r), ℓ=1, ν=3 ... passed
Testing ξ(r), ℓ=2, ν=-1 ... passed
Testing ξ(r), ℓ=2, ν=0 ... passed
Testing ξ(r), ℓ=2, ν=1 ... passed
Testing ξ(r), ℓ=2, ν=2 ... passed
Testing ξ(r), ℓ=2, ν=3 ... passed
Testing ξ(r), ℓ=3, ν=-1 ... passed
Testing ξ(r), ℓ=3, ν=0 ... passed
Testing ξ(r), ℓ=3, ν=1 ... passed
Testing ξ(r), ℓ=3, ν=2 ... passed
Testing ξ(r), ℓ=3, ν=3 ... passed
Testing ξ(r), ℓ=4, ν=-1 ... passed
Testing ξ(r), ℓ=4, ν=0 ... passed
Testing ξ(r), ℓ=4, ν=1 ... passed
Testing ξ(r), ℓ=4, ν=2 ... passed
Testing ξ(r), ℓ=4, ν=3 ... passed
Testing ξ(r) ... passed
Testing ξ′(r) ... passed
Testing ξ″(r) ... passed
Calculating fmax: 
  dlrec    = 4
  dlrecRg1 = -4
  q=1.1, R=1.1:	  4.358064 seconds (843.09 k allocations: 53.901 MiB, 1.03% gc time)

  4.373852 seconds (855.76 k allocations: 54.691 MiB, 1.02% gc time)
ℓ = 1202
Δℓ = 4
ΔℓRg1 = -4
N = 1600
q = 1.1
kmin = 1.0e-5
kmax = 100000.00000000004
χ0 = 0.023029999999999995
RR = RR.tsv
ℓmax = ℓmax.bin
f21 = f21.bin
kmin = 1.0e-5
kmax = 100000.0
dlrec    = 4
dlrecRg1 = -4
Output size: 5741568 bytes = 0.005347251892089844 GiB
Output size: 51264 bytes = 4.774332046508789e-5 GiB
Reading 'out/F21EllCache'...   0.640132 seconds (395.09 k allocations: 23.195 MiB, 3.53% gc time)
ellmax: 1202
lmaxcache: 1202
fell[:,1,1] = ComplexF64[3.9583795592771634e-52 - 9.695233714158177e-68im, 3.990121772925759e-52 - 9.772979714843386e-68im]
ell 1202, elapsed: 7.796287536621094e-5
ell 1201, elapsed: 1.264254093170166
ell 1200, elapsed: 0.0007750988006591797
ell 1199, elapsed: 0.0006339550018310547
ell 1198, elapsed: 0.0006039142608642578
ell 1002, elapsed: 0.010686159133911133
ell 1001, elapsed: 0.0006301403045654297
ell 1000, elapsed: 0.0005500316619873047
ell 999, elapsed: 0.0006101131439208984
ell 998, elapsed: 0.0006830692291259766
ell 902, elapsed: 0.005652904510498047
ell 901, elapsed: 0.0005810260772705078
ell 900, elapsed: 0.0005478858947753906
ell 899, elapsed: 0.0006837844848632812
ell 898, elapsed: 0.0006709098815917969
ell 802, elapsed: 0.005872011184692383
ell 801, elapsed: 0.0006318092346191406
ell 800, elapsed: 0.0006949901580810547
ell 799, elapsed: 0.0006358623504638672
ell 798, elapsed: 0.0006361007690429688
ell 702, elapsed: 0.005777835845947266
ell 701, elapsed: 0.0006129741668701172
ell 700, elapsed: 0.0005679130554199219
ell 699, elapsed: 0.0006201267242431641
ell 698, elapsed: 0.0005779266357421875
ell 602, elapsed: 0.0053369998931884766
ell 601, elapsed: 0.0005700588226318359
ell 600, elapsed: 0.0005640983581542969
ell 599, elapsed: 0.0005359649658203125
ell 598, elapsed: 0.0005350112915039062
ell 502, elapsed: 0.005433082580566406
ell 501, elapsed: 0.0005500316619873047
ell 500, elapsed: 0.0005369186401367188
ell 499, elapsed: 0.0005381107330322266
ell 498, elapsed: 0.0005331039428710938
ell 402, elapsed: 0.0053751468658447266
ell 401, elapsed: 0.0005970001220703125
ell 400, elapsed: 0.0005550384521484375
ell 399, elapsed: 0.0005519390106201172
ell 398, elapsed: 0.0005500316619873047
ell 302, elapsed: 0.0052340030670166016
ell 301, elapsed: 0.0005559921264648438
ell 300, elapsed: 0.0005409717559814453
ell 299, elapsed: 0.0005819797515869141
ell 298, elapsed: 0.0005428791046142578
ell 202, elapsed: 0.00525212287902832
ell 201, elapsed: 0.0005450248718261719
ell 200, elapsed: 0.0005359649658203125
ell 199, elapsed: 0.0005619525909423828
ell 198, elapsed: 0.0005519390106201172
ell 152, elapsed: 0.0029201507568359375
ell 151, elapsed: 0.0005440711975097656
ell 150, elapsed: 0.0005440711975097656
ell 149, elapsed: 0.0005381107330322266
ell 148, elapsed: 0.0005328655242919922
ell 127, elapsed: 0.0016109943389892578
ell 126, elapsed: 0.0005362033843994141
ell 125, elapsed: 0.0005359649658203125
ell 124, elapsed: 0.0005350112915039062
ell 123, elapsed: 0.0005650520324707031
ell 114, elapsed: 0.0009999275207519531
ell 113, elapsed: 0.0005381107330322266
ell 112, elapsed: 0.0005362033843994141
ell 111, elapsed: 0.0005650520324707031
ell 110, elapsed: 0.0005848407745361328
ell 102, elapsed: 0.0010101795196533203
ell 101, elapsed: 0.000579833984375
ell 100, elapsed: 0.0005908012390136719
ell 99, elapsed: 0.0005929470062255859
ell 98, elapsed: 0.0005810260772705078
ell 97, elapsed: 0.000637054443359375
ell 96, elapsed: 0.0006039142608642578
ell 95, elapsed: 0.0006079673767089844
ell 94, elapsed: 0.0006120204925537109
ell 93, elapsed: 0.0006079673767089844
ell 92, elapsed: 0.0006020069122314453
ell 91, elapsed: 0.0006120204925537109
ell 90, elapsed: 0.0006051063537597656
ell 89, elapsed: 0.0006098747253417969
ell 88, elapsed: 0.0006101131439208984
ell 87, elapsed: 0.00061798095703125
ell 86, elapsed: 0.0006060600280761719
ell 85, elapsed: 0.0006010532379150391
ell 84, elapsed: 0.0006351470947265625
ell 83, elapsed: 0.0006060600280761719
ell 82, elapsed: 0.0006051063537597656
ell 81, elapsed: 0.0006031990051269531
ell 80, elapsed: 0.0006010532379150391
ell 79, elapsed: 0.00061798095703125
ell 78, elapsed: 0.0006089210510253906
ell 77, elapsed: 0.0006139278411865234
ell 76, elapsed: 0.0006051063537597656
ell 75, elapsed: 0.0006160736083984375
ell 74, elapsed: 0.0006010532379150391
ell 73, elapsed: 0.0006160736083984375
ell 72, elapsed: 0.0006060600280761719
ell 71, elapsed: 0.0006070137023925781
ell 70, elapsed: 0.0006082057952880859
ell 69, elapsed: 0.0006048679351806641
ell 68, elapsed: 0.0006110668182373047
ell 67, elapsed: 0.0006060600280761719
ell 66, elapsed: 0.0006110668182373047
ell 65, elapsed: 0.0006239414215087891
ell 64, elapsed: 0.0006201267242431641
ell 63, elapsed: 0.000637054443359375
ell 62, elapsed: 0.000598907470703125
ell 61, elapsed: 0.0006110668182373047
ell 60, elapsed: 0.0006160736083984375
ell 59, elapsed: 0.0006070137023925781
ell 58, elapsed: 0.0006089210510253906
ell 57, elapsed: 0.0006048679351806641
ell 56, elapsed: 0.0006108283996582031
ell 55, elapsed: 0.0006501674652099609
ell 54, elapsed: 0.0006229877471923828
ell 53, elapsed: 0.0006320476531982422
ell 52, elapsed: 0.0006458759307861328
ell 51, elapsed: 0.0006620883941650391
ell 50, elapsed: 0.0006368160247802734
ell 49, elapsed: 0.0006468296051025391
ell 48, elapsed: 0.0006690025329589844
ell 47, elapsed: 0.0006630420684814453
ell 46, elapsed: 0.0006651878356933594
ell 45, elapsed: 0.0006520748138427734
ell 44, elapsed: 0.0006120204925537109
ell 43, elapsed: 0.0006270408630371094
ell 42, elapsed: 0.0006089210510253906
ell 41, elapsed: 0.0006449222564697266
ell 40, elapsed: 0.0006189346313476562
ell 39, elapsed: 0.0006132125854492188
ell 38, elapsed: 0.0006139278411865234
ell 37, elapsed: 0.0006880760192871094
ell 36, elapsed: 0.0006709098815917969
ell 35, elapsed: 0.0006339550018310547
ell 34, elapsed: 0.0006580352783203125
ell 33, elapsed: 0.0006389617919921875
ell 32, elapsed: 0.0006809234619140625
ell 31, elapsed: 0.0006399154663085938
ell 30, elapsed: 0.0006489753723144531
ell 29, elapsed: 0.0006721019744873047
ell 28, elapsed: 0.0006639957427978516
ell 27, elapsed: 0.0006339550018310547
ell 26, elapsed: 0.0006220340728759766
ell 25, elapsed: 0.0006129741668701172
ell 24, elapsed: 0.0006167888641357422
ell 23, elapsed: 0.0006120204925537109
ell 22, elapsed: 0.000637054443359375
ell 21, elapsed: 0.0006229877471923828
ell 20, elapsed: 0.0007281303405761719
ell 19, elapsed: 0.0007450580596923828
ell 18, elapsed: 0.0006339550018310547
ell 17, elapsed: 0.00061798095703125
ell 16, elapsed: 0.0006248950958251953
ell 15, elapsed: 0.0006148815155029297
ell 14, elapsed: 0.0006279945373535156
ell 13, elapsed: 0.0006330013275146484
ell 12, elapsed: 0.0006339550018310547
ell 11, elapsed: 0.0006709098815917969
ell 10, elapsed: 0.0006799697875976562
ell 9, elapsed: 0.0007028579711914062
ell 8, elapsed: 0.0007319450378417969
ell 7, elapsed: 0.0007090568542480469
ell 6, elapsed: 0.000659942626953125
ell 5, elapsed: 0.0006270408630371094
ell 4, elapsed: 0.0006320476531982422
ell 3, elapsed: 0.0006649494171142578
ell 2, elapsed: 0.0006248950958251953
ell 1, elapsed: 0.0006120204925537109
ell 0, elapsed: 0.0006268024444580078
  1.947022 seconds (1.30 M allocations: 70.967 MiB, 2.36% gc time)
elapsed: 0.001394033432006836
step:          0.351209 sec (311.142 k allocations: 16.962 MB, 0.0% gc time)
swapping:      0.000529 sec (0 allocations: 0 byte, 0.0% gc time)
calc_Mellell!: 0.139729 sec (135.742 k allocations: 7.433 MB, 0.0% gc time)
  t0 :  0.0 sec (0 allocations: 0 byte, 0.0% gc time)
  tm2 : 0.0 sec (0 allocations: 0 byte, 0.0% gc time)
  tm2s: 0.0 sec (0 allocations: 0 byte, 0.0% gc time)
  tm4 : 0.0 sec (0 allocations: 0 byte, 0.0% gc time)
  tp2 : 0.0 sec (0 allocations: 0 byte, 0.0% gc time)
  tp2s: 0.0 sec (0 allocations: 0 byte, 0.0% gc time)
  tp4 : 0.0 sec (0 allocations: 0 byte, 0.0% gc time)
calc_wtdll!:   0.905261 sec (509.616 k allocations: 28.196 MB, 2.69% gc time)
calc_wljj!:    0.003656 sec (6 allocations: 96 byte, 0.0% gc time)
mult_prefac!:  0.0 sec (0 allocations: 0 byte, 0.0% gc time)
convert:       0.0 sec (0 allocations: 0 byte, 0.0% gc time)
write:         0.003962 sec (0 allocations: 0 byte, 0.0% gc time)
test_rand_2f1: 0.0 sec (0 allocations: 0 byte, 0.0% gc time)
Closing outfile out/Ml21-cache.bin...   0.000020 seconds
  1.127708 seconds (246.23 k allocations: 14.207 MiB)
make_phi():   0.013254 seconds (8.18 k allocations: 237.844 KiB)
  0.263467 seconds (87.57 k allocations: 4.748 MiB, 7.76% gc time)
tskip:       2.0e-5 sec (0 allocations: 0 byte, 0.0% gc time)
tread:       0.002823 sec (17 allocations: 2.125 KB, 0.0% gc time)
tmultphi:    0.043208 sec (21.425 k allocations: 1.287 MB, 0.0% gc time)
tbrfft:      0.004481 sec (0 allocations: 0 byte, 0.0% gc time)
tmultprefac: 0.002481 sec (0 allocations: 0 byte, 0.0% gc time)
toutfunc:    0.171679 sec (64.483 k allocations: 3.329 MB, 11.9% gc time)
Testing R=1.1 ... passed
Calculating fmax: 
  dlrec    = 4
  dlrecRg1 = -4
  q=1.1, R=1.0:	  0.001770 seconds (3.20 k allocations: 275.344 KiB)

  0.002923 seconds (3.34 k allocations: 311.422 KiB)
ℓ = 1202
Δℓ = 4
ΔℓRg1 = -4
N = 1600
q = 1.1
kmin = 1.0e-5
kmax = 100000.00000000004
χ0 = 0.023029999999999995
RR = RR.tsv
ℓmax = ℓmax.bin
f21 = f21.bin
kmin = 1.0e-5
kmax = 100000.0
dlrec    = 4
dlrecRg1 = -4
Output size: 61465536 bytes = 0.05724424123764038 GiB
Output size: 51264 bytes = 4.774332046508789e-5 GiB
Reading 'out/F21EllCache'...   0.001231 seconds (197 allocations: 84.203 KiB)
ellmax: 1202
lmaxcache: 1202
fell[:,1,1] = ComplexF64[809.6031528389767 - 1.9829558194077161e-13im, 0.0 + 0.0im]
ell 1202, elapsed: 9.799003601074219e-5
ell 1201, elapsed: 0.015915870666503906
ell 1200, elapsed: 0.015619993209838867
ell 1199, elapsed: 0.00041294097900390625
ell 1198, elapsed: 0.00043702125549316406
ell 1197, elapsed: 0.0005388259887695312
ell 1196, elapsed: 0.0004839897155761719
ell 1195, elapsed: 0.0005030632019042969
ell 1194, elapsed: 0.00049591064453125
ell 1193, elapsed: 0.0005400180816650391
ell 1192, elapsed: 0.0004699230194091797
ell 1191, elapsed: 0.000476837158203125
ell 1190, elapsed: 0.0005309581756591797
ell 1189, elapsed: 0.0005900859832763672
ell 1188, elapsed: 0.00043702125549316406
ell 1187, elapsed: 0.0005068778991699219
ell 1186, elapsed: 0.0005619525909423828
ell 1185, elapsed: 0.0004420280456542969
ell 1184, elapsed: 0.0005030632019042969
ell 1183, elapsed: 0.000514984130859375
ell 1182, elapsed: 0.0005381107330322266
ell 1181, elapsed: 0.0005080699920654297
ell 1180, elapsed: 0.0004909038543701172
ell 1179, elapsed: 0.0005040168762207031
ell 1178, elapsed: 0.0005021095275878906
ell 1177, elapsed: 0.0005090236663818359
ell 1176, elapsed: 0.0005168914794921875
ell 1175, elapsed: 0.0005400180816650391
ell 1174, elapsed: 0.0004820823669433594
ell 1173, elapsed: 0.0005559921264648438
ell 1172, elapsed: 0.0005400180816650391
ell 1171, elapsed: 0.0005319118499755859
ell 1170, elapsed: 0.0004999637603759766
ell 1169, elapsed: 0.0004889965057373047
ell 1168, elapsed: 0.0004901885986328125
ell 1167, elapsed: 0.00047707557678222656
ell 1166, elapsed: 0.0004961490631103516
ell 1165, elapsed: 0.0005068778991699219
ell 1164, elapsed: 0.000492095947265625
ell 1163, elapsed: 0.00048089027404785156
ell 1162, elapsed: 0.00047779083251953125
ell 1161, elapsed: 0.0005550384521484375
ell 1160, elapsed: 0.0004811286926269531
ell 1159, elapsed: 0.0005049705505371094
ell 1158, elapsed: 0.0005068778991699219
ell 1157, elapsed: 0.0004878044128417969
ell 1156, elapsed: 0.0005629062652587891
ell 1155, elapsed: 0.0005548000335693359
ell 1154, elapsed: 0.0004899501800537109
ell 1153, elapsed: 0.0005068778991699219
ell 1152, elapsed: 0.0005068778991699219
ell 1151, elapsed: 0.00046706199645996094
ell 1150, elapsed: 0.0005199909210205078
ell 1149, elapsed: 0.0004870891571044922
ell 1148, elapsed: 0.0004830360412597656
ell 1147, elapsed: 0.00046896934509277344
ell 1146, elapsed: 0.0004818439483642578
ell 1145, elapsed: 0.0004911422729492188
ell 1144, elapsed: 0.0004811286926269531
ell 1143, elapsed: 0.0004749298095703125
ell 1142, elapsed: 0.0005540847778320312
ell 1141, elapsed: 0.0004661083221435547
ell 1140, elapsed: 0.0005240440368652344
ell 1139, elapsed: 0.0005071163177490234
ell 1138, elapsed: 0.0004940032958984375
ell 1137, elapsed: 0.0004870891571044922
ell 1136, elapsed: 0.0005390644073486328
ell 1135, elapsed: 0.0004949569702148438
ell 1134, elapsed: 0.0005428791046142578
ell 1133, elapsed: 0.0005009174346923828
ell 1132, elapsed: 0.0004909038543701172
ell 1131, elapsed: 0.0004971027374267578
ell 1130, elapsed: 0.0004911422729492188
ell 1129, elapsed: 0.0004699230194091797
ell 1128, elapsed: 0.00047898292541503906
ell 1127, elapsed: 0.0004849433898925781
ell 1126, elapsed: 0.00049591064453125
ell 1125, elapsed: 0.00047588348388671875
ell 1124, elapsed: 0.0004949569702148438
ell 1123, elapsed: 0.0004980564117431641
ell 1122, elapsed: 0.0005140304565429688
ell 1121, elapsed: 0.0005290508270263672
ell 1120, elapsed: 0.0004889965057373047
ell 1119, elapsed: 0.0005090236663818359
ell 1118, elapsed: 0.0004699230194091797
ell 1117, elapsed: 0.0005288124084472656
ell 1116, elapsed: 0.00047707557678222656
ell 1115, elapsed: 0.0004858970642089844
ell 1114, elapsed: 0.0005040168762207031
ell 1113, elapsed: 0.0005090236663818359
ell 1112, elapsed: 0.0004849433898925781
ell 1111, elapsed: 0.0004818439483642578
ell 1110, elapsed: 0.0004868507385253906
ell 1109, elapsed: 0.000492095947265625
ell 1108, elapsed: 0.00047898292541503906
ell 1107, elapsed: 0.0005240440368652344
ell 1106, elapsed: 0.0005290508270263672
ell 1105, elapsed: 0.0005550384521484375
ell 1104, elapsed: 0.00048089027404785156
ell 1103, elapsed: 0.0005028247833251953
ell 1102, elapsed: 0.00048804283142089844
ell 1101, elapsed: 0.0005309581756591797
ell 1100, elapsed: 0.0004918575286865234
ell 1099, elapsed: 0.0004820823669433594
ell 1098, elapsed: 0.0004801750183105469
ell 1097, elapsed: 0.0005159378051757812
ell 1096, elapsed: 0.0005021095275878906
ell 1095, elapsed: 0.0005099773406982422
ell 1094, elapsed: 0.0005071163177490234
ell 1093, elapsed: 0.0004870891571044922
ell 1092, elapsed: 0.0005068778991699219
ell 1091, elapsed: 0.0004909038543701172
ell 1090, elapsed: 0.0004909038543701172
ell 1089, elapsed: 0.0004971027374267578
ell 1088, elapsed: 0.0004980564117431641
ell 1087, elapsed: 0.0004909038543701172
ell 1086, elapsed: 0.000514984130859375
ell 1085, elapsed: 0.00047516822814941406
ell 1084, elapsed: 0.0004911422729492188
ell 1083, elapsed: 0.0005002021789550781
ell 1082, elapsed: 0.0005068778991699219
ell 1081, elapsed: 0.0005240440368652344
ell 1080, elapsed: 0.0005030632019042969
ell 1079, elapsed: 0.0005309581756591797
ell 1078, elapsed: 0.00049591064453125
ell 1077, elapsed: 0.0004749298095703125
ell 1076, elapsed: 0.0004899501800537109
ell 1075, elapsed: 0.0005068778991699219
ell 1074, elapsed: 0.0004980564117431641
ell 1073, elapsed: 0.0004899501800537109
ell 1072, elapsed: 0.0004930496215820312
ell 1071, elapsed: 0.00046896934509277344
ell 1070, elapsed: 0.0005180835723876953
ell 1069, elapsed: 0.0005540847778320312
ell 1068, elapsed: 0.00047898292541503906
ell 1067, elapsed: 0.0004968643188476562
ell 1066, elapsed: 0.0004889965057373047
ell 1065, elapsed: 0.0005049705505371094
ell 1064, elapsed: 0.0004940032958984375
ell 1063, elapsed: 0.00048089027404785156
ell 1062, elapsed: 0.0005011558532714844
ell 1061, elapsed: 0.0004839897155761719
ell 1060, elapsed: 0.0004990100860595703
ell 1059, elapsed: 0.0004899501800537109
ell 1058, elapsed: 0.0005431175231933594
ell 1057, elapsed: 0.000492095947265625
ell 1056, elapsed: 0.0004930496215820312
ell 1055, elapsed: 0.0004889965057373047
ell 1054, elapsed: 0.0004870891571044922
ell 1053, elapsed: 0.0004870891571044922
ell 1052, elapsed: 0.0004839897155761719
ell 1051, elapsed: 0.00047397613525390625
ell 1050, elapsed: 0.00047087669372558594
ell 1049, elapsed: 0.0004858970642089844
ell 1048, elapsed: 0.00047206878662109375
ell 1047, elapsed: 0.0004749298095703125
ell 1046, elapsed: 0.0004980564117431641
ell 1045, elapsed: 0.0005002021789550781
ell 1044, elapsed: 0.0004930496215820312
ell 1043, elapsed: 0.0005300045013427734
ell 1042, elapsed: 0.0004971027374267578
ell 1041, elapsed: 0.000476837158203125
ell 1040, elapsed: 0.0005271434783935547
ell 1039, elapsed: 0.0005419254302978516
ell 1038, elapsed: 0.00048804283142089844
ell 1037, elapsed: 0.0004909038543701172
ell 1036, elapsed: 0.00047278404235839844
ell 1035, elapsed: 0.0004742145538330078
ell 1034, elapsed: 0.0004799365997314453
ell 1033, elapsed: 0.0005309581756591797
ell 1032, elapsed: 0.0005130767822265625
ell 1031, elapsed: 0.0004818439483642578
ell 1030, elapsed: 0.0005061626434326172
ell 1029, elapsed: 0.0005061626434326172
ell 1028, elapsed: 0.0004699230194091797
ell 1027, elapsed: 0.0004711151123046875
ell 1026, elapsed: 0.0005109310150146484
ell 1025, elapsed: 0.00049591064453125
ell 1024, elapsed: 0.0005040168762207031
ell 1023, elapsed: 0.0005288124084472656
ell 1022, elapsed: 0.0004899501800537109
ell 1021, elapsed: 0.00046515464782714844
ell 1020, elapsed: 0.00047588348388671875
ell 1019, elapsed: 0.0004699230194091797
ell 1018, elapsed: 0.0004711151123046875
ell 1017, elapsed: 0.000514984130859375
ell 1016, elapsed: 0.0004940032958984375
ell 1015, elapsed: 0.000492095947265625
ell 1014, elapsed: 0.0004761219024658203
ell 1013, elapsed: 0.00047016143798828125
ell 1012, elapsed: 0.0004761219024658203
ell 1011, elapsed: 0.0005049705505371094
ell 1010, elapsed: 0.0005309581756591797
ell 1009, elapsed: 0.0005681514739990234
ell 1008, elapsed: 0.0005209445953369141
ell 1007, elapsed: 0.0005099773406982422
ell 1006, elapsed: 0.0004990100860595703
ell 1005, elapsed: 0.0005021095275878906
ell 1004, elapsed: 0.0004909038543701172
ell 1003, elapsed: 0.0005350112915039062
ell 1002, elapsed: 0.0004909038543701172
ell 1001, elapsed: 0.0004820823669433594
ell 1000, elapsed: 0.0004999637603759766
ell 999, elapsed: 0.0005049705505371094
ell 998, elapsed: 0.00049591064453125
ell 997, elapsed: 0.00047206878662109375
ell 996, elapsed: 0.00048279762268066406
ell 995, elapsed: 0.0005240440368652344
ell 994, elapsed: 0.0005199909210205078
ell 993, elapsed: 0.0004830360412597656
ell 992, elapsed: 0.0004968643188476562
ell 991, elapsed: 0.0004820823669433594
ell 990, elapsed: 0.0004870891571044922
ell 989, elapsed: 0.0004780292510986328
ell 988, elapsed: 0.0004839897155761719
ell 987, elapsed: 0.0004811286926269531
ell 986, elapsed: 0.0004830360412597656
ell 985, elapsed: 0.0004761219024658203
ell 984, elapsed: 0.0004868507385253906
ell 983, elapsed: 0.0004999637603759766
ell 982, elapsed: 0.0004889965057373047
ell 981, elapsed: 0.0005412101745605469
ell 980, elapsed: 0.0005419254302978516
ell 979, elapsed: 0.0005118846893310547
ell 978, elapsed: 0.0005011558532714844
ell 977, elapsed: 0.0005519390106201172
ell 976, elapsed: 0.0004591941833496094
ell 975, elapsed: 0.0004911422729492188
ell 974, elapsed: 0.0005350112915039062
ell 973, elapsed: 0.0004949569702148438
ell 972, elapsed: 0.00047206878662109375
ell 971, elapsed: 0.00048804283142089844
ell 970, elapsed: 0.0004658699035644531
ell 969, elapsed: 0.0004749298095703125
ell 968, elapsed: 0.0004849433898925781
ell 967, elapsed: 0.00047898292541503906
ell 966, elapsed: 0.0004999637603759766
ell 965, elapsed: 0.0005278587341308594
ell 964, elapsed: 0.0005049705505371094
ell 963, elapsed: 0.00047206878662109375
ell 962, elapsed: 0.0004730224609375
ell 961, elapsed: 0.0004730224609375
ell 960, elapsed: 0.0005211830139160156
ell 959, elapsed: 0.0004999637603759766
ell 958, elapsed: 0.0004589557647705078
ell 957, elapsed: 0.0005080699920654297
ell 956, elapsed: 0.0005199909210205078
ell 955, elapsed: 0.0004749298095703125
ell 954, elapsed: 0.00047898292541503906
ell 953, elapsed: 0.0005369186401367188
ell 952, elapsed: 0.0004940032958984375
ell 951, elapsed: 0.0004608631134033203
ell 950, elapsed: 0.0004718303680419922
ell 949, elapsed: 0.0005331039428710938
ell 948, elapsed: 0.0004749298095703125
ell 947, elapsed: 0.0004558563232421875
ell 946, elapsed: 0.000453948974609375
ell 945, elapsed: 0.0004799365997314453
ell 944, elapsed: 0.0004680156707763672
ell 943, elapsed: 0.0004761219024658203
ell 942, elapsed: 0.0004780292510986328
ell 941, elapsed: 0.0004799365997314453
ell 940, elapsed: 0.0005061626434326172
ell 939, elapsed: 0.0004999637603759766
ell 938, elapsed: 0.0004630088806152344
ell 937, elapsed: 0.0005030632019042969
ell 936, elapsed: 0.0004899501800537109
ell 935, elapsed: 0.000514984130859375
ell 934, elapsed: 0.0005109310150146484
ell 933, elapsed: 0.0004730224609375
ell 932, elapsed: 0.0004940032958984375
ell 931, elapsed: 0.0005118846893310547
ell 930, elapsed: 0.00047397613525390625
ell 929, elapsed: 0.0004961490631103516
ell 928, elapsed: 0.00047206878662109375
ell 927, elapsed: 0.0004661083221435547
ell 926, elapsed: 0.0004911422729492188
ell 925, elapsed: 0.0004889965057373047
ell 924, elapsed: 0.0004999637603759766
ell 923, elapsed: 0.0004911422729492188
ell 922, elapsed: 0.0005209445953369141
ell 921, elapsed: 0.00055694580078125
ell 920, elapsed: 0.0004820823669433594
ell 919, elapsed: 0.0004889965057373047
ell 918, elapsed: 0.0004699230194091797
ell 917, elapsed: 0.0004868507385253906
ell 916, elapsed: 0.0005211830139160156
ell 915, elapsed: 0.0004811286926269531
ell 914, elapsed: 0.00047206878662109375
ell 913, elapsed: 0.0004899501800537109
ell 912, elapsed: 0.00046706199645996094
ell 911, elapsed: 0.0004889965057373047
ell 910, elapsed: 0.0004980564117431641
ell 909, elapsed: 0.0005369186401367188
ell 908, elapsed: 0.0005080699920654297
ell 907, elapsed: 0.0004980564117431641
ell 906, elapsed: 0.0004980564117431641
ell 905, elapsed: 0.0005040168762207031
ell 904, elapsed: 0.0004870891571044922
ell 903, elapsed: 0.0005059242248535156
ell 902, elapsed: 0.0004849433898925781
ell 901, elapsed: 0.0005381107330322266
ell 900, elapsed: 0.0004940032958984375
ell 899, elapsed: 0.00046896934509277344
ell 898, elapsed: 0.00047707557678222656
ell 897, elapsed: 0.0005171298980712891
ell 896, elapsed: 0.00047898292541503906
ell 895, elapsed: 0.0004620552062988281
ell 894, elapsed: 0.0005040168762207031
ell 893, elapsed: 0.0004940032958984375
ell 892, elapsed: 0.0004889965057373047
ell 891, elapsed: 0.0004918575286865234
ell 890, elapsed: 0.0004699230194091797
ell 889, elapsed: 0.00047397613525390625
ell 888, elapsed: 0.0004711151123046875
ell 887, elapsed: 0.00047206878662109375
ell 886, elapsed: 0.0004851818084716797
ell 885, elapsed: 0.0004718303680419922
ell 884, elapsed: 0.00045800209045410156
ell 883, elapsed: 0.0005211830139160156
ell 882, elapsed: 0.0005238056182861328
ell 881, elapsed: 0.00046896934509277344
ell 880, elapsed: 0.0004949569702148438
ell 879, elapsed: 0.0004761219024658203
ell 878, elapsed: 0.0004930496215820312
ell 877, elapsed: 0.0004839897155761719
ell 876, elapsed: 0.00047397613525390625
ell 875, elapsed: 0.0004811286926269531
ell 874, elapsed: 0.0004980564117431641
ell 873, elapsed: 0.0004730224609375
ell 872, elapsed: 0.0005221366882324219
ell 871, elapsed: 0.0004811286926269531
ell 870, elapsed: 0.00046706199645996094
ell 869, elapsed: 0.00047016143798828125
ell 868, elapsed: 0.0004589557647705078
ell 867, elapsed: 0.0004749298095703125
ell 866, elapsed: 0.0004858970642089844
ell 865, elapsed: 0.0004949569702148438
ell 864, elapsed: 0.00047516822814941406
ell 863, elapsed: 0.00045800209045410156
ell 862, elapsed: 0.0005021095275878906
ell 861, elapsed: 0.0004899501800537109
ell 860, elapsed: 0.0004849433898925781
ell 859, elapsed: 0.0004611015319824219
ell 858, elapsed: 0.000476837158203125
ell 857, elapsed: 0.0004699230194091797
ell 856, elapsed: 0.0005040168762207031
ell 855, elapsed: 0.0004730224609375
ell 854, elapsed: 0.00046706199645996094
ell 853, elapsed: 0.000492095947265625
ell 852, elapsed: 0.00047707557678222656
ell 851, elapsed: 0.0004839897155761719
ell 850, elapsed: 0.0004851818084716797
ell 849, elapsed: 0.0005450248718261719
ell 848, elapsed: 0.0005190372467041016
ell 847, elapsed: 0.0005271434783935547
ell 846, elapsed: 0.0005159378051757812
ell 845, elapsed: 0.0004899501800537109
ell 844, elapsed: 0.00047206878662109375
ell 843, elapsed: 0.00048804283142089844
ell 842, elapsed: 0.0004858970642089844
ell 841, elapsed: 0.0004918575286865234
ell 840, elapsed: 0.0005359649658203125
ell 839, elapsed: 0.0005021095275878906
ell 838, elapsed: 0.0005059242248535156
ell 837, elapsed: 0.0004918575286865234
ell 836, elapsed: 0.0005280971527099609
ell 835, elapsed: 0.0005168914794921875
ell 834, elapsed: 0.00047206878662109375
ell 833, elapsed: 0.0004811286926269531
ell 832, elapsed: 0.00047707557678222656
ell 831, elapsed: 0.0004889965057373047
ell 830, elapsed: 0.0004899501800537109
ell 829, elapsed: 0.00047087669372558594
ell 828, elapsed: 0.0004780292510986328
ell 827, elapsed: 0.0005328655242919922
ell 826, elapsed: 0.0005121231079101562
ell 825, elapsed: 0.0005109310150146484
ell 824, elapsed: 0.00049591064453125
ell 823, elapsed: 0.0004940032958984375
ell 822, elapsed: 0.00048804283142089844
ell 821, elapsed: 0.00047588348388671875
ell 820, elapsed: 0.0005359649658203125
ell 819, elapsed: 0.0005259513854980469
ell 818, elapsed: 0.0005159378051757812
ell 817, elapsed: 0.0005478858947753906
ell 816, elapsed: 0.0004940032958984375
ell 815, elapsed: 0.0004718303680419922
ell 814, elapsed: 0.00047206878662109375
ell 813, elapsed: 0.0004870891571044922
ell 812, elapsed: 0.0005230903625488281
ell 811, elapsed: 0.0005362033843994141
ell 810, elapsed: 0.0005071163177490234
ell 809, elapsed: 0.00047707557678222656
ell 808, elapsed: 0.0004928112030029297
ell 807, elapsed: 0.00048804283142089844
ell 806, elapsed: 0.0005288124084472656
ell 805, elapsed: 0.0005121231079101562
ell 804, elapsed: 0.0005178451538085938
ell 803, elapsed: 0.0005080699920654297
ell 802, elapsed: 0.0005040168762207031
ell 801, elapsed: 0.0005040168762207031
ell 800, elapsed: 0.0004658699035644531
ell 799, elapsed: 0.00047206878662109375
ell 798, elapsed: 0.00049591064453125
ell 797, elapsed: 0.000514984130859375
ell 796, elapsed: 0.0005002021789550781
ell 795, elapsed: 0.0005021095275878906
ell 794, elapsed: 0.000492095947265625
ell 793, elapsed: 0.0005390644073486328
ell 792, elapsed: 0.0004899501800537109
ell 791, elapsed: 0.0004780292510986328
ell 790, elapsed: 0.0004761219024658203
ell 789, elapsed: 0.0005571842193603516
ell 788, elapsed: 0.00048613548278808594
ell 787, elapsed: 0.00048613548278808594
ell 786, elapsed: 0.00048804283142089844
ell 785, elapsed: 0.0004928112030029297
ell 784, elapsed: 0.0004780292510986328
ell 783, elapsed: 0.0004909038543701172
ell 782, elapsed: 0.0004761219024658203
ell 781, elapsed: 0.00047588348388671875
ell 780, elapsed: 0.00047397613525390625
ell 779, elapsed: 0.0005209445953369141
ell 778, elapsed: 0.0005068778991699219
ell 777, elapsed: 0.0004858970642089844
ell 776, elapsed: 0.00047016143798828125
ell 775, elapsed: 0.0004918575286865234
ell 774, elapsed: 0.0005190372467041016
ell 773, elapsed: 0.0004780292510986328
ell 772, elapsed: 0.0004870891571044922
ell 771, elapsed: 0.0005059242248535156
ell 770, elapsed: 0.0005071163177490234
ell 769, elapsed: 0.0005128383636474609
ell 768, elapsed: 0.0004930496215820312
ell 767, elapsed: 0.0005099773406982422
ell 766, elapsed: 0.000514984130859375
ell 765, elapsed: 0.0005199909210205078
ell 764, elapsed: 0.0005199909210205078
ell 763, elapsed: 0.000492095947265625
ell 762, elapsed: 0.00047898292541503906
ell 761, elapsed: 0.0005412101745605469
ell 760, elapsed: 0.0004899501800537109
ell 759, elapsed: 0.0004730224609375
ell 758, elapsed: 0.0004811286926269531
ell 757, elapsed: 0.0005319118499755859
ell 756, elapsed: 0.0004820823669433594
ell 755, elapsed: 0.0005388259887695312
ell 754, elapsed: 0.00047588348388671875
ell 753, elapsed: 0.0005269050598144531
ell 752, elapsed: 0.0004930496215820312
ell 751, elapsed: 0.0004830360412597656
ell 750, elapsed: 0.0004749298095703125
ell 749, elapsed: 0.0004899501800537109
ell 748, elapsed: 0.0004849433898925781
ell 747, elapsed: 0.0004611015319824219
ell 746, elapsed: 0.0004630088806152344
ell 745, elapsed: 0.000514984130859375
ell 744, elapsed: 0.0005240440368652344
ell 743, elapsed: 0.0005290508270263672
ell 742, elapsed: 0.0005121231079101562
ell 741, elapsed: 0.0004820823669433594
ell 740, elapsed: 0.0004718303680419922
ell 739, elapsed: 0.00047707557678222656
ell 738, elapsed: 0.00046896934509277344
ell 737, elapsed: 0.0004911422729492188
ell 736, elapsed: 0.00047397613525390625
ell 735, elapsed: 0.0004870891571044922
ell 734, elapsed: 0.0005109310150146484
ell 733, elapsed: 0.0005099773406982422
ell 732, elapsed: 0.0004742145538330078
ell 731, elapsed: 0.00048613548278808594
ell 730, elapsed: 0.00047087669372558594
ell 729, elapsed: 0.00047898292541503906
ell 728, elapsed: 0.0004558563232421875
ell 727, elapsed: 0.00045990943908691406
ell 726, elapsed: 0.0004591941833496094
ell 725, elapsed: 0.0004990100860595703
ell 724, elapsed: 0.0005080699920654297
ell 723, elapsed: 0.0005300045013427734
ell 722, elapsed: 0.000514984130859375
ell 721, elapsed: 0.0005290508270263672
ell 720, elapsed: 0.0004999637603759766
ell 719, elapsed: 0.0005500316619873047
ell 718, elapsed: 0.0005118846893310547
ell 717, elapsed: 0.0004971027374267578
ell 716, elapsed: 0.00046896934509277344
ell 715, elapsed: 0.0005121231079101562
ell 714, elapsed: 0.0005600452423095703
ell 713, elapsed: 0.0005538463592529297
ell 712, elapsed: 0.0005700588226318359
ell 711, elapsed: 0.0005240440368652344
ell 710, elapsed: 0.000492095947265625
ell 709, elapsed: 0.0005290508270263672
ell 708, elapsed: 0.0005359649658203125
ell 707, elapsed: 0.0005168914794921875
ell 706, elapsed: 0.00048613548278808594
ell 705, elapsed: 0.0005509853363037109
ell 704, elapsed: 0.0004971027374267578
ell 703, elapsed: 0.0005009174346923828
ell 702, elapsed: 0.0004968643188476562
ell 701, elapsed: 0.0004901885986328125
ell 700, elapsed: 0.0004911422729492188
ell 699, elapsed: 0.0004858970642089844
ell 698, elapsed: 0.0004909038543701172
ell 697, elapsed: 0.0005059242248535156
ell 696, elapsed: 0.0005168914794921875
ell 695, elapsed: 0.0004961490631103516
ell 694, elapsed: 0.0004780292510986328
ell 693, elapsed: 0.00046896934509277344
ell 692, elapsed: 0.0005669593811035156
ell 691, elapsed: 0.0004889965057373047
ell 690, elapsed: 0.0004990100860595703
ell 689, elapsed: 0.000514984130859375
ell 688, elapsed: 0.000476837158203125
ell 687, elapsed: 0.0004889965057373047
ell 686, elapsed: 0.0004918575286865234
ell 685, elapsed: 0.0004761219024658203
ell 684, elapsed: 0.0004780292510986328
ell 683, elapsed: 0.0004858970642089844
ell 682, elapsed: 0.000492095947265625
ell 681, elapsed: 0.000469207763671875
ell 680, elapsed: 0.0005810260772705078
ell 679, elapsed: 0.0005021095275878906
ell 678, elapsed: 0.00045800209045410156
ell 677, elapsed: 0.0004801750183105469
ell 676, elapsed: 0.0004870891571044922
ell 675, elapsed: 0.0005171298980712891
ell 674, elapsed: 0.0005049705505371094
ell 673, elapsed: 0.0004379749298095703
ell 672, elapsed: 0.0004889965057373047
ell 671, elapsed: 0.0005249977111816406
ell 670, elapsed: 0.0004799365997314453
ell 669, elapsed: 0.0005388259887695312
ell 668, elapsed: 0.00047588348388671875
ell 667, elapsed: 0.0005140304565429688
ell 666, elapsed: 0.0005300045013427734
ell 665, elapsed: 0.0005040168762207031
ell 664, elapsed: 0.0004699230194091797
ell 663, elapsed: 0.00047087669372558594
ell 662, elapsed: 0.0004799365997314453
ell 661, elapsed: 0.0005328655242919922
ell 660, elapsed: 0.0005059242248535156
ell 659, elapsed: 0.0004918575286865234
ell 658, elapsed: 0.0004968643188476562
ell 657, elapsed: 0.00047707557678222656
ell 656, elapsed: 0.00047206878662109375
ell 655, elapsed: 0.0004820823669433594
ell 654, elapsed: 0.00045990943908691406
ell 653, elapsed: 0.0004668235778808594
ell 652, elapsed: 0.00046896934509277344
ell 651, elapsed: 0.0004699230194091797
ell 650, elapsed: 0.0005509853363037109
ell 649, elapsed: 0.0004858970642089844
ell 648, elapsed: 0.0004928112030029297
ell 647, elapsed: 0.0004780292510986328
ell 646, elapsed: 0.00042176246643066406
ell 645, elapsed: 0.000453948974609375
ell 644, elapsed: 0.0005078315734863281
ell 643, elapsed: 0.000492095947265625
ell 642, elapsed: 0.0004889965057373047
ell 641, elapsed: 0.00046706199645996094
ell 640, elapsed: 0.0004820823669433594
ell 639, elapsed: 0.0004990100860595703
ell 638, elapsed: 0.0005171298980712891
ell 637, elapsed: 0.0004990100860595703
ell 636, elapsed: 0.00044417381286621094
ell 635, elapsed: 0.00042510032653808594
ell 634, elapsed: 0.0004239082336425781
ell 633, elapsed: 0.00047898292541503906
ell 632, elapsed: 0.0004630088806152344
ell 631, elapsed: 0.00047707557678222656
ell 630, elapsed: 0.0005030632019042969
ell 629, elapsed: 0.0004858970642089844
ell 628, elapsed: 0.0004930496215820312
ell 627, elapsed: 0.0004870891571044922
ell 626, elapsed: 0.0005300045013427734
ell 625, elapsed: 0.0004911422729492188
ell 624, elapsed: 0.00047397613525390625
ell 623, elapsed: 0.0004911422729492188
ell 622, elapsed: 0.0004780292510986328
ell 621, elapsed: 0.0006120204925537109
ell 620, elapsed: 0.00047588348388671875
ell 619, elapsed: 0.0004849433898925781
ell 618, elapsed: 0.0005030632019042969
ell 617, elapsed: 0.00047087669372558594
ell 616, elapsed: 0.0005090236663818359
ell 615, elapsed: 0.0004858970642089844
ell 614, elapsed: 0.00048804283142089844
ell 613, elapsed: 0.0005021095275878906
ell 612, elapsed: 0.00047898292541503906
ell 611, elapsed: 0.0005068778991699219
ell 610, elapsed: 0.0004968643188476562
ell 609, elapsed: 0.0004749298095703125
ell 608, elapsed: 0.0005140304565429688
ell 607, elapsed: 0.0004899501800537109
ell 606, elapsed: 0.0004889965057373047
ell 605, elapsed: 0.0004849433898925781
ell 604, elapsed: 0.0004761219024658203
ell 603, elapsed: 0.0005068778991699219
ell 602, elapsed: 0.00045800209045410156
ell 601, elapsed: 0.000476837158203125
ell 600, elapsed: 0.0004968643188476562
ell 599, elapsed: 0.0004680156707763672
ell 598, elapsed: 0.0005099773406982422
ell 597, elapsed: 0.0004870891571044922
ell 596, elapsed: 0.0004899501800537109
ell 595, elapsed: 0.0004990100860595703
ell 594, elapsed: 0.0004858970642089844
ell 593, elapsed: 0.0004680156707763672
ell 592, elapsed: 0.0004818439483642578
ell 591, elapsed: 0.00047588348388671875
ell 590, elapsed: 0.0004901885986328125
ell 589, elapsed: 0.0004990100860595703
ell 588, elapsed: 0.0005218982696533203
ell 587, elapsed: 0.0005068778991699219
ell 586, elapsed: 0.0004889965057373047
ell 585, elapsed: 0.0004730224609375
ell 584, elapsed: 0.0004589557647705078
ell 583, elapsed: 0.0005369186401367188
ell 582, elapsed: 0.00048804283142089844
ell 581, elapsed: 0.0005340576171875
ell 580, elapsed: 0.00046515464782714844
ell 579, elapsed: 0.0005350112915039062
ell 578, elapsed: 0.00048804283142089844
ell 577, elapsed: 0.0004711151123046875
ell 576, elapsed: 0.0004661083221435547
ell 575, elapsed: 0.0005078315734863281
ell 574, elapsed: 0.0005691051483154297
ell 573, elapsed: 0.0004730224609375
ell 572, elapsed: 0.0004558563232421875
ell 571, elapsed: 0.0004630088806152344
ell 570, elapsed: 0.0005230903625488281
ell 569, elapsed: 0.0004999637603759766
ell 568, elapsed: 0.0004749298095703125
ell 567, elapsed: 0.00046181678771972656
ell 566, elapsed: 0.0004971027374267578
ell 565, elapsed: 0.0004711151123046875
ell 564, elapsed: 0.0004761219024658203
ell 563, elapsed: 0.0004761219024658203
ell 562, elapsed: 0.0004801750183105469
ell 561, elapsed: 0.0004551410675048828
ell 560, elapsed: 0.00040793418884277344
ell 559, elapsed: 0.00042510032653808594
ell 558, elapsed: 0.0004260540008544922
ell 557, elapsed: 0.00047707557678222656
ell 556, elapsed: 0.0004448890686035156
ell 555, elapsed: 0.0004260540008544922
ell 554, elapsed: 0.0004649162292480469
ell 553, elapsed: 0.0004169940948486328
ell 552, elapsed: 0.000408172607421875
ell 551, elapsed: 0.0003960132598876953
ell 550, elapsed: 0.0004019737243652344
ell 549, elapsed: 0.00039887428283691406
ell 548, elapsed: 0.00042700767517089844
ell 547, elapsed: 0.0004031658172607422
ell 546, elapsed: 0.0004169940948486328
ell 545, elapsed: 0.000453948974609375
ell 544, elapsed: 0.0004019737243652344
ell 543, elapsed: 0.0004029273986816406
ell 542, elapsed: 0.00039887428283691406
ell 541, elapsed: 0.0003979206085205078
ell 540, elapsed: 0.0004260540008544922
ell 539, elapsed: 0.0004398822784423828
ell 538, elapsed: 0.0003991127014160156
ell 537, elapsed: 0.00039887428283691406
ell 536, elapsed: 0.0004000663757324219
ell 535, elapsed: 0.00040602684020996094
ell 534, elapsed: 0.0004260540008544922
ell 533, elapsed: 0.0004589557647705078
ell 532, elapsed: 0.0004229545593261719
ell 531, elapsed: 0.0004680156707763672
ell 530, elapsed: 0.00040411949157714844
ell 529, elapsed: 0.0004010200500488281
ell 528, elapsed: 0.00043201446533203125
ell 527, elapsed: 0.0004379749298095703
ell 526, elapsed: 0.0004520416259765625
ell 525, elapsed: 0.00045490264892578125
ell 524, elapsed: 0.0004570484161376953
ell 523, elapsed: 0.00041294097900390625
ell 522, elapsed: 0.00045990943908691406
ell 521, elapsed: 0.0004410743713378906
ell 520, elapsed: 0.0004031658172607422
ell 519, elapsed: 0.0004229545593261719
ell 518, elapsed: 0.00044798851013183594
ell 517, elapsed: 0.0004050731658935547
ell 516, elapsed: 0.0004401206970214844
ell 515, elapsed: 0.00045013427734375
ell 514, elapsed: 0.00040912628173828125
ell 513, elapsed: 0.0003979206085205078
ell 512, elapsed: 0.0004019737243652344
ell 511, elapsed: 0.0004119873046875
ell 510, elapsed: 0.0004570484161376953
ell 509, elapsed: 0.0004458427429199219
ell 508, elapsed: 0.0005359649658203125
ell 507, elapsed: 0.0006799697875976562
ell 506, elapsed: 0.0004439353942871094
ell 505, elapsed: 0.0005059242248535156
ell 504, elapsed: 0.0004680156707763672
ell 503, elapsed: 0.0004699230194091797
ell 502, elapsed: 0.00049591064453125
ell 501, elapsed: 0.0005040168762207031
ell 500, elapsed: 0.000492095947265625
ell 499, elapsed: 0.0004940032958984375
ell 498, elapsed: 0.0004839897155761719
ell 497, elapsed: 0.00045990943908691406
ell 496, elapsed: 0.0004870891571044922
ell 495, elapsed: 0.0004839897155761719
ell 494, elapsed: 0.0005040168762207031
ell 493, elapsed: 0.0005249977111816406
ell 492, elapsed: 0.00045800209045410156
ell 491, elapsed: 0.0004589557647705078
ell 490, elapsed: 0.0004851818084716797
ell 489, elapsed: 0.0004680156707763672
ell 488, elapsed: 0.00047588348388671875
ell 487, elapsed: 0.0004630088806152344
ell 486, elapsed: 0.00048804283142089844
ell 485, elapsed: 0.0005099773406982422
ell 484, elapsed: 0.0005161762237548828
ell 483, elapsed: 0.0004990100860595703
ell 482, elapsed: 0.00046896934509277344
ell 481, elapsed: 0.0005681514739990234
ell 480, elapsed: 0.0004990100860595703
ell 479, elapsed: 0.00047898292541503906
ell 478, elapsed: 0.0005521774291992188
ell 477, elapsed: 0.0005140304565429688
ell 476, elapsed: 0.00044417381286621094
ell 475, elapsed: 0.0005440711975097656
ell 474, elapsed: 0.0004849433898925781
ell 473, elapsed: 0.0004811286926269531
ell 472, elapsed: 0.00047588348388671875
ell 471, elapsed: 0.00047707557678222656
ell 470, elapsed: 0.00048089027404785156
ell 469, elapsed: 0.0005488395690917969
ell 468, elapsed: 0.0004730224609375
ell 467, elapsed: 0.0004839897155761719
ell 466, elapsed: 0.0004749298095703125
ell 465, elapsed: 0.0004730224609375
ell 464, elapsed: 0.0005090236663818359
ell 463, elapsed: 0.0005099773406982422
ell 462, elapsed: 0.0005388259887695312
ell 461, elapsed: 0.0005130767822265625
ell 460, elapsed: 0.0005190372467041016
ell 459, elapsed: 0.0004870891571044922
ell 458, elapsed: 0.0004930496215820312
ell 457, elapsed: 0.0005311965942382812
ell 456, elapsed: 0.0005271434783935547
ell 455, elapsed: 0.0005209445953369141
ell 454, elapsed: 0.00047397613525390625
ell 453, elapsed: 0.0004940032958984375
ell 452, elapsed: 0.0004899501800537109
ell 451, elapsed: 0.0004799365997314453
ell 450, elapsed: 0.0005068778991699219
ell 449, elapsed: 0.000453948974609375
ell 448, elapsed: 0.0004649162292480469
ell 447, elapsed: 0.0005249977111816406
ell 446, elapsed: 0.0004730224609375
ell 445, elapsed: 0.0004649162292480469
ell 444, elapsed: 0.0004940032958984375
ell 443, elapsed: 0.0004858970642089844
ell 442, elapsed: 0.0004639625549316406
ell 441, elapsed: 0.0005090236663818359
ell 440, elapsed: 0.0004899501800537109
ell 439, elapsed: 0.0005002021789550781
ell 438, elapsed: 0.00048804283142089844
ell 437, elapsed: 0.0005090236663818359
ell 436, elapsed: 0.0005400180816650391
ell 435, elapsed: 0.0004870891571044922
ell 434, elapsed: 0.0004918575286865234
ell 433, elapsed: 0.0004889965057373047
ell 432, elapsed: 0.00047397613525390625
ell 431, elapsed: 0.0004718303680419922
ell 430, elapsed: 0.0004799365997314453
ell 429, elapsed: 0.0005230903625488281
ell 428, elapsed: 0.0005099773406982422
ell 427, elapsed: 0.00047206878662109375
ell 426, elapsed: 0.0005249977111816406
ell 425, elapsed: 0.0004878044128417969
ell 424, elapsed: 0.0005640983581542969
ell 423, elapsed: 0.0005691051483154297
ell 422, elapsed: 0.0005090236663818359
ell 421, elapsed: 0.0004868507385253906
ell 420, elapsed: 0.0005071163177490234
ell 419, elapsed: 0.0005428791046142578
ell 418, elapsed: 0.000514984130859375
ell 417, elapsed: 0.0005190372467041016
ell 416, elapsed: 0.0004940032958984375
ell 415, elapsed: 0.0004799365997314453
ell 414, elapsed: 0.0004792213439941406
ell 413, elapsed: 0.0004780292510986328
ell 412, elapsed: 0.0004951953887939453
ell 411, elapsed: 0.0005791187286376953
ell 410, elapsed: 0.0005719661712646484
ell 409, elapsed: 0.0005719661712646484
ell 408, elapsed: 0.0005600452423095703
ell 407, elapsed: 0.0005710124969482422
ell 406, elapsed: 0.0005819797515869141
ell 405, elapsed: 0.0005578994750976562
ell 404, elapsed: 0.00055694580078125
ell 403, elapsed: 0.0005650520324707031
ell 402, elapsed: 0.0006270408630371094
ell 401, elapsed: 0.00051116943359375
ell 400, elapsed: 0.0005590915679931641
ell 399, elapsed: 0.0005631446838378906
ell 398, elapsed: 0.0005609989166259766
ell 397, elapsed: 0.0005660057067871094
ell 396, elapsed: 0.0005550384521484375
ell 395, elapsed: 0.000553131103515625
ell 394, elapsed: 0.0005609989166259766
ell 393, elapsed: 0.00049591064453125
ell 392, elapsed: 0.0005860328674316406
ell 391, elapsed: 0.0005750656127929688
ell 390, elapsed: 0.0005469322204589844
ell 389, elapsed: 0.0004889965057373047
ell 388, elapsed: 0.0006320476531982422
ell 387, elapsed: 0.0005600452423095703
ell 386, elapsed: 0.0005078315734863281
ell 385, elapsed: 0.0005819797515869141
ell 384, elapsed: 0.0005359649658203125
ell 383, elapsed: 0.0005540847778320312
ell 382, elapsed: 0.00048804283142089844
ell 381, elapsed: 0.0005490779876708984
ell 380, elapsed: 0.00048613548278808594
ell 379, elapsed: 0.0004911422729492188
ell 378, elapsed: 0.0005609989166259766
ell 377, elapsed: 0.0005059242248535156
ell 376, elapsed: 0.0005087852478027344
ell 375, elapsed: 0.0004649162292480469
ell 374, elapsed: 0.0005829334259033203
ell 373, elapsed: 0.0005218982696533203
ell 372, elapsed: 0.0005729198455810547
ell 371, elapsed: 0.0004677772521972656
ell 370, elapsed: 0.0005548000335693359
ell 369, elapsed: 0.0004830360412597656
ell 368, elapsed: 0.0005719661712646484
ell 367, elapsed: 0.0005638599395751953
ell 366, elapsed: 0.0005199909210205078
ell 365, elapsed: 0.00049591064453125
ell 364, elapsed: 0.0005512237548828125
ell 363, elapsed: 0.0004749298095703125
ell 362, elapsed: 0.00049591064453125
ell 361, elapsed: 0.0004889965057373047
ell 360, elapsed: 0.0005650520324707031
ell 359, elapsed: 0.00047206878662109375
ell 358, elapsed: 0.0006170272827148438
ell 357, elapsed: 0.00048279762268066406
ell 356, elapsed: 0.0004780292510986328
ell 355, elapsed: 0.0004811286926269531
ell 354, elapsed: 0.0004870891571044922
ell 353, elapsed: 0.0004909038543701172
ell 352, elapsed: 0.0004611015319824219
ell 351, elapsed: 0.0005140304565429688
ell 350, elapsed: 0.00049591064453125
ell 349, elapsed: 0.0005009174346923828
ell 348, elapsed: 0.0004940032958984375
ell 347, elapsed: 0.0005249977111816406
ell 346, elapsed: 0.0005199909210205078
ell 345, elapsed: 0.0004971027374267578
ell 344, elapsed: 0.0004889965057373047
ell 343, elapsed: 0.0005240440368652344
ell 342, elapsed: 0.0004978179931640625
ell 341, elapsed: 0.0004949569702148438
ell 340, elapsed: 0.0004949569702148438
ell 339, elapsed: 0.0004951953887939453
ell 338, elapsed: 0.0005371570587158203
ell 337, elapsed: 0.0004930496215820312
ell 336, elapsed: 0.0004949569702148438
ell 335, elapsed: 0.00041604042053222656
ell 334, elapsed: 0.00047397613525390625
ell 333, elapsed: 0.0004799365997314453
ell 332, elapsed: 0.0004711151123046875
ell 331, elapsed: 0.0005929470062255859
ell 330, elapsed: 0.0004949569702148438
ell 329, elapsed: 0.0005528926849365234
ell 328, elapsed: 0.0004291534423828125
ell 327, elapsed: 0.0004239082336425781
ell 326, elapsed: 0.00042510032653808594
ell 325, elapsed: 0.0004448890686035156
ell 324, elapsed: 0.0004229545593261719
ell 323, elapsed: 0.00045800209045410156
ell 322, elapsed: 0.0005478858947753906
ell 321, elapsed: 0.00048089027404785156
ell 320, elapsed: 0.00047516822814941406
ell 319, elapsed: 0.0005209445953369141
ell 318, elapsed: 0.0005049705505371094
ell 317, elapsed: 0.00048804283142089844
ell 316, elapsed: 0.0005218982696533203
ell 315, elapsed: 0.0004889965057373047
ell 314, elapsed: 0.0004858970642089844
ell 313, elapsed: 0.0005037784576416016
ell 312, elapsed: 0.0005319118499755859
ell 311, elapsed: 0.0004971027374267578
ell 310, elapsed: 0.0004911422729492188
ell 309, elapsed: 0.00047516822814941406
ell 308, elapsed: 0.00047707557678222656
ell 307, elapsed: 0.0004909038543701172
ell 306, elapsed: 0.0004918575286865234
ell 305, elapsed: 0.00047278404235839844
ell 304, elapsed: 0.00051116943359375
ell 303, elapsed: 0.0005240440368652344
ell 302, elapsed: 0.0005059242248535156
ell 301, elapsed: 0.0004780292510986328
ell 300, elapsed: 0.000553131103515625
ell 299, elapsed: 0.0005249977111816406
ell 298, elapsed: 0.0005018711090087891
ell 297, elapsed: 0.0004911422729492188
ell 296, elapsed: 0.0005438327789306641
ell 295, elapsed: 0.0005030632019042969
ell 294, elapsed: 0.00048279762268066406
ell 293, elapsed: 0.0004711151123046875
ell 292, elapsed: 0.0005271434783935547
ell 291, elapsed: 0.0005099773406982422
ell 290, elapsed: 0.0005209445953369141
ell 289, elapsed: 0.0004990100860595703
ell 288, elapsed: 0.00047206878662109375
ell 287, elapsed: 0.0005321502685546875
ell 286, elapsed: 0.0004909038543701172
ell 285, elapsed: 0.0004949569702148438
ell 284, elapsed: 0.0005068778991699219
ell 283, elapsed: 0.0005359649658203125
ell 282, elapsed: 0.0004961490631103516
ell 281, elapsed: 0.0005321502685546875
ell 280, elapsed: 0.0005011558532714844
ell 279, elapsed: 0.0004870891571044922
ell 278, elapsed: 0.0003979206085205078
ell 277, elapsed: 0.0004000663757324219
ell 276, elapsed: 0.00039696693420410156
ell 275, elapsed: 0.0004150867462158203
ell 274, elapsed: 0.0004489421844482422
ell 273, elapsed: 0.00044989585876464844
ell 272, elapsed: 0.00045609474182128906
ell 271, elapsed: 0.0005269050598144531
ell 270, elapsed: 0.0004868507385253906
ell 269, elapsed: 0.00039505958557128906
ell 268, elapsed: 0.00038909912109375
ell 267, elapsed: 0.0004069805145263672
ell 266, elapsed: 0.0004088878631591797
ell 265, elapsed: 0.0004150867462158203
ell 264, elapsed: 0.0003991127014160156
ell 263, elapsed: 0.0005118846893310547
ell 262, elapsed: 0.00040912628173828125
ell 261, elapsed: 0.0003979206085205078
ell 260, elapsed: 0.00039887428283691406
ell 259, elapsed: 0.0004057884216308594
ell 258, elapsed: 0.00043702125549316406
ell 257, elapsed: 0.00045180320739746094
ell 256, elapsed: 0.0003979206085205078
ell 255, elapsed: 0.0004420280456542969
ell 254, elapsed: 0.0005869865417480469
ell 253, elapsed: 0.0004429817199707031
ell 252, elapsed: 0.00044608116149902344
ell 251, elapsed: 0.00039196014404296875
ell 250, elapsed: 0.00039505958557128906
ell 249, elapsed: 0.0003979206085205078
ell 248, elapsed: 0.0003948211669921875
ell 247, elapsed: 0.0003998279571533203
ell 246, elapsed: 0.0005199909210205078
ell 245, elapsed: 0.0004298686981201172
ell 244, elapsed: 0.0004069805145263672
ell 243, elapsed: 0.0004279613494873047
ell 242, elapsed: 0.0004200935363769531
ell 241, elapsed: 0.0004119873046875
ell 240, elapsed: 0.00045299530029296875
ell 239, elapsed: 0.0003981590270996094
ell 238, elapsed: 0.0004279613494873047
ell 237, elapsed: 0.0005259513854980469
ell 236, elapsed: 0.00045609474182128906
ell 235, elapsed: 0.00044798851013183594
ell 234, elapsed: 0.00044798851013183594
ell 233, elapsed: 0.0004000663757324219
ell 232, elapsed: 0.0004360675811767578
ell 231, elapsed: 0.0004489421844482422
ell 230, elapsed: 0.0005109310150146484
ell 229, elapsed: 0.0004048347473144531
ell 228, elapsed: 0.0003981590270996094
ell 227, elapsed: 0.0003979206085205078
ell 226, elapsed: 0.0003991127014160156
ell 225, elapsed: 0.0004241466522216797
ell 224, elapsed: 0.0004448890686035156
ell 223, elapsed: 0.0004220008850097656
ell 222, elapsed: 0.0004470348358154297
ell 221, elapsed: 0.0005059242248535156
ell 220, elapsed: 0.0003979206085205078
ell 219, elapsed: 0.0003960132598876953
ell 218, elapsed: 0.0004239082336425781
ell 217, elapsed: 0.00045990943908691406
ell 216, elapsed: 0.0003941059112548828
ell 215, elapsed: 0.0004401206970214844
ell 214, elapsed: 0.0004470348358154297
ell 213, elapsed: 0.0005309581756591797
ell 212, elapsed: 0.0004489421844482422
ell 211, elapsed: 0.00045299530029296875
ell 210, elapsed: 0.0003991127014160156
ell 209, elapsed: 0.00040912628173828125
ell 208, elapsed: 0.0004279613494873047
ell 207, elapsed: 0.00045609474182128906
ell 206, elapsed: 0.0003948211669921875
ell 205, elapsed: 0.0005259513854980469
ell 204, elapsed: 0.000453948974609375
ell 203, elapsed: 0.0004749298095703125
ell 202, elapsed: 0.0003972053527832031
ell 201, elapsed: 0.000392913818359375
ell 200, elapsed: 0.0003960132598876953
ell 199, elapsed: 0.00045108795166015625
ell 198, elapsed: 0.00046515464782714844
ell 197, elapsed: 0.000453948974609375
ell 196, elapsed: 0.0004069805145263672
ell 195, elapsed: 0.0004200935363769531
ell 194, elapsed: 0.0004220008850097656
ell 193, elapsed: 0.0004489421844482422
ell 192, elapsed: 0.00040912628173828125
ell 191, elapsed: 0.00039386749267578125
ell 190, elapsed: 0.0003979206085205078
ell 189, elapsed: 0.0003941059112548828
ell 188, elapsed: 0.0005450248718261719
ell 187, elapsed: 0.0004489421844482422
ell 186, elapsed: 0.0003981590270996094
ell 185, elapsed: 0.0003948211669921875
ell 184, elapsed: 0.00039696693420410156
ell 183, elapsed: 0.0003960132598876953
ell 182, elapsed: 0.0004260540008544922
ell 181, elapsed: 0.0004248619079589844
ell 180, elapsed: 0.0005331039428710938
ell 179, elapsed: 0.00045490264892578125
ell 178, elapsed: 0.00044798851013183594
ell 177, elapsed: 0.0004379749298095703
ell 176, elapsed: 0.00039887428283691406
ell 175, elapsed: 0.0004329681396484375
ell 174, elapsed: 0.0004467964172363281
ell 173, elapsed: 0.00044798851013183594
ell 172, elapsed: 0.000392913818359375
ell 171, elapsed: 0.0005729198455810547
ell 170, elapsed: 0.0004558563232421875
ell 169, elapsed: 0.00039887428283691406
ell 168, elapsed: 0.0004489421844482422
ell 167, elapsed: 0.00044608116149902344
ell 166, elapsed: 0.00045990943908691406
ell 165, elapsed: 0.00039386749267578125
ell 164, elapsed: 0.0003960132598876953
ell 163, elapsed: 0.0005121231079101562
ell 162, elapsed: 0.0004379749298095703
ell 161, elapsed: 0.00044989585876464844
ell 160, elapsed: 0.0003960132598876953
ell 159, elapsed: 0.00039696693420410156
ell 158, elapsed: 0.0003960132598876953
ell 157, elapsed: 0.000392913818359375
ell 156, elapsed: 0.0003991127014160156
ell 155, elapsed: 0.0005030632019042969
ell 154, elapsed: 0.00043702125549316406
ell 153, elapsed: 0.00045299530029296875
ell 152, elapsed: 0.00040984153747558594
ell 151, elapsed: 0.0004029273986816406
ell 150, elapsed: 0.00039696693420410156
ell 149, elapsed: 0.0003960132598876953
ell 148, elapsed: 0.0003941059112548828
ell 147, elapsed: 0.0003941059112548828
ell 146, elapsed: 0.0005049705505371094
ell 145, elapsed: 0.0004439353942871094
ell 144, elapsed: 0.0004429817199707031
ell 143, elapsed: 0.00039696693420410156
ell 142, elapsed: 0.00039315223693847656
ell 141, elapsed: 0.0003979206085205078
ell 140, elapsed: 0.0003941059112548828
ell 139, elapsed: 0.00039505958557128906
ell 138, elapsed: 0.0004279613494873047
ell 137, elapsed: 0.0004608631134033203
ell 136, elapsed: 0.00041103363037109375
ell 135, elapsed: 0.0003991127014160156
ell 134, elapsed: 0.0003960132598876953
ell 133, elapsed: 0.0010690689086914062
ell 132, elapsed: 0.00039696693420410156
ell 131, elapsed: 0.0004000663757324219
ell 130, elapsed: 0.0004239082336425781
ell 129, elapsed: 0.0003979206085205078
ell 128, elapsed: 0.0004239082336425781
ell 127, elapsed: 0.0004467964172363281
ell 126, elapsed: 0.00039696693420410156
ell 125, elapsed: 0.000392913818359375
ell 124, elapsed: 0.0003991127014160156
ell 123, elapsed: 0.000392913818359375
ell 122, elapsed: 0.0004470348358154297
ell 121, elapsed: 0.0004279613494873047
ell 120, elapsed: 0.0003979206085205078
ell 119, elapsed: 0.0003910064697265625
ell 118, elapsed: 0.00040912628173828125
ell 117, elapsed: 0.00039887428283691406
ell 116, elapsed: 0.0003960132598876953
ell 115, elapsed: 0.0003981590270996094
ell 114, elapsed: 0.0003948211669921875
ell 113, elapsed: 0.0004520416259765625
ell 112, elapsed: 0.0003979206085205078
ell 111, elapsed: 0.0003979206085205078
ell 110, elapsed: 0.0003960132598876953
ell 109, elapsed: 0.0004100799560546875
ell 108, elapsed: 0.00043201446533203125
ell 107, elapsed: 0.00039505958557128906
ell 106, elapsed: 0.0004229545593261719
ell 105, elapsed: 0.0004088878631591797
ell 104, elapsed: 0.00044798851013183594
ell 103, elapsed: 0.0004010200500488281
ell 102, elapsed: 0.00039696693420410156
ell 101, elapsed: 0.00039315223693847656
ell 100, elapsed: 0.0003960132598876953
ell 99, elapsed: 0.00039887428283691406
ell 98, elapsed: 0.00040984153747558594
ell 97, elapsed: 0.00039386749267578125
ell 96, elapsed: 0.00040078163146972656
ell 95, elapsed: 0.00044608116149902344
ell 94, elapsed: 0.0004031658172607422
ell 93, elapsed: 0.0003979206085205078
ell 92, elapsed: 0.0003941059112548828
ell 91, elapsed: 0.00040078163146972656
ell 90, elapsed: 0.00039315223693847656
ell 89, elapsed: 0.0004241466522216797
ell 88, elapsed: 0.0004451274871826172
ell 87, elapsed: 0.0004508495330810547
ell 86, elapsed: 0.0004980564117431641
ell 85, elapsed: 0.00045609474182128906
ell 84, elapsed: 0.0004279613494873047
ell 83, elapsed: 0.00045418739318847656
ell 82, elapsed: 0.0003960132598876953
ell 81, elapsed: 0.0004439353942871094
ell 80, elapsed: 0.0004458427429199219
ell 79, elapsed: 0.0003960132598876953
ell 78, elapsed: 0.0004608631134033203
ell 77, elapsed: 0.0004451274871826172
ell 76, elapsed: 0.0004470348358154297
ell 75, elapsed: 0.0004360675811767578
ell 74, elapsed: 0.00044989585876464844
ell 73, elapsed: 0.0003960132598876953
ell 72, elapsed: 0.00039386749267578125
ell 71, elapsed: 0.0003910064697265625
ell 70, elapsed: 0.00043702125549316406
ell 69, elapsed: 0.0004661083221435547
ell 68, elapsed: 0.0003991127014160156
ell 67, elapsed: 0.00043702125549316406
ell 66, elapsed: 0.0004439353942871094
ell 65, elapsed: 0.0003991127014160156
ell 64, elapsed: 0.0004220008850097656
ell 63, elapsed: 0.00045299530029296875
ell 62, elapsed: 0.00039386749267578125
ell 61, elapsed: 0.00044798851013183594
ell 60, elapsed: 0.0004508495330810547
ell 59, elapsed: 0.0004420280456542969
ell 58, elapsed: 0.00043582916259765625
ell 57, elapsed: 0.0004508495330810547
ell 56, elapsed: 0.000392913818359375
ell 55, elapsed: 0.0004000663757324219
ell 54, elapsed: 0.000392913818359375
ell 53, elapsed: 0.00044417381286621094
ell 52, elapsed: 0.00039887428283691406
ell 51, elapsed: 0.00043511390686035156
ell 50, elapsed: 0.00044989585876464844
ell 49, elapsed: 0.00045609474182128906
ell 48, elapsed: 0.0004470348358154297
ell 47, elapsed: 0.0004458427429199219
ell 46, elapsed: 0.00041604042053222656
ell 45, elapsed: 0.0004439353942871094
ell 44, elapsed: 0.0004010200500488281
ell 43, elapsed: 0.0004010200500488281
ell 42, elapsed: 0.0003991127014160156
ell 41, elapsed: 0.0003960132598876953
ell 40, elapsed: 0.0004000663757324219
ell 39, elapsed: 0.0003948211669921875
ell 38, elapsed: 0.0003979206085205078
ell 37, elapsed: 0.0004401206970214844
ell 36, elapsed: 0.0004620552062988281
ell 35, elapsed: 0.0003991127014160156
ell 34, elapsed: 0.00040912628173828125
ell 33, elapsed: 0.0004608631134033203
ell 32, elapsed: 0.00045108795166015625
ell 31, elapsed: 0.00041794776916503906
ell 30, elapsed: 0.00045180320739746094
ell 29, elapsed: 0.0004489421844482422
ell 28, elapsed: 0.00047206878662109375
ell 27, elapsed: 0.0004551410675048828
ell 26, elapsed: 0.0004448890686035156
ell 25, elapsed: 0.00044989585876464844
ell 24, elapsed: 0.00044417381286621094
ell 23, elapsed: 0.00045108795166015625
ell 22, elapsed: 0.0004429817199707031
ell 21, elapsed: 0.00045108795166015625
ell 20, elapsed: 0.0004830360412597656
ell 19, elapsed: 0.00045609474182128906
ell 18, elapsed: 0.0004420280456542969
ell 17, elapsed: 0.00044989585876464844
ell 16, elapsed: 0.00045108795166015625
ell 15, elapsed: 0.00043201446533203125
ell 14, elapsed: 0.0004470348358154297
ell 13, elapsed: 0.00044989585876464844
ell 12, elapsed: 0.00046706199645996094
ell 11, elapsed: 0.00045108795166015625
ell 10, elapsed: 0.00041604042053222656
ell 9, elapsed: 0.0004451274871826172
ell 8, elapsed: 0.00044798851013183594
ell 7, elapsed: 0.00044608116149902344
ell 6, elapsed: 0.00044798851013183594
ell 5, elapsed: 0.0004439353942871094
ell 4, elapsed: 0.0004429817199707031
ell 3, elapsed: 0.0004630088806152344
ell 2, elapsed: 0.0003941059112548828
ell 1, elapsed: 0.00042891502380371094
ell 0, elapsed: 0.0004470348358154297
  0.808037 seconds (103.20 k allocations: 3.964 MiB)
elapsed: 0.0005290508270263672
step:          0.061459 sec (0 allocations: 0 byte, 0.0% gc time)
swapping:      0.000693 sec (0 allocations: 0 byte, 0.0% gc time)
calc_Mellell!: 0.01075 sec (0 allocations: 0 byte, 0.0% gc time)
  t0 :  0.002338 sec (0 allocations: 0 byte, 0.0% gc time)
  tm2 : 0.092329 sec (0 allocations: 0 byte, 0.0% gc time)
  tm2s: 0.001304 sec (0 allocations: 0 byte, 0.0% gc time)
  tm4 : 0.239893 sec (0 allocations: 0 byte, 0.0% gc time)
  tp2 : 0.0 sec (0 allocations: 0 byte, 0.0% gc time)
  tp2s: 0.0 sec (0 allocations: 0 byte, 0.0% gc time)
  tp4 : 0.0 sec (0 allocations: 0 byte, 0.0% gc time)
calc_wtdll!:   0.37189 sec (9.9 k allocations: 1.047 MB, 0.0% gc time)
calc_wljj!:    0.038346 sec (689 allocations: 10.766 KB, 0.0% gc time)
mult_prefac!:  0.0 sec (0 allocations: 0 byte, 0.0% gc time)
convert:       0.0 sec (0 allocations: 0 byte, 0.0% gc time)
write:         0.040547 sec (0 allocations: 0 byte, 0.0% gc time)
test_rand_2f1: 0.0 sec (0 allocations: 0 byte, 0.0% gc time)
Closing outfile out/Ml21-cache.bin...   0.000006 seconds
  0.000602 seconds (36 allocations: 27.953 KiB)
make_phi():   0.002666 seconds (8.18 k allocations: 237.844 KiB)
  0.191593 seconds (141.90 k allocations: 3.483 MiB)
tskip:       0.000983 sec (0 allocations: 0 byte, 0.0% gc time)
tread:       0.029168 sec (17 allocations: 10.641 KB, 0.0% gc time)
tmultphi:    0.016577 sec (0 allocations: 0 byte, 0.0% gc time)
tbrfft:      0.043997 sec (0 allocations: 0 byte, 0.0% gc time)
tmultprefac: 0.035492 sec (0 allocations: 0 byte, 0.0% gc time)
toutfunc:    0.061829 sec (127.507 k allocations: 2.312 MB, 0.0% gc time)
Testing R=1.0 ... passed
Calculating fmax: 
  dlrec    = 4
  dlrecRg1 = -4
  q=1.1, R=0.9:	  0.533579 seconds (105.76 k allocations: 15.287 MiB)

  0.534516 seconds (105.98 k allocations: 15.323 MiB)
ℓ = 1202
Δℓ = 4
ΔℓRg1 = -4
N = 1600
q = 1.1
kmin = 1.0e-5
kmax = 100000.00000000004
χ0 = 0.023029999999999995
RR = RR.tsv
ℓmax = ℓmax.bin
f21 = f21.bin
kmin = 1.0e-5
kmax = 100000.0
dlrec    = 4
dlrecRg1 = -4
Output size: 5741568 bytes = 0.005347251892089844 GiB
Output size: 51264 bytes = 4.774332046508789e-5 GiB
Reading 'out/F21EllCache'...   0.001091 seconds (197 allocations: 84.203 KiB)
ellmax: 1202
lmaxcache: 1202
fell[:,1,1] = ComplexF64[1.3482014726274674e-57 - 3.302141236118086e-73im, 1.357860004724329e-57 - 3.3257978169518355e-73im]
ell 1202, elapsed: 2.09808349609375e-5
ell 1201, elapsed: 0.0004439353942871094
ell 1200, elapsed: 0.00040411949157714844
ell 1199, elapsed: 0.0004010200500488281
ell 1198, elapsed: 0.00042891502380371094
ell 1002, elapsed: 0.010097980499267578
ell 1001, elapsed: 0.00045800209045410156
ell 1000, elapsed: 0.0004589557647705078
ell 999, elapsed: 0.0005240440368652344
ell 998, elapsed: 0.0004279613494873047
ell 902, elapsed: 0.005326032638549805
ell 901, elapsed: 0.0004611015319824219
ell 900, elapsed: 0.00045800209045410156
ell 899, elapsed: 0.0004630088806152344
ell 898, elapsed: 0.0004658699035644531
ell 802, elapsed: 0.005227088928222656
ell 801, elapsed: 0.0003571510314941406
ell 800, elapsed: 0.0003578662872314453
ell 799, elapsed: 0.00039005279541015625
ell 798, elapsed: 0.0003829002380371094
ell 702, elapsed: 0.005297183990478516
ell 701, elapsed: 0.0004611015319824219
ell 700, elapsed: 0.00044918060302734375
ell 699, elapsed: 0.00041222572326660156
ell 698, elapsed: 0.0004029273986816406
ell 602, elapsed: 0.0053501129150390625
ell 601, elapsed: 0.0004241466522216797
ell 600, elapsed: 0.0004379749298095703
ell 599, elapsed: 0.00046181678771972656
ell 598, elapsed: 0.0004169940948486328
ell 502, elapsed: 0.0052890777587890625
ell 501, elapsed: 0.0004088878631591797
ell 500, elapsed: 0.0004379749298095703
ell 499, elapsed: 0.0004570484161376953
ell 498, elapsed: 0.00046896934509277344
ell 402, elapsed: 0.005269050598144531
ell 401, elapsed: 0.0004050731658935547
ell 400, elapsed: 0.0004429817199707031
ell 399, elapsed: 0.0004401206970214844
ell 398, elapsed: 0.0004379749298095703
ell 302, elapsed: 0.013296127319335938
ell 301, elapsed: 0.0004119873046875
ell 300, elapsed: 0.00046896934509277344
ell 299, elapsed: 0.0004749298095703125
ell 298, elapsed: 0.0004570484161376953
ell 202, elapsed: 0.005860805511474609
ell 201, elapsed: 0.0004611015319824219
ell 200, elapsed: 0.00045299530029296875
ell 199, elapsed: 0.000453948974609375
ell 198, elapsed: 0.00043082237243652344
ell 152, elapsed: 0.002830028533935547
ell 151, elapsed: 0.00039887428283691406
ell 150, elapsed: 0.0004031658172607422
ell 149, elapsed: 0.0004661083221435547
ell 148, elapsed: 0.00047278404235839844
ell 127, elapsed: 0.0015780925750732422
ell 126, elapsed: 0.00043392181396484375
ell 125, elapsed: 0.00045013427734375
ell 124, elapsed: 0.00045299530029296875
ell 123, elapsed: 0.0004360675811767578
ell 114, elapsed: 0.0009701251983642578
ell 113, elapsed: 0.0004470348358154297
ell 112, elapsed: 0.0004520416259765625
ell 111, elapsed: 0.000453948974609375
ell 110, elapsed: 0.00045013427734375
ell 102, elapsed: 0.0009307861328125
ell 101, elapsed: 0.0004420280456542969
ell 100, elapsed: 0.00044989585876464844
ell 99, elapsed: 0.00046515464782714844
ell 98, elapsed: 0.000469207763671875
ell 97, elapsed: 0.0005300045013427734
ell 96, elapsed: 0.0004749298095703125
ell 95, elapsed: 0.0005288124084472656
ell 94, elapsed: 0.0005080699920654297
ell 93, elapsed: 0.0005490779876708984
ell 92, elapsed: 0.0005221366882324219
ell 91, elapsed: 0.0005249977111816406
ell 90, elapsed: 0.0005218982696533203
ell 89, elapsed: 0.0005240440368652344
ell 88, elapsed: 0.0005309581756591797
ell 87, elapsed: 0.000514984130859375
ell 86, elapsed: 0.00055694580078125
ell 85, elapsed: 0.0005371570587158203
ell 84, elapsed: 0.0005087852478027344
ell 83, elapsed: 0.0005080699920654297
ell 82, elapsed: 0.0004699230194091797
ell 81, elapsed: 0.00044989585876464844
ell 80, elapsed: 0.00044608116149902344
ell 79, elapsed: 0.0004429817199707031
ell 78, elapsed: 0.00044798851013183594
ell 77, elapsed: 0.0004420280456542969
ell 76, elapsed: 0.00044918060302734375
ell 75, elapsed: 0.0004410743713378906
ell 74, elapsed: 0.0004620552062988281
ell 73, elapsed: 0.0004458427429199219
ell 72, elapsed: 0.0004448890686035156
ell 71, elapsed: 0.00044989585876464844
ell 70, elapsed: 0.0004220008850097656
ell 69, elapsed: 0.0004601478576660156
ell 68, elapsed: 0.000453948974609375
ell 67, elapsed: 0.0004470348358154297
ell 66, elapsed: 0.00046896934509277344
ell 65, elapsed: 0.0004470348358154297
ell 64, elapsed: 0.00039196014404296875
ell 63, elapsed: 0.0003960132598876953
ell 62, elapsed: 0.0004410743713378906
ell 61, elapsed: 0.0004649162292480469
ell 60, elapsed: 0.00043392181396484375
ell 59, elapsed: 0.00044989585876464844
ell 58, elapsed: 0.0004630088806152344
ell 57, elapsed: 0.00044608116149902344
ell 56, elapsed: 0.0004451274871826172
ell 55, elapsed: 0.0004439353942871094
ell 54, elapsed: 0.00045180320739746094
ell 53, elapsed: 0.0004830360412597656
ell 52, elapsed: 0.0004420280456542969
ell 51, elapsed: 0.0004410743713378906
ell 50, elapsed: 0.000453948974609375
ell 49, elapsed: 0.00044798851013183594
ell 48, elapsed: 0.0004398822784423828
ell 47, elapsed: 0.0004458427429199219
ell 46, elapsed: 0.0004451274871826172
ell 45, elapsed: 0.0004360675811767578
ell 44, elapsed: 0.0004429817199707031
ell 43, elapsed: 0.00044608116149902344
ell 42, elapsed: 0.00045609474182128906
ell 41, elapsed: 0.0004520416259765625
ell 40, elapsed: 0.0004451274871826172
ell 39, elapsed: 0.000453948974609375
ell 38, elapsed: 0.000415802001953125
ell 37, elapsed: 0.00045800209045410156
ell 36, elapsed: 0.0004379749298095703
ell 35, elapsed: 0.0004379749298095703
ell 34, elapsed: 0.00046181678771972656
ell 33, elapsed: 0.00044083595275878906
ell 32, elapsed: 0.00043582916259765625
ell 31, elapsed: 0.00045108795166015625
ell 30, elapsed: 0.0004429817199707031
ell 29, elapsed: 0.00044608116149902344
ell 28, elapsed: 0.00044798851013183594
ell 27, elapsed: 0.00044417381286621094
ell 26, elapsed: 0.00048279762268066406
ell 25, elapsed: 0.0004279613494873047
ell 24, elapsed: 0.00045108795166015625
ell 23, elapsed: 0.00041294097900390625
ell 22, elapsed: 0.0004432201385498047
ell 21, elapsed: 0.00045490264892578125
ell 20, elapsed: 0.0004470348358154297
ell 19, elapsed: 0.0004520416259765625
ell 18, elapsed: 0.0004639625549316406
ell 17, elapsed: 0.0004448890686035156
ell 16, elapsed: 0.00045108795166015625
ell 15, elapsed: 0.0004439353942871094
ell 14, elapsed: 0.0004489421844482422
ell 13, elapsed: 0.0004420280456542969
ell 12, elapsed: 0.0004489421844482422
ell 11, elapsed: 0.00044608116149902344
ell 10, elapsed: 0.0004630088806152344
ell 9, elapsed: 0.00045108795166015625
ell 8, elapsed: 0.00045013427734375
ell 7, elapsed: 0.00044608116149902344
ell 6, elapsed: 0.00044608116149902344
ell 5, elapsed: 0.00044417381286621094
ell 4, elapsed: 0.0004489421844482422
ell 3, elapsed: 0.0004429817199707031
ell 2, elapsed: 0.0004639625549316406
ell 1, elapsed: 0.0004439353942871094
ell 0, elapsed: 0.0004470348358154297
  0.158909 seconds (19.63 k allocations: 846.500 KiB)
elapsed: 0.0005528926849365234
step:          0.067268 sec (0 allocations: 0 byte, 0.0% gc time)
swapping:      0.00048 sec (0 allocations: 0 byte, 0.0% gc time)
calc_Mellell!: 0.001931 sec (0 allocations: 0 byte, 0.0% gc time)
  t0 :  0.00042 sec (0 allocations: 0 byte, 0.0% gc time)
  tm2 : 0.013034 sec (0 allocations: 0 byte, 0.0% gc time)
  tm2s: 0.000267 sec (0 allocations: 0 byte, 0.0% gc time)
  tm4 : 0.035455 sec (0 allocations: 0 byte, 0.0% gc time)
  tp2 : 0.0 sec (0 allocations: 0 byte, 0.0% gc time)
  tp2s: 0.0 sec (0 allocations: 0 byte, 0.0% gc time)
  tp4 : 0.0 sec (0 allocations: 0 byte, 0.0% gc time)
calc_wtdll!:   0.049776 sec (1.344 k allocations: 147.0 KB, 0.0% gc time)
calc_wljj!:    0.003896 sec (6 allocations: 96 byte, 0.0% gc time)
mult_prefac!:  0.0 sec (0 allocations: 0 byte, 0.0% gc time)
convert:       0.0 sec (0 allocations: 0 byte, 0.0% gc time)
write:         0.004041 sec (0 allocations: 0 byte, 0.0% gc time)
test_rand_2f1: 0.0 sec (0 allocations: 0 byte, 0.0% gc time)
Closing outfile out/Ml21-cache.bin...   0.000005 seconds
  0.000296 seconds (36 allocations: 27.953 KiB)
make_phi():   0.002767 seconds (8.18 k allocations: 237.844 KiB)
  0.016479 seconds (11.65 k allocations: 308.688 KiB)
tskip:       1.9e-5 sec (0 allocations: 0 byte, 0.0% gc time)
tread:       0.002506 sec (17 allocations: 2.125 KB, 0.0% gc time)
tmultphi:    0.001403 sec (0 allocations: 0 byte, 0.0% gc time)
tbrfft:      0.003974 sec (0 allocations: 0 byte, 0.0% gc time)
tmultprefac: 0.003004 sec (0 allocations: 0 byte, 0.0% gc time)
toutfunc:    0.005277 sec (10.304 k allocations: 196.0 KB, 0.0% gc time)
Testing R=0.9 ... passed
Calculating fmax: 
  dlrec    = 4
  dlrecRg1 = -4
  q=1.1, R=0.8:	  0.428425 seconds (103.25 k allocations: 14.856 MiB)

  0.428752 seconds (103.48 k allocations: 14.893 MiB)
ℓ = 1202
Δℓ = 4
ΔℓRg1 = -4
N = 1600
q = 1.1
kmin = 1.0e-5
kmax = 100000.00000000004
χ0 = 0.023029999999999995
RR = RR.tsv
ℓmax = ℓmax.bin
f21 = f21.bin
kmin = 1.0e-5
kmax = 100000.0
dlrec    = 4
dlrecRg1 = -4
Output size: 5741568 bytes = 0.005347251892089844 GiB
Output size: 51264 bytes = 4.774332046508789e-5 GiB
Reading 'out/F21EllCache'...   0.001037 seconds (197 allocations: 84.203 KiB)
ellmax: 1202
lmaxcache: 1202
fell[:,1,1] = ComplexF64[7.519068145690986e-120 - 1.8416405474382574e-135im, 7.541664537386155e-120 - 1.847175067190611e-135im]
ell 1202, elapsed: 2.288818359375e-5
ell 1201, elapsed: 0.0004420280456542969
ell 1200, elapsed: 0.00038504600524902344
ell 1199, elapsed: 0.0003771781921386719
ell 1198, elapsed: 0.0013339519500732422
ell 1002, elapsed: 0.012328863143920898
ell 1001, elapsed: 0.0003800392150878906
ell 1000, elapsed: 0.00038814544677734375
ell 999, elapsed: 0.0003509521484375
ell 998, elapsed: 0.0003809928894042969
ell 902, elapsed: 0.006693124771118164
ell 901, elapsed: 0.0003998279571533203
ell 900, elapsed: 0.0003898143768310547
ell 899, elapsed: 0.0003380775451660156
ell 898, elapsed: 0.0003387928009033203
ell 802, elapsed: 0.006718158721923828
ell 801, elapsed: 0.0003428459167480469
ell 800, elapsed: 0.0003399848937988281
ell 799, elapsed: 0.0003380775451660156
ell 798, elapsed: 0.0011191368103027344
ell 702, elapsed: 0.0059528350830078125
ell 701, elapsed: 0.0003809928894042969
ell 700, elapsed: 0.00038504600524902344
ell 699, elapsed: 0.0011131763458251953
ell 698, elapsed: 0.0003769397735595703
ell 602, elapsed: 0.005980014801025391
ell 601, elapsed: 0.000347137451171875
ell 600, elapsed: 0.0011000633239746094
ell 599, elapsed: 0.0003399848937988281
ell 598, elapsed: 0.00033593177795410156
ell 502, elapsed: 0.005956888198852539
ell 501, elapsed: 0.000431060791015625
ell 500, elapsed: 0.00039196014404296875
ell 499, elapsed: 0.0003371238708496094
ell 498, elapsed: 0.0003380775451660156
ell 402, elapsed: 0.005224943161010742
ell 401, elapsed: 0.0003490447998046875
ell 400, elapsed: 0.0003409385681152344
ell 399, elapsed: 0.0003399848937988281
ell 398, elapsed: 0.0003349781036376953
ell 302, elapsed: 0.005303859710693359
ell 301, elapsed: 0.00034809112548828125
ell 300, elapsed: 0.0003421306610107422
ell 299, elapsed: 0.0003440380096435547
ell 298, elapsed: 0.0003437995910644531
ell 202, elapsed: 0.005140066146850586
ell 201, elapsed: 0.00035190582275390625
ell 200, elapsed: 0.00034308433532714844
ell 199, elapsed: 0.0003418922424316406
ell 198, elapsed: 0.0003399848937988281
ell 152, elapsed: 0.0028150081634521484
ell 151, elapsed: 0.00035309791564941406
ell 150, elapsed: 0.0003459453582763672
ell 149, elapsed: 0.0003440380096435547
ell 148, elapsed: 0.0003437995910644531
ell 127, elapsed: 0.001544952392578125
ell 126, elapsed: 0.0004119873046875
ell 125, elapsed: 0.000392913818359375
ell 124, elapsed: 0.0003650188446044922
ell 123, elapsed: 0.00039005279541015625
ell 114, elapsed: 0.0008440017700195312
ell 113, elapsed: 0.0003437995910644531
ell 112, elapsed: 0.0003809928894042969
ell 111, elapsed: 0.0004360675811767578
ell 110, elapsed: 0.00038313865661621094
ell 102, elapsed: 0.0008280277252197266
ell 101, elapsed: 0.0003650188446044922
ell 100, elapsed: 0.0003459453582763672
ell 99, elapsed: 0.0003409385681152344
ell 98, elapsed: 0.0003337860107421875
ell 97, elapsed: 0.0004508495330810547
ell 96, elapsed: 0.0005018711090087891
ell 95, elapsed: 0.0005090236663818359
ell 94, elapsed: 0.0004241466522216797
ell 93, elapsed: 0.0004508495330810547
ell 92, elapsed: 0.00045299530029296875
ell 91, elapsed: 0.00045299530029296875
ell 90, elapsed: 0.0004258155822753906
ell 89, elapsed: 0.0004489421844482422
ell 88, elapsed: 0.0004940032958984375
ell 87, elapsed: 0.0004990100860595703
ell 86, elapsed: 0.0004520416259765625
ell 85, elapsed: 0.00044989585876464844
ell 84, elapsed: 0.0004639625549316406
ell 83, elapsed: 0.0004489421844482422
ell 82, elapsed: 0.0003981590270996094
ell 81, elapsed: 0.000392913818359375
ell 80, elapsed: 0.00041294097900390625
ell 79, elapsed: 0.0004839897155761719
ell 78, elapsed: 0.00045108795166015625
ell 77, elapsed: 0.0004558563232421875
ell 76, elapsed: 0.0004379749298095703
ell 75, elapsed: 0.0003838539123535156
ell 74, elapsed: 0.00043082237243652344
ell 73, elapsed: 0.0004420280456542969
ell 72, elapsed: 0.00041484832763671875
ell 71, elapsed: 0.0005002021789550781
ell 70, elapsed: 0.00040602684020996094
ell 69, elapsed: 0.0003960132598876953
ell 68, elapsed: 0.0004010200500488281
ell 67, elapsed: 0.0004200935363769531
ell 66, elapsed: 0.0004489421844482422
ell 65, elapsed: 0.000453948974609375
ell 64, elapsed: 0.0004210472106933594
ell 63, elapsed: 0.0005640983581542969
ell 62, elapsed: 0.0003979206085205078
ell 61, elapsed: 0.0004010200500488281
ell 60, elapsed: 0.0004019737243652344
ell 59, elapsed: 0.0004169940948486328
ell 58, elapsed: 0.0004489421844482422
ell 57, elapsed: 0.0004279613494873047
ell 56, elapsed: 0.0005440711975097656
ell 55, elapsed: 0.00040602684020996094
ell 54, elapsed: 0.00043511390686035156
ell 53, elapsed: 0.0004489421844482422
ell 52, elapsed: 0.0004000663757324219
ell 51, elapsed: 0.00039505958557128906
ell 50, elapsed: 0.0004019737243652344
ell 49, elapsed: 0.0004150867462158203
ell 48, elapsed: 0.0004451274871826172
ell 47, elapsed: 0.0005238056182861328
ell 46, elapsed: 0.0004429817199707031
ell 45, elapsed: 0.00040411949157714844
ell 44, elapsed: 0.0003941059112548828
[...]
ell 789, elapsed: 0.0005512237548828125
ell 788, elapsed: 0.0005581378936767578
ell 782, elapsed: 0.001013040542602539
ell 781, elapsed: 0.0005779266357421875
ell 780, elapsed: 0.0005819797515869141
ell 779, elapsed: 0.0005559921264648438
ell 778, elapsed: 0.000576019287109375
ell 772, elapsed: 0.0009779930114746094
ell 771, elapsed: 0.0006060600280761719
ell 770, elapsed: 0.0005719661712646484
ell 769, elapsed: 0.0005600452423095703
ell 768, elapsed: 0.000576019287109375
ell 762, elapsed: 0.001004934310913086
ell 761, elapsed: 0.0005700588226318359
ell 760, elapsed: 0.0005958080291748047
ell 759, elapsed: 0.0005679130554199219
ell 758, elapsed: 0.0005831718444824219
ell 752, elapsed: 0.0009930133819580078
ell 751, elapsed: 0.0005731582641601562
ell 750, elapsed: 0.0005888938903808594
ell 749, elapsed: 0.0005729198455810547
ell 748, elapsed: 0.000579833984375
ell 742, elapsed: 0.0010030269622802734
ell 741, elapsed: 0.0005710124969482422
ell 740, elapsed: 0.0005788803100585938
ell 739, elapsed: 0.0006251335144042969
ell 738, elapsed: 0.0006411075592041016
ell 732, elapsed: 0.0015587806701660156
ell 731, elapsed: 0.0007200241088867188
ell 730, elapsed: 0.0008800029754638672
ell 729, elapsed: 0.0008580684661865234
ell 728, elapsed: 0.0006639957427978516
ell 722, elapsed: 0.0010797977447509766
ell 721, elapsed: 0.0006148815155029297
ell 720, elapsed: 0.0006418228149414062
ell 719, elapsed: 0.0006148815155029297
ell 718, elapsed: 0.0006258487701416016
ell 712, elapsed: 0.0010831356048583984
ell 711, elapsed: 0.0006151199340820312
ell 710, elapsed: 0.0006771087646484375
ell 709, elapsed: 0.0008690357208251953
ell 708, elapsed: 0.0008800029754638672
ell 702, elapsed: 0.0015869140625
ell 701, elapsed: 0.0008869171142578125
ell 700, elapsed: 0.0008821487426757812
ell 699, elapsed: 0.0009438991546630859
ell 698, elapsed: 0.0009529590606689453
ell 692, elapsed: 0.0018498897552490234
ell 691, elapsed: 0.0010118484497070312
ell 690, elapsed: 0.001032114028930664
ell 689, elapsed: 0.0010251998901367188
ell 688, elapsed: 0.001068115234375
ell 682, elapsed: 0.0017971992492675781
ell 681, elapsed: 0.0009751319885253906
ell 680, elapsed: 0.0009970664978027344
ell 679, elapsed: 0.0009930133819580078
ell 678, elapsed: 0.001007080078125
ell 672, elapsed: 0.0017619132995605469
ell 671, elapsed: 0.001013040542602539
ell 670, elapsed: 0.0010831356048583984
ell 669, elapsed: 0.001035928726196289
ell 668, elapsed: 0.0009989738464355469
ell 662, elapsed: 0.001772165298461914
ell 661, elapsed: 0.000988006591796875
ell 660, elapsed: 0.0009930133819580078
ell 659, elapsed: 0.0011529922485351562
ell 658, elapsed: 0.0007359981536865234
ell 652, elapsed: 0.0013120174407958984
ell 651, elapsed: 0.0007309913635253906
ell 650, elapsed: 0.0007491111755371094
ell 649, elapsed: 0.0007278919219970703
ell 648, elapsed: 0.0007381439208984375
ell 642, elapsed: 0.001291036605834961
ell 641, elapsed: 0.0007410049438476562
ell 640, elapsed: 0.0008690357208251953
ell 639, elapsed: 0.0007250308990478516
ell 638, elapsed: 0.0008661746978759766
ell 632, elapsed: 0.0014150142669677734
ell 631, elapsed: 0.0007281303405761719
ell 630, elapsed: 0.0006251335144042969
ell 629, elapsed: 0.000614166259765625
ell 628, elapsed: 0.0005910396575927734
ell 622, elapsed: 0.0010418891906738281
ell 621, elapsed: 0.0005879402160644531
ell 620, elapsed: 0.0005869865417480469
ell 619, elapsed: 0.000579833984375
ell 618, elapsed: 0.0005888938903808594
ell 612, elapsed: 0.0009799003601074219
ell 611, elapsed: 0.0005860328674316406
ell 610, elapsed: 0.0005731582641601562
ell 609, elapsed: 0.0005638599395751953
ell 608, elapsed: 0.0005738735198974609
ell 602, elapsed: 0.0009739398956298828
ell 601, elapsed: 0.0005669593811035156
ell 600, elapsed: 0.0005908012390136719
ell 599, elapsed: 0.0005691051483154297
ell 598, elapsed: 0.0005738735198974609
ell 592, elapsed: 0.0009779930114746094
ell 591, elapsed: 0.0005691051483154297
ell 590, elapsed: 0.0005710124969482422
ell 589, elapsed: 0.0005691051483154297
ell 588, elapsed: 0.0005719661712646484
ell 582, elapsed: 0.0009779930114746094
ell 581, elapsed: 0.0005679130554199219
ell 580, elapsed: 0.0005791187286376953
ell 579, elapsed: 0.0005860328674316406
ell 578, elapsed: 0.000576019287109375
ell 572, elapsed: 0.0009748935699462891
ell 571, elapsed: 0.0005738735198974609
ell 570, elapsed: 0.000576019287109375
ell 569, elapsed: 0.0005609989166259766
ell 568, elapsed: 0.000598907470703125
ell 562, elapsed: 0.0009860992431640625
ell 561, elapsed: 0.0005710124969482422
ell 560, elapsed: 0.0005819797515869141
ell 559, elapsed: 0.0005679130554199219
ell 558, elapsed: 0.0005788803100585938
ell 552, elapsed: 0.0010139942169189453
ell 551, elapsed: 0.0005738735198974609
ell 550, elapsed: 0.0005748271942138672
ell 549, elapsed: 0.0005559921264648438
ell 548, elapsed: 0.0005719661712646484
ell 542, elapsed: 0.000993967056274414
ell 541, elapsed: 0.0005650520324707031
ell 540, elapsed: 0.0005710124969482422
ell 539, elapsed: 0.0005650520324707031
ell 538, elapsed: 0.0005829334259033203
ell 532, elapsed: 0.0009629726409912109
ell 531, elapsed: 0.0005910396575927734
ell 530, elapsed: 0.0005741119384765625
ell 529, elapsed: 0.0005600452423095703
ell 528, elapsed: 0.0005559921264648438
ell 522, elapsed: 0.0009500980377197266
ell 521, elapsed: 0.0005459785461425781
ell 520, elapsed: 0.0005769729614257812
ell 519, elapsed: 0.0005419254302978516
ell 518, elapsed: 0.0005571842193603516
ell 512, elapsed: 0.0009479522705078125
ell 511, elapsed: 0.0005459785461425781
ell 510, elapsed: 0.0005540847778320312
ell 509, elapsed: 0.0006740093231201172
ell 508, elapsed: 0.0007379055023193359
ell 502, elapsed: 0.001291036605834961
ell 501, elapsed: 0.0007281303405761719
ell 500, elapsed: 0.0007331371307373047
ell 499, elapsed: 0.0007271766662597656
ell 498, elapsed: 0.0007338523864746094
ell 492, elapsed: 0.0012950897216796875
ell 491, elapsed: 0.0007259845733642578
ell 490, elapsed: 0.0008249282836914062
ell 489, elapsed: 0.0008192062377929688
ell 488, elapsed: 0.0007338523864746094
ell 482, elapsed: 0.0012969970703125
ell 481, elapsed: 0.0008080005645751953
ell 480, elapsed: 0.0007839202880859375
ell 479, elapsed: 0.0007760524749755859
ell 478, elapsed: 0.0007879734039306641
ell 472, elapsed: 0.0014841556549072266
ell 471, elapsed: 0.0008590221405029297
ell 470, elapsed: 0.0007779598236083984
ell 469, elapsed: 0.0007710456848144531
ell 468, elapsed: 0.0007920265197753906
ell 462, elapsed: 0.0013659000396728516
ell 461, elapsed: 0.0007779598236083984
ell 460, elapsed: 0.0008180141448974609
ell 459, elapsed: 0.0009260177612304688
ell 458, elapsed: 0.0009329319000244141
ell 452, elapsed: 0.0016219615936279297
ell 451, elapsed: 0.0008630752563476562
ell 450, elapsed: 0.0008649826049804688
ell 449, elapsed: 0.0008549690246582031
ell 448, elapsed: 0.0008900165557861328
ell 442, elapsed: 0.0014400482177734375
ell 441, elapsed: 0.0007729530334472656
ell 440, elapsed: 0.0007898807525634766
ell 439, elapsed: 0.0007710456848144531
ell 438, elapsed: 0.0007789134979248047
ell 432, elapsed: 0.0013561248779296875
ell 431, elapsed: 0.0008890628814697266
ell 430, elapsed: 0.0008549690246582031
ell 429, elapsed: 0.0007679462432861328
ell 428, elapsed: 0.0007779598236083984
ell 422, elapsed: 0.0013730525970458984
ell 421, elapsed: 0.0007698535919189453
ell 420, elapsed: 0.0007779598236083984
ell 419, elapsed: 0.0007801055908203125
ell 418, elapsed: 0.0006299018859863281
ell 412, elapsed: 0.0010731220245361328
ell 411, elapsed: 0.0006170272827148438
ell 410, elapsed: 0.0006229877471923828
ell 409, elapsed: 0.0006110668182373047
ell 408, elapsed: 0.0007472038269042969
ell 402, elapsed: 0.001291036605834961
ell 401, elapsed: 0.0007288455963134766
ell 400, elapsed: 0.0007338523864746094
ell 399, elapsed: 0.0008821487426757812
ell 398, elapsed: 0.0007851123809814453
ell 392, elapsed: 0.0010120868682861328
ell 391, elapsed: 0.0005970001220703125
ell 390, elapsed: 0.0009109973907470703
ell 389, elapsed: 0.0008897781372070312
ell 388, elapsed: 0.0006508827209472656
ell 382, elapsed: 0.0010020732879638672
ell 381, elapsed: 0.0006389617919921875
ell 380, elapsed: 0.0005929470062255859
ell 379, elapsed: 0.0005941390991210938
ell 378, elapsed: 0.0006029605865478516
ell 372, elapsed: 0.0010061264038085938
ell 371, elapsed: 0.0005679130554199219
ell 370, elapsed: 0.0006139278411865234
ell 369, elapsed: 0.0005769729614257812
ell 368, elapsed: 0.0005829334259033203
ell 362, elapsed: 0.0009710788726806641
ell 361, elapsed: 0.0005729198455810547
ell 360, elapsed: 0.0005769729614257812
ell 359, elapsed: 0.0005891323089599609
ell 358, elapsed: 0.0005779266357421875
ell 352, elapsed: 0.0009870529174804688
ell 351, elapsed: 0.0005779266357421875
ell 350, elapsed: 0.0005729198455810547
ell 349, elapsed: 0.0005660057067871094
ell 348, elapsed: 0.0005660057067871094
ell 342, elapsed: 0.0009751319885253906
ell 341, elapsed: 0.0005550384521484375
ell 340, elapsed: 0.0005710124969482422
ell 339, elapsed: 0.0005528926849365234
ell 338, elapsed: 0.0005848407745361328
ell 332, elapsed: 0.0010030269622802734
ell 331, elapsed: 0.0005609989166259766
ell 330, elapsed: 0.0005619525909423828
ell 329, elapsed: 0.0005540847778320312
ell 328, elapsed: 0.0005691051483154297
ell 322, elapsed: 0.0010080337524414062
ell 321, elapsed: 0.0005650520324707031
ell 320, elapsed: 0.0005741119384765625
ell 319, elapsed: 0.0005538463592529297
ell 318, elapsed: 0.0005698204040527344
ell 312, elapsed: 0.0010390281677246094
ell 311, elapsed: 0.0005621910095214844
ell 310, elapsed: 0.0005559921264648438
ell 309, elapsed: 0.0005478858947753906
ell 308, elapsed: 0.0005588531494140625
ell 302, elapsed: 0.0010149478912353516
ell 301, elapsed: 0.000576019287109375
ell 300, elapsed: 0.0005650520324707031
ell 299, elapsed: 0.0005710124969482422
ell 298, elapsed: 0.0005719661712646484
ell 292, elapsed: 0.0010039806365966797
ell 291, elapsed: 0.0005681514739990234
ell 290, elapsed: 0.0005991458892822266
ell 289, elapsed: 0.0005679130554199219
ell 288, elapsed: 0.0005741119384765625
ell 282, elapsed: 0.0010368824005126953
ell 281, elapsed: 0.0005688667297363281
ell 280, elapsed: 0.0005688667297363281
ell 279, elapsed: 0.0008320808410644531
ell 278, elapsed: 0.0013608932495117188
ell 272, elapsed: 0.001837015151977539
ell 271, elapsed: 0.0013709068298339844
ell 270, elapsed: 0.0013651847839355469
ell 269, elapsed: 0.0008440017700195312
ell 268, elapsed: 0.0012209415435791016
ell 262, elapsed: 0.0016481876373291016
ell 261, elapsed: 0.0012180805206298828
ell 260, elapsed: 0.001194000244140625
ell 259, elapsed: 0.0008509159088134766
ell 258, elapsed: 0.0013589859008789062
ell 252, elapsed: 0.0021529197692871094
ell 251, elapsed: 0.0013189315795898438
ell 250, elapsed: 0.0013439655303955078
ell 249, elapsed: 0.0013079643249511719
ell 248, elapsed: 0.0013229846954345703
ell 242, elapsed: 0.001895904541015625
ell 241, elapsed: 0.0013551712036132812
ell 240, elapsed: 0.0013630390167236328
ell 239, elapsed: 0.0014851093292236328
ell 238, elapsed: 0.0011529922485351562
ell 232, elapsed: 0.0016140937805175781
ell 231, elapsed: 0.001466989517211914
ell 230, elapsed: 0.0012497901916503906
ell 229, elapsed: 0.0012888908386230469
ell 228, elapsed: 0.0013821125030517578
ell 222, elapsed: 0.0024399757385253906
ell 221, elapsed: 0.0008821487426757812
ell 220, elapsed: 0.0008490085601806641
ell 219, elapsed: 0.0008249282836914062
ell 218, elapsed: 0.0007388591766357422
ell 212, elapsed: 0.0013320446014404297
ell 211, elapsed: 0.0008630752563476562
ell 210, elapsed: 0.001026153564453125
ell 209, elapsed: 0.00061798095703125
ell 208, elapsed: 0.0006239414215087891
ell 202, elapsed: 0.0011060237884521484
ell 201, elapsed: 0.001210927963256836
ell 200, elapsed: 0.0012280941009521484
ell 199, elapsed: 0.0012769699096679688
ell 198, elapsed: 0.0012810230255126953
ell 192, elapsed: 0.002518177032470703
ell 191, elapsed: 0.0014450550079345703
ell 190, elapsed: 0.0010111331939697266
ell 189, elapsed: 0.0006399154663085938
ell 188, elapsed: 0.0006330013275146484
ell 182, elapsed: 0.0010960102081298828
ell 181, elapsed: 0.0005540847778320312
ell 180, elapsed: 0.0005638599395751953
ell 179, elapsed: 0.0005500316619873047
ell 178, elapsed: 0.0005891323089599609
ell 172, elapsed: 0.0010099411010742188
ell 171, elapsed: 0.0005550384521484375
ell 170, elapsed: 0.0008299350738525391
ell 169, elapsed: 0.0008859634399414062
ell 168, elapsed: 0.0008969306945800781
ell 162, elapsed: 0.0016241073608398438
ell 161, elapsed: 0.0008950233459472656
ell 160, elapsed: 0.0006749629974365234
ell 159, elapsed: 0.0005660057067871094
ell 158, elapsed: 0.0005908012390136719
ell 152, elapsed: 0.00102996826171875
ell 151, elapsed: 0.000576019287109375
ell 150, elapsed: 0.0005691051483154297
ell 149, elapsed: 0.0005891323089599609
ell 148, elapsed: 0.0005788803100585938
ell 142, elapsed: 0.0010139942169189453
ell 141, elapsed: 0.0005650520324707031
ell 140, elapsed: 0.0005650520324707031
ell 139, elapsed: 0.0005688667297363281
ell 138, elapsed: 0.0006041526794433594
ell 132, elapsed: 0.0010600090026855469
ell 131, elapsed: 0.0005750656127929688
ell 130, elapsed: 0.0005888938903808594
ell 129, elapsed: 0.0005700588226318359
ell 128, elapsed: 0.0005810260772705078
ell 122, elapsed: 0.0010120868682861328
ell 121, elapsed: 0.0005660057067871094
ell 120, elapsed: 0.0005779266357421875
ell 119, elapsed: 0.0005710124969482422
ell 118, elapsed: 0.0005819797515869141
ell 112, elapsed: 0.0010330677032470703
ell 111, elapsed: 0.0005738735198974609
ell 110, elapsed: 0.0005710124969482422
ell 109, elapsed: 0.0005581378936767578
ell 108, elapsed: 0.000576019287109375
ell 102, elapsed: 0.0010001659393310547
ell 101, elapsed: 0.002359151840209961
ell 100, elapsed: 0.002566099166870117
ell 99, elapsed: 0.0028018951416015625
ell 98, elapsed: 0.0028150081634521484
ell 92, elapsed: 0.0052831172943115234
ell 91, elapsed: 0.002808094024658203
ell 90, elapsed: 0.0033349990844726562
ell 89, elapsed: 0.003389120101928711
ell 88, elapsed: 0.003350973129272461
ell 82, elapsed: 0.006145000457763672
ell 81, elapsed: 0.003353118896484375
ell 80, elapsed: 0.0033278465270996094
ell 79, elapsed: 0.003376007080078125
ell 78, elapsed: 0.0033478736877441406
ell 72, elapsed: 0.006066083908081055
ell 71, elapsed: 0.0033860206604003906
ell 70, elapsed: 0.0033521652221679688
ell 69, elapsed: 0.0033071041107177734
ell 68, elapsed: 0.0032968521118164062
ell 62, elapsed: 0.0060918331146240234
ell 61, elapsed: 0.0034110546112060547
ell 60, elapsed: 0.0034301280975341797
ell 59, elapsed: 0.003365039825439453
ell 58, elapsed: 0.003371000289916992
ell 52, elapsed: 0.0061299800872802734
ell 51, elapsed: 0.0034449100494384766
ell 50, elapsed: 0.003429889678955078
ell 49, elapsed: 0.0031859874725341797
ell 48, elapsed: 0.0032989978790283203
ell 42, elapsed: 0.005850076675415039
ell 41, elapsed: 0.0030918121337890625
ell 40, elapsed: 0.004271030426025391
ell 39, elapsed: 0.0030469894409179688
ell 38, elapsed: 0.003322124481201172
ell 32, elapsed: 0.006448984146118164
ell 31, elapsed: 0.0035369396209716797
ell 30, elapsed: 0.003582000732421875
ell 29, elapsed: 0.0033750534057617188
ell 28, elapsed: 0.003398895263671875
ell 22, elapsed: 0.006131887435913086
ell 21, elapsed: 0.0034339427947998047
ell 20, elapsed: 0.0034248828887939453
ell 19, elapsed: 0.0033500194549560547
ell 18, elapsed: 0.003309965133666992
ell 12, elapsed: 0.006124973297119141
ell 11, elapsed: 0.0033829212188720703
ell 10, elapsed: 0.0035741329193115234
ell 9, elapsed: 0.0032181739807128906
ell 8, elapsed: 0.003175973892211914
  0.689647 seconds (97.25 k allocations: 12.614 MiB)
elapsed: 0.003929853439331055
step:          0.058241 sec (0 allocations: 0 byte, 0.0% gc time)
swapping:      0.000484 sec (0 allocations: 0 byte, 0.0% gc time)
calc_Mellell!: 0.036296 sec (0 allocations: 0 byte, 0.0% gc time)
  t0 :  0.007874 sec (0 allocations: 0 byte, 0.0% gc time)
  tm2 : 0.063627 sec (0 allocations: 0 byte, 0.0% gc time)
  tm2s: 0.0064 sec (0 allocations: 0 byte, 0.0% gc time)
  tm4 : 0.151398 sec (0 allocations: 0 byte, 0.0% gc time)
  tp2 : 0.0 sec (0 allocations: 0 byte, 0.0% gc time)
  tp2s: 0.0 sec (0 allocations: 0 byte, 0.0% gc time)
  tp4 : 0.0 sec (0 allocations: 0 byte, 0.0% gc time)
calc_wtdll!:   0.477296 sec (48.6 k allocations: 11.096 MB, 0.0% gc time)
calc_wljj!:    0.027737 sec (69 allocations: 1.078 KB, 0.0% gc time)
mult_prefac!:  0.0 sec (0 allocations: 0 byte, 0.0% gc time)
convert:       0.0 sec (0 allocations: 0 byte, 0.0% gc time)
write:         0.028367 sec (0 allocations: 0 byte, 0.0% gc time)
test_rand_2f1: 0.0 sec (0 allocations: 0 byte, 0.0% gc time)
Closing outfile out/MlCache/MlCache.bin...   0.000006 seconds
xi, l=0, nu=0:   0.268556 seconds (603.03 k allocations: 32.975 MiB)
xi, l=0, nu=-2:  0.002760 seconds (114 allocations: 148.969 KiB)
Created 'out/xi.tsv'.
  q=1.1, R=0.6:	  0.812172 seconds (264.51 k allocations: 38.097 MiB)
  q=1.1, R=0.7:	  0.983409 seconds (276.48 k allocations: 40.118 MiB, 1.58% gc time)
  q=1.1, R=0.8:	  1.037557 seconds (271.73 k allocations: 39.310 MiB, 1.39% gc time)
  q=1.1, R=0.9:	  1.051840 seconds (266.62 k allocations: 38.459 MiB, 0.72% gc time)
  q=1.1, R=0.998:	 17.792813 seconds (114.96 k allocations: 7.588 MiB)
  q=1.1, R=1.0:	  0.003136 seconds (8.20 k allocations: 704.344 KiB)

ℓ = 1000
Δℓ = 4
ΔℓRg1 = -4
N = 4096
q = 1.1
kmin = 1.0e-5
kmax = 1000.0
χ0 = 0.001
RR = RR.tsv
ℓmax = ℓmax.bin
f21 = f21.bin
kmin = 1.0e-5
kmax = 1000.0
dlrec    = 4
dlrecRg1 = -4
Output size: 1573632 bytes = 0.0014655590057373047 GiB
Output size: 786816 bytes = 0.0007327795028686523 GiB
Reading 'out/F21EllCache'...   0.002031 seconds (198 allocations: 533.078 KiB)
ellmax: 1002
lmaxcache: 1000
fell[:,1,1] = ComplexF64[1.726292812820208e-224 - 4.2281979352226965e-240im, 1.7282693092099638e-224 - 4.233038955177178e-240im]
ell 1002, elapsed: 6.008148193359375e-5
ell 1001, elapsed: 0.0014619827270507812
ell 1000, elapsed: 0.0012350082397460938
ell 999, elapsed: 0.0056819915771484375
ell 998, elapsed: 0.004239082336425781
ell 44, elapsed: 0.6982259750366211
ell 43, elapsed: 0.005582094192504883
ell 42, elapsed: 0.005563020706176758
ell 41, elapsed: 0.005582094192504883
ell 40, elapsed: 0.005577802658081055
  0.741004 seconds (5.06 k allocations: 329.484 KiB)
elapsed: 0.006796836853027344
step:          0.69618 sec (0 allocations: 0 byte, 0.0% gc time)
swapping:      0.000476 sec (0 allocations: 0 byte, 0.0% gc time)
calc_Mellell!: 0.001424 sec (0 allocations: 0 byte, 0.0% gc time)
  t0 :  0.000682 sec (0 allocations: 0 byte, 0.0% gc time)
  tm2 : 0.009328 sec (0 allocations: 0 byte, 0.0% gc time)
  tm2s: 0.0006 sec (0 allocations: 0 byte, 0.0% gc time)
  tm4 : 0.025494 sec (0 allocations: 0 byte, 0.0% gc time)
  tp2 : 0.0 sec (0 allocations: 0 byte, 0.0% gc time)
  tp2s: 0.0 sec (0 allocations: 0 byte, 0.0% gc time)
  tp4 : 0.0 sec (0 allocations: 0 byte, 0.0% gc time)
calc_wtdll!:   0.036326 sec (480 allocations: 52.5 KB, 0.0% gc time)
calc_wljj!:    0.001408 sec (1 allocations: 16 byte, 0.0% gc time)
mult_prefac!:  0.0 sec (0 allocations: 0 byte, 0.0% gc time)
convert:       0.0 sec (0 allocations: 0 byte, 0.0% gc time)
write:         0.000908 sec (0 allocations: 0 byte, 0.0% gc time)
test_rand_2f1: 0.0 sec (0 allocations: 0 byte, 0.0% gc time)
Closing outfile out/MlCache/MlCache.bin...   0.000005 seconds
  0.484084 seconds (38 allocations: 66.859 KiB)
make_phi():   0.009974 seconds (65 allocations: 275.984 KiB)
  0.046867 seconds (11.42 k allocations: 711.851 KiB)
tskip:       1.0e-6 sec (0 allocations: 0 byte, 0.0% gc time)
tread:       0.000784 sec (17 allocations: 1.266 KB, 0.0% gc time)
tmultphi:    0.000425 sec (0 allocations: 0 byte, 0.0% gc time)
tbrfft:      0.001616 sec (0 allocations: 0 byte, 0.0% gc time)
tmultprefac: 0.000836 sec (0 allocations: 0 byte, 0.0% gc time)
toutfunc:    0.000172 sec (0 allocations: 0 byte, 0.0% gc time)
Created 'out/wl42_jj00.tsv'.
Created 'out/wl42_jj02.tsv'.
    Testing TwoFAST tests passed 
