Julia Version 1.6.0-DEV.1063
Commit 93bbe0833b (2020-09-26 14:27 UTC)
Platform Info:
  OS: Linux (x86_64-pc-linux-gnu)
  CPU: Intel(R) Xeon(R) Silver 4114 CPU @ 2.20GHz
  WORD_SIZE: 64
  LIBM: libopenlibm
  LLVM: libLLVM-10.0.1 (ORCJIT, skylake-avx512)
Environment:
  JULIA_DEPOT_PATH = ::/usr/local/share/julia
  JULIA_NUM_THREADS = 2

  Resolving package versions...
  Installed MKL_jll ────────────────────── v2020.2.254+0
  Installed IntelOpenMP_jll ────────────── v2018.0.3+0
  Installed CompilerSupportLibraries_jll ─ v0.3.3+0
  Installed FFTW_jll ───────────────────── v3.3.9+5
  Installed BinaryProvider ─────────────── v0.5.10
  Installed GenericSchur ───────────────── v0.4.0
  Installed ArbNumerics ────────────────── v1.2.1
  Installed AbstractFFTs ───────────────── v0.5.0
  Installed Readables ──────────────────── v0.3.3
  Installed Reexport ───────────────────── v0.2.0
  Installed SpecialFunctions ───────────── v0.10.3
  Installed FFTW ───────────────────────── v1.2.4
  Installed GenericSVD ─────────────────── v0.3.0
  Installed TwoFAST ────────────────────── v0.1.3
  Installed OpenSpecFun_jll ────────────── v0.5.3+3
Updating `~/.julia/environments/v1.6/Project.toml`
  [0dd23c3e] + TwoFAST v0.1.3
Updating `~/.julia/environments/v1.6/Manifest.toml`
  [621f4979] + AbstractFFTs v0.5.0
  [7e558dbc] + ArbNumerics v1.2.1
  [b99e7846] + BinaryProvider v0.5.10
  [e66e0078] + CompilerSupportLibraries_jll v0.3.3+0
  [7a1cc6ca] + FFTW v1.2.4
  [f5851436] + FFTW_jll v3.3.9+5
  [01680d73] + GenericSVD v0.3.0
  [c145ed77] + GenericSchur v0.4.0
  [1d5cc7b8] + IntelOpenMP_jll v2018.0.3+0
  [856f044c] + MKL_jll v2020.2.254+0
  [efe28fd5] + OpenSpecFun_jll v0.5.3+3
  [0d4725de] + Readables v0.3.3
  [189a3867] + Reexport v0.2.0
  [276daf66] + SpecialFunctions v0.10.3
  [0dd23c3e] + TwoFAST v0.1.3
  [56f22d72] + Artifacts
  [2a0f44e3] + Base64
  [ade2ca70] + Dates
  [8bb1440f] + DelimitedFiles
  [8ba89e20] + Distributed
  [b77e0a4c] + InteractiveUtils
  [76f85450] + LibGit2
  [8f399da3] + Libdl
  [37e2e46d] + LinearAlgebra
  [56ddb016] + Logging
  [d6f4376e] + Markdown
  [a63ad114] + Mmap
  [44cfe95a] + Pkg
  [de0858da] + Printf
  [3fa0cd96] + REPL
  [9a3f8284] + Random
  [ea8e919c] + SHA
  [9e88b42a] + Serialization
  [6462fe0b] + Sockets
  [fa267f1f] + TOML
  [8dfed614] + Test
  [cf7118a7] + UUIDs
  [4ec0a83e] + Unicode
   Building ArbNumerics → `~/.julia/packages/ArbNumerics/joGFm/deps/build.log`
   Building FFTW ───────→ `~/.julia/packages/FFTW/DMUbN/deps/build.log`
    Testing TwoFAST
Status `/tmp/jl_BSumhK/Project.toml`
  [7e558dbc] ArbNumerics v1.2.1
  [39dd38d3] Dierckx v0.5.0
  [7a1cc6ca] FFTW v1.2.4
  [276daf66] SpecialFunctions v0.10.3
  [0dd23c3e] TwoFAST v0.1.3
  [8bb1440f] DelimitedFiles
  [37e2e46d] LinearAlgebra
  [56ddb016] Logging
  [8dfed614] Test
Status `/tmp/jl_BSumhK/Manifest.toml`
  [621f4979] AbstractFFTs v0.5.0
  [7e558dbc] ArbNumerics v1.2.1
  [b99e7846] BinaryProvider v0.5.10
  [e66e0078] CompilerSupportLibraries_jll v0.3.3+0
  [39dd38d3] Dierckx v0.5.0
  [cd4c43a9] Dierckx_jll v0.0.1+0
  [7a1cc6ca] FFTW v1.2.4
  [f5851436] FFTW_jll v3.3.9+5
  [01680d73] GenericSVD v0.3.0
  [c145ed77] GenericSchur v0.4.0
  [1d5cc7b8] IntelOpenMP_jll v2018.0.3+0
  [856f044c] MKL_jll v2020.2.254+0
  [efe28fd5] OpenSpecFun_jll v0.5.3+3
  [0d4725de] Readables v0.3.3
  [189a3867] Reexport v0.2.0
  [276daf66] SpecialFunctions v0.10.3
  [0dd23c3e] TwoFAST v0.1.3
  [56f22d72] Artifacts
  [2a0f44e3] Base64
  [ade2ca70] Dates
  [8bb1440f] DelimitedFiles
  [8ba89e20] Distributed
  [b77e0a4c] InteractiveUtils
  [76f85450] LibGit2
  [8f399da3] Libdl
  [37e2e46d] LinearAlgebra
  [56ddb016] Logging
  [d6f4376e] Markdown
  [a63ad114] Mmap
  [44cfe95a] Pkg
  [de0858da] Printf
  [3fa0cd96] REPL
  [9a3f8284] Random
  [ea8e919c] SHA
  [9e88b42a] Serialization
  [6462fe0b] Sockets
  [fa267f1f] TOML
  [8dfed614] Test
  [cf7118a7] UUIDs
  [4ec0a83e] Unicode
    Testing Running tests...
WARNING: could not import Printf.ini_hex into ArbNumerics
WARNING: could not import Printf.ini_HEX into ArbNumerics
t = 0.0 sec (0 allocations: 0 byte, 0.0% gc time)
typeof(t) = NamedTuple{(:value, :time, :bytes, :gctime, :gcstats), Tuple{DataType, Float64, Int64, Float64, Base.GC_Diff}}
TwoFAST.PerformanceStats.TimedType = Union{NamedTuple{(:value, :time, :bytes, :gctime, :gcstats), Tuple{T, Float64, Int64, Float64, Base.GC_Diff}}, Tuple{Any, Float64, Int64, Float64, Base.GC_Diff}} where T
t = 1.0e-6 sec (0 allocations: 0 byte, 0.0% gc time)
t: 1.0e-6 sec (0 allocations: 0 byte, 0.0% gc time)
Testing ξ(r), ℓ=0, ν=-1 ... passed
Testing ξ(r), ℓ=0, ν=0 ... passed
Testing ξ(r), ℓ=0, ν=1 ... passed
Testing ξ(r), ℓ=0, ν=2 ... passed
Testing ξ(r), ℓ=0, ν=3 ... passed
Testing ξ(r), ℓ=1, ν=0 ... passed
Testing ξ(r), ℓ=1, ν=1 ... passed
Testing ξ(r), ℓ=1, ν=2 ... passed
Testing ξ(r), ℓ=1, ν=3 ... passed
Testing ξ(r), ℓ=2, ν=-1 ... passed
Testing ξ(r), ℓ=2, ν=0 ... passed
Testing ξ(r), ℓ=2, ν=1 ... passed
Testing ξ(r), ℓ=2, ν=2 ... passed
Testing ξ(r), ℓ=2, ν=3 ... passed
Testing ξ(r), ℓ=3, ν=-1 ... passed
Testing ξ(r), ℓ=3, ν=0 ... passed
Testing ξ(r), ℓ=3, ν=1 ... passed
Testing ξ(r), ℓ=3, ν=2 ... passed
Testing ξ(r), ℓ=3, ν=3 ... passed
Testing ξ(r), ℓ=4, ν=-1 ... passed
Testing ξ(r), ℓ=4, ν=0 ... passed
Testing ξ(r), ℓ=4, ν=1 ... passed
Testing ξ(r), ℓ=4, ν=2 ... passed
Testing ξ(r), ℓ=4, ν=3 ... passed
Testing ξ(r) ... passed
Testing ξ′(r) ... passed
Testing ξ″(r) ... passed
Calculating fmax: 
  dlrec    = 4
  dlrecRg1 = -4
  q=1.1, R=1.1:	  3.580064 seconds (844.29 k allocations: 53.969 MiB, 1.01% gc time)

  3.592037 seconds (856.96 k allocations: 54.758 MiB, 1.01% gc time)
ℓ = 1202
Δℓ = 4
ΔℓRg1 = -4
N = 1600
q = 1.1
kmin = 1.0e-5
kmax = 100000.00000000004
χ0 = 0.023029999999999995
RR = RR.tsv
ℓmax = ℓmax.bin
f21 = f21.bin
kmin = 1.0e-5
kmax = 100000.0
dlrec    = 4
dlrecRg1 = -4
Output size: 5741568 bytes = 0.005347251892089844 GiB
Output size: 51264 bytes = 4.774332046508789e-5 GiB
Reading 'out/F21EllCache'...   0.638664 seconds (395.09 k allocations: 23.198 MiB)
ellmax: 1202
lmaxcache: 1202
fell[:,1,1] = ComplexF64[3.9583795592771634e-52 - 9.695233714158177e-68im, 3.990121772925759e-52 - 9.772979714843386e-68im]
ell 1202, elapsed: 6.985664367675781e-5
ell 1201, elapsed: 1.1308667659759521
ell 1200, elapsed: 0.0006501674652099609
ell 1199, elapsed: 0.0006220340728759766
ell 1198, elapsed: 0.0006299018859863281
ell 1002, elapsed: 0.012198925018310547
ell 1001, elapsed: 0.0005629062652587891
ell 1000, elapsed: 0.0006630420684814453
ell 999, elapsed: 0.0007059574127197266
ell 998, elapsed: 0.0004961490631103516
ell 902, elapsed: 0.00568699836730957
ell 901, elapsed: 0.0005490779876708984
ell 900, elapsed: 0.0005450248718261719
ell 899, elapsed: 0.0005459785461425781
ell 898, elapsed: 0.0005550384521484375
ell 802, elapsed: 0.0058460235595703125
ell 801, elapsed: 0.0005528926849365234
ell 800, elapsed: 0.0005440711975097656
ell 799, elapsed: 0.0005869865417480469
ell 798, elapsed: 0.0006799697875976562
ell 702, elapsed: 0.00545191764831543
ell 701, elapsed: 0.00045990943908691406
ell 700, elapsed: 0.0004820823669433594
ell 699, elapsed: 0.0004971027374267578
ell 698, elapsed: 0.0004508495330810547
ell 602, elapsed: 0.004848957061767578
ell 601, elapsed: 0.0004589557647705078
ell 600, elapsed: 0.00043892860412597656
ell 599, elapsed: 0.00045990943908691406
ell 598, elapsed: 0.0004470348358154297
ell 502, elapsed: 0.004862070083618164
ell 501, elapsed: 0.0004749298095703125
ell 500, elapsed: 0.0004470348358154297
ell 499, elapsed: 0.00045800209045410156
ell 498, elapsed: 0.00045800209045410156
ell 402, elapsed: 0.0047740936279296875
ell 401, elapsed: 0.0004591941833496094
ell 400, elapsed: 0.00044083595275878906
ell 399, elapsed: 0.00045609474182128906
ell 398, elapsed: 0.0004639625549316406
ell 302, elapsed: 0.0048601627349853516
ell 301, elapsed: 0.00045299530029296875
ell 300, elapsed: 0.0004439353942871094
ell 299, elapsed: 0.0005030632019042969
ell 298, elapsed: 0.0005118846893310547
ell 202, elapsed: 0.004745960235595703
ell 201, elapsed: 0.0004570484161376953
ell 200, elapsed: 0.00044798851013183594
ell 199, elapsed: 0.0005209445953369141
ell 198, elapsed: 0.0004849433898925781
ell 152, elapsed: 0.0025191307067871094
ell 151, elapsed: 0.00043892860412597656
ell 150, elapsed: 0.00043892860412597656
ell 149, elapsed: 0.0004570484161376953
ell 148, elapsed: 0.0004391670227050781
ell 127, elapsed: 0.0013990402221679688
ell 126, elapsed: 0.0004398822784423828
ell 125, elapsed: 0.00049591064453125
ell 124, elapsed: 0.0004870891571044922
ell 123, elapsed: 0.00043892860412597656
ell 114, elapsed: 0.0008490085601806641
ell 113, elapsed: 0.0004379749298095703
ell 112, elapsed: 0.0004620552062988281
ell 111, elapsed: 0.0004699230194091797
ell 110, elapsed: 0.0004589557647705078
ell 102, elapsed: 0.000804901123046875
ell 101, elapsed: 0.0004429817199707031
ell 100, elapsed: 0.0004558563232421875
ell 99, elapsed: 0.00044417381286621094
ell 98, elapsed: 0.0004410743713378906
ell 97, elapsed: 0.0005118846893310547
ell 96, elapsed: 0.0004870891571044922
ell 95, elapsed: 0.0004870891571044922
ell 94, elapsed: 0.0004811286926269531
ell 93, elapsed: 0.0004968643188476562
ell 92, elapsed: 0.0004878044128417969
ell 91, elapsed: 0.0004911422729492188
ell 90, elapsed: 0.0004990100860595703
ell 89, elapsed: 0.0004961490631103516
ell 88, elapsed: 0.0004949569702148438
ell 87, elapsed: 0.0004971027374267578
ell 86, elapsed: 0.0004999637603759766
ell 85, elapsed: 0.0004918575286865234
ell 84, elapsed: 0.0005028247833251953
ell 83, elapsed: 0.0004940032958984375
ell 82, elapsed: 0.0006368160247802734
ell 81, elapsed: 0.0006909370422363281
ell 80, elapsed: 0.0006811618804931641
ell 79, elapsed: 0.0006740093231201172
ell 78, elapsed: 0.0006780624389648438
ell 77, elapsed: 0.0007050037384033203
ell 76, elapsed: 0.0006170272827148438
ell 75, elapsed: 0.0006029605865478516
ell 74, elapsed: 0.0006101131439208984
ell 73, elapsed: 0.0006031990051269531
ell 72, elapsed: 0.0006070137023925781
ell 71, elapsed: 0.0006220340728759766
ell 70, elapsed: 0.0006299018859863281
ell 69, elapsed: 0.0006439685821533203
ell 68, elapsed: 0.0006079673767089844
ell 67, elapsed: 0.0006120204925537109
ell 66, elapsed: 0.00061798095703125
ell 65, elapsed: 0.0006368160247802734
ell 64, elapsed: 0.0006310939788818359
ell 63, elapsed: 0.0006110668182373047
ell 62, elapsed: 0.0006170272827148438
ell 61, elapsed: 0.00061798095703125
ell 60, elapsed: 0.0006132125854492188
ell 59, elapsed: 0.0007100105285644531
ell 58, elapsed: 0.0006189346313476562
ell 57, elapsed: 0.0006089210510253906
ell 56, elapsed: 0.0006110668182373047
ell 55, elapsed: 0.0006070137023925781
ell 54, elapsed: 0.0006089210510253906
ell 53, elapsed: 0.0008959770202636719
ell 52, elapsed: 0.0006189346313476562
ell 51, elapsed: 0.0006189346313476562
ell 50, elapsed: 0.0006101131439208984
ell 49, elapsed: 0.0006189346313476562
ell 48, elapsed: 0.0006110668182373047
ell 47, elapsed: 0.0007779598236083984
ell 46, elapsed: 0.00078582763671875
ell 45, elapsed: 0.0006101131439208984
ell 44, elapsed: 0.0006129741668701172
ell 43, elapsed: 0.0006101131439208984
ell 42, elapsed: 0.0006031990051269531
ell 41, elapsed: 0.0007119178771972656
ell 40, elapsed: 0.0006160736083984375
ell 39, elapsed: 0.0006210803985595703
ell 38, elapsed: 0.0006120204925537109
ell 37, elapsed: 0.0006070137023925781
ell 36, elapsed: 0.0006260871887207031
ell 35, elapsed: 0.0007038116455078125
ell 34, elapsed: 0.000614166259765625
ell 33, elapsed: 0.0006089210510253906
ell 32, elapsed: 0.0006098747253417969
ell 31, elapsed: 0.0006151199340820312
ell 30, elapsed: 0.0006079673767089844
ell 29, elapsed: 0.0006368160247802734
ell 28, elapsed: 0.0006070137023925781
ell 27, elapsed: 0.0006051063537597656
ell 26, elapsed: 0.0006101131439208984
ell 25, elapsed: 0.0006048679351806641
ell 24, elapsed: 0.0006129741668701172
ell 23, elapsed: 0.0006351470947265625
ell 22, elapsed: 0.0005581378936767578
ell 21, elapsed: 0.0005550384521484375
ell 20, elapsed: 0.0005700588226318359
ell 19, elapsed: 0.0005650520324707031
ell 18, elapsed: 0.0005660057067871094
ell 17, elapsed: 0.0006020069122314453
ell 16, elapsed: 0.0005609989166259766
ell 15, elapsed: 0.0005619525909423828
ell 14, elapsed: 0.0005588531494140625
ell 13, elapsed: 0.0005500316619873047
ell 12, elapsed: 0.0005571842193603516
ell 11, elapsed: 0.0005600452423095703
ell 10, elapsed: 0.0005640983581542969
ell 9, elapsed: 0.0005538463592529297
ell 8, elapsed: 0.0005469322204589844
ell 7, elapsed: 0.0005500316619873047
ell 6, elapsed: 0.0005469322204589844
ell 5, elapsed: 0.0005469322204589844
ell 4, elapsed: 0.0005681514739990234
ell 3, elapsed: 0.0005478858947753906
ell 2, elapsed: 0.0005571842193603516
ell 1, elapsed: 0.0005409717559814453
ell 0, elapsed: 0.00055694580078125
  1.805806 seconds (1.30 M allocations: 70.965 MiB, 3.60% gc time)
elapsed: 0.0006690025329589844
step:          0.292526 sec (311.142 k allocations: 16.962 MB, 0.0% gc time)
swapping:      0.000411 sec (0 allocations: 0 byte, 0.0% gc time)
calc_Mellell!: 0.115652 sec (135.743 k allocations: 7.434 MB, 0.0% gc time)
  t0 :  0.0 sec (0 allocations: 0 byte, 0.0% gc time)
  tm2 : 0.0 sec (0 allocations: 0 byte, 0.0% gc time)
  tm2s: 0.0 sec (0 allocations: 0 byte, 0.0% gc time)
  tm4 : 0.0 sec (0 allocations: 0 byte, 0.0% gc time)
  tp2 : 0.0 sec (0 allocations: 0 byte, 0.0% gc time)
  tp2s: 0.0 sec (0 allocations: 0 byte, 0.0% gc time)
  tp4 : 0.0 sec (0 allocations: 0 byte, 0.0% gc time)
calc_wtdll!:   0.856767 sec (509.615 k allocations: 28.196 MB, 2.09% gc time)
calc_wljj!:    0.002884 sec (6 allocations: 96 byte, 0.0% gc time)
mult_prefac!:  0.0 sec (0 allocations: 0 byte, 0.0% gc time)
convert:       0.0 sec (0 allocations: 0 byte, 0.0% gc time)
write:         0.003528 sec (0 allocations: 0 byte, 0.0% gc time)
test_rand_2f1: 0.0 sec (0 allocations: 0 byte, 0.0% gc time)
Closing outfile out/Ml21-cache.bin...   0.000012 seconds
  1.086306 seconds (246.25 k allocations: 14.212 MiB, 2.48% gc time)
make_phi():   0.010980 seconds (8.18 k allocations: 237.844 KiB)
  0.245159 seconds (87.57 k allocations: 4.749 MiB)
tskip:       1.9e-5 sec (0 allocations: 0 byte, 0.0% gc time)
tread:       0.002644 sec (17 allocations: 2.125 KB, 0.0% gc time)
tmultphi:    0.032831 sec (21.425 k allocations: 1.287 MB, 0.0% gc time)
tbrfft:      0.005201 sec (0 allocations: 0 byte, 0.0% gc time)
tmultprefac: 0.003564 sec (0 allocations: 0 byte, 0.0% gc time)
toutfunc:    0.160862 sec (64.484 k allocations: 3.33 MB, 0.0% gc time)
Testing R=1.1 ... passed
Calculating fmax: 
  dlrec    = 4
  dlrecRg1 = -4
  q=1.1, R=1.0:	  0.001603 seconds (3.20 k allocations: 275.344 KiB)

  0.001795 seconds (3.34 k allocations: 311.422 KiB)
ℓ = 1202
Δℓ = 4
ΔℓRg1 = -4
N = 1600
q = 1.1
kmin = 1.0e-5
kmax = 100000.00000000004
χ0 = 0.023029999999999995
RR = RR.tsv
ℓmax = ℓmax.bin
f21 = f21.bin
kmin = 1.0e-5
kmax = 100000.0
dlrec    = 4
dlrecRg1 = -4
Output size: 61465536 bytes = 0.05724424123764038 GiB
Output size: 51264 bytes = 4.774332046508789e-5 GiB
Reading 'out/F21EllCache'...   0.001044 seconds (197 allocations: 84.203 KiB)
ellmax: 1202
lmaxcache: 1202
fell[:,1,1] = ComplexF64[809.6031528389767 - 1.9829558194077161e-13im, 0.0 + 0.0im]
ell 1202, elapsed: 2.6941299438476562e-5
ell 1201, elapsed: 0.010286808013916016
ell 1200, elapsed: 0.015413999557495117
ell 1199, elapsed: 0.0004780292510986328
ell 1198, elapsed: 0.0003349781036376953
ell 1197, elapsed: 0.00041413307189941406
ell 1196, elapsed: 0.0003948211669921875
ell 1195, elapsed: 0.0003838539123535156
ell 1194, elapsed: 0.0003910064697265625
ell 1193, elapsed: 0.0003848075866699219
ell 1192, elapsed: 0.0004048347473144531
ell 1191, elapsed: 0.00038886070251464844
ell 1190, elapsed: 0.0003859996795654297
ell 1189, elapsed: 0.0003829002380371094
ell 1188, elapsed: 0.00039005279541015625
ell 1187, elapsed: 0.00039315223693847656
ell 1186, elapsed: 0.00038814544677734375
ell 1185, elapsed: 0.00038814544677734375
ell 1184, elapsed: 0.00038814544677734375
ell 1183, elapsed: 0.00044798851013183594
ell 1182, elapsed: 0.0006518363952636719
ell 1181, elapsed: 0.0007510185241699219
ell 1180, elapsed: 0.0007369518280029297
ell 1179, elapsed: 0.0007469654083251953
ell 1178, elapsed: 0.0007688999176025391
ell 1177, elapsed: 0.0006570816040039062
ell 1176, elapsed: 0.0005328655242919922
ell 1175, elapsed: 0.0005340576171875
ell 1174, elapsed: 0.0005238056182861328
ell 1173, elapsed: 0.0005290508270263672
ell 1172, elapsed: 0.0006661415100097656
ell 1171, elapsed: 0.0006811618804931641
ell 1170, elapsed: 0.0007221698760986328
ell 1169, elapsed: 0.0007150173187255859
ell 1168, elapsed: 0.0009899139404296875
ell 1167, elapsed: 0.0008370876312255859
ell 1166, elapsed: 0.0010890960693359375
ell 1165, elapsed: 0.0009980201721191406
ell 1164, elapsed: 0.0009691715240478516
ell 1163, elapsed: 0.0008590221405029297
ell 1162, elapsed: 0.0005488395690917969
ell 1161, elapsed: 0.0005791187286376953
ell 1160, elapsed: 0.0006818771362304688
ell 1159, elapsed: 0.0008180141448974609
ell 1158, elapsed: 0.0009431838989257812
ell 1157, elapsed: 0.0008270740509033203
ell 1156, elapsed: 0.000759124755859375
ell 1155, elapsed: 0.0008549690246582031
ell 1154, elapsed: 0.0008590221405029297
ell 1153, elapsed: 0.0009109973907470703
ell 1152, elapsed: 0.00086212158203125
ell 1151, elapsed: 0.0007028579711914062
ell 1150, elapsed: 0.0008580684661865234
ell 1149, elapsed: 0.0005609989166259766
ell 1148, elapsed: 0.0006871223449707031
ell 1147, elapsed: 0.0005450248718261719
ell 1146, elapsed: 0.0007441043853759766
ell 1145, elapsed: 0.0005700588226318359
ell 1144, elapsed: 0.00506901741027832
ell 1143, elapsed: 0.00049591064453125
ell 1142, elapsed: 0.0004839897155761719
ell 1141, elapsed: 0.00051116943359375
ell 1140, elapsed: 0.0004551410675048828
ell 1139, elapsed: 0.00044798851013183594
ell 1138, elapsed: 0.0004458427429199219
ell 1137, elapsed: 0.00044989585876464844
ell 1136, elapsed: 0.0006480216979980469
ell 1135, elapsed: 0.0006089210510253906
ell 1134, elapsed: 0.0006389617919921875
ell 1133, elapsed: 0.0004930496215820312
ell 1132, elapsed: 0.0005581378936767578
ell 1131, elapsed: 0.0005741119384765625
ell 1130, elapsed: 0.0005350112915039062
ell 1129, elapsed: 0.00046515464782714844
ell 1128, elapsed: 0.00045800209045410156
ell 1127, elapsed: 0.00047397613525390625
ell 1126, elapsed: 0.00047087669372558594
ell 1125, elapsed: 0.00045990943908691406
ell 1124, elapsed: 0.00047016143798828125
ell 1123, elapsed: 0.0004680156707763672
ell 1122, elapsed: 0.0004658699035644531
ell 1121, elapsed: 0.0004508495330810547
ell 1120, elapsed: 0.0004630088806152344
ell 1119, elapsed: 0.0004711151123046875
ell 1118, elapsed: 0.0004611015319824219
ell 1117, elapsed: 0.00047206878662109375
ell 1116, elapsed: 0.0004630088806152344
ell 1115, elapsed: 0.00046706199645996094
ell 1114, elapsed: 0.0004558563232421875
ell 1113, elapsed: 0.0004558563232421875
ell 1112, elapsed: 0.00047588348388671875
ell 1111, elapsed: 0.0004570484161376953
ell 1110, elapsed: 0.00045680999755859375
ell 1109, elapsed: 0.00047206878662109375
ell 1108, elapsed: 0.0004649162292480469
ell 1107, elapsed: 0.0004730224609375
ell 1106, elapsed: 0.000453948974609375
ell 1105, elapsed: 0.0004570484161376953
ell 1104, elapsed: 0.00045418739318847656
ell 1103, elapsed: 0.00036597251892089844
ell 1102, elapsed: 0.0003190040588378906
ell 1101, elapsed: 0.00032591819763183594
ell 1100, elapsed: 0.00032711029052734375
ell 1099, elapsed: 0.00031495094299316406
ell 1098, elapsed: 0.00030517578125
ell 1097, elapsed: 0.00031304359436035156
ell 1096, elapsed: 0.0004210472106933594
ell 1095, elapsed: 0.0003628730773925781
ell 1094, elapsed: 0.0003650188446044922
ell 1093, elapsed: 0.000370025634765625
ell 1092, elapsed: 0.00046896934509277344
ell 1091, elapsed: 0.0004611015319824219
ell 1090, elapsed: 0.0004360675811767578
ell 1089, elapsed: 0.00034809112548828125
ell 1088, elapsed: 0.00032901763916015625
ell 1087, elapsed: 0.00031304359436035156
ell 1086, elapsed: 0.0002980232238769531
ell 1085, elapsed: 0.0002999305725097656
ell 1084, elapsed: 0.0003199577331542969
ell 1083, elapsed: 0.00043702125549316406
ell 1082, elapsed: 0.00047278404235839844
ell 1081, elapsed: 0.00033783912658691406
ell 1080, elapsed: 0.0003199577331542969
ell 1079, elapsed: 0.0002949237823486328
ell 1078, elapsed: 0.0002961158752441406
ell 1077, elapsed: 0.00030994415283203125
ell 1076, elapsed: 0.0003039836883544922
ell 1075, elapsed: 0.0003108978271484375
ell 1074, elapsed: 0.0003199577331542969
ell 1073, elapsed: 0.0003190040588378906
ell 1072, elapsed: 0.0003151893615722656
ell 1071, elapsed: 0.0003039836883544922
ell 1070, elapsed: 0.0003108978271484375
ell 1069, elapsed: 0.00031495094299316406
ell 1068, elapsed: 0.0003018379211425781
ell 1067, elapsed: 0.0002989768981933594
ell 1066, elapsed: 0.0003070831298828125
ell 1065, elapsed: 0.000308990478515625
ell 1064, elapsed: 0.0003380775451660156
ell 1063, elapsed: 0.0004169940948486328
ell 1062, elapsed: 0.0005741119384765625
ell 1061, elapsed: 0.0004100799560546875
ell 1060, elapsed: 0.00034689903259277344
ell 1059, elapsed: 0.0003330707550048828
ell 1058, elapsed: 0.00030303001403808594
ell 1057, elapsed: 0.0003058910369873047
ell 1056, elapsed: 0.0003139972686767578
ell 1055, elapsed: 0.0003230571746826172
ell 1054, elapsed: 0.00039696693420410156
ell 1053, elapsed: 0.0003559589385986328
ell 1052, elapsed: 0.000492095947265625
ell 1051, elapsed: 0.0005309581756591797
ell 1050, elapsed: 0.0005180835723876953
ell 1049, elapsed: 0.0005290508270263672
ell 1048, elapsed: 0.0005211830139160156
ell 1047, elapsed: 0.0004611015319824219
ell 1046, elapsed: 0.00047516822814941406
ell 1045, elapsed: 0.0005478858947753906
ell 1044, elapsed: 0.0005271434783935547
ell 1043, elapsed: 0.0005209445953369141
ell 1042, elapsed: 0.0005211830139160156
ell 1041, elapsed: 0.0005319118499755859
ell 1040, elapsed: 0.0005178451538085938
ell 1039, elapsed: 0.0005300045013427734
ell 1038, elapsed: 0.0005540847778320312
ell 1037, elapsed: 0.0007228851318359375
ell 1036, elapsed: 0.0007212162017822266
ell 1035, elapsed: 0.0007040500640869141
ell 1034, elapsed: 0.0004820823669433594
ell 1033, elapsed: 0.00074005126953125
ell 1032, elapsed: 0.0007271766662597656
ell 1031, elapsed: 0.0007190704345703125
ell 1030, elapsed: 0.0007450580596923828
ell 1029, elapsed: 0.0005960464477539062
ell 1028, elapsed: 0.0004630088806152344
ell 1027, elapsed: 0.0008809566497802734
ell 1026, elapsed: 0.00047206878662109375
ell 1025, elapsed: 0.00045800209045410156
ell 1024, elapsed: 0.00046896934509277344
ell 1023, elapsed: 0.0004999637603759766
ell 1022, elapsed: 0.0005280971527099609
ell 1021, elapsed: 0.0005280971527099609
ell 1020, elapsed: 0.0005359649658203125
ell 1019, elapsed: 0.0005400180816650391
ell 1018, elapsed: 0.0005209445953369141
ell 1017, elapsed: 0.0005240440368652344
ell 1016, elapsed: 0.0006330013275146484
ell 1015, elapsed: 0.0006768703460693359
ell 1014, elapsed: 0.0004608631134033203
ell 1013, elapsed: 0.00044918060302734375
ell 1012, elapsed: 0.00043511390686035156
ell 1011, elapsed: 0.0006570816040039062
ell 1010, elapsed: 0.0005691051483154297
ell 1009, elapsed: 0.000370025634765625
ell 1008, elapsed: 0.00036597251892089844
ell 1007, elapsed: 0.00037097930908203125
ell 1006, elapsed: 0.0003681182861328125
ell 1005, elapsed: 0.0003650188446044922
ell 1004, elapsed: 0.0003681182861328125
ell 1003, elapsed: 0.0003650188446044922
ell 1002, elapsed: 0.0003688335418701172
ell 1001, elapsed: 0.0003638267517089844
ell 1000, elapsed: 0.0003650188446044922
ell 999, elapsed: 0.0003731250762939453
ell 998, elapsed: 0.0004630088806152344
ell 997, elapsed: 0.00055694580078125
ell 996, elapsed: 0.0007259845733642578
ell 995, elapsed: 0.0008001327514648438
ell 994, elapsed: 0.00046706199645996094
ell 993, elapsed: 0.00047206878662109375
ell 992, elapsed: 0.0004870891571044922
ell 991, elapsed: 0.0004611015319824219
ell 990, elapsed: 0.0004639625549316406
ell 989, elapsed: 0.00047087669372558594
ell 988, elapsed: 0.00046896934509277344
ell 987, elapsed: 0.00048613548278808594
ell 986, elapsed: 0.0004620552062988281
ell 985, elapsed: 0.0004680156707763672
ell 984, elapsed: 0.0004911422729492188
ell 983, elapsed: 0.00057220458984375
ell 982, elapsed: 0.0007507801055908203
ell 981, elapsed: 0.0007939338684082031
ell 980, elapsed: 0.0005238056182861328
ell 979, elapsed: 0.0005271434783935547
ell 978, elapsed: 0.0005290508270263672
ell 977, elapsed: 0.0005249977111816406
ell 976, elapsed: 0.0005228519439697266
ell 975, elapsed: 0.0005209445953369141
ell 974, elapsed: 0.0005211830139160156
ell 973, elapsed: 0.0005211830139160156
ell 972, elapsed: 0.0005230903625488281
ell 971, elapsed: 0.0006058216094970703
ell 970, elapsed: 0.000720977783203125
ell 969, elapsed: 0.0007541179656982422
ell 968, elapsed: 0.0007290840148925781
ell 967, elapsed: 0.0007340908050537109
ell 966, elapsed: 0.0005381107330322266
ell 965, elapsed: 0.0005259513854980469
ell 964, elapsed: 0.0005450248718261719
ell 963, elapsed: 0.0005209445953369141
ell 962, elapsed: 0.0005269050598144531
ell 961, elapsed: 0.0005199909210205078
ell 960, elapsed: 0.0005209445953369141
ell 959, elapsed: 0.0006809234619140625
ell 958, elapsed: 0.0005228519439697266
ell 957, elapsed: 0.0004210472106933594
ell 956, elapsed: 0.00041794776916503906
ell 955, elapsed: 0.00041794776916503906
ell 954, elapsed: 0.0004200935363769531
ell 953, elapsed: 0.00041604042053222656
ell 952, elapsed: 0.0003910064697265625
ell 951, elapsed: 0.0004241466522216797
ell 950, elapsed: 0.0006220340728759766
ell 949, elapsed: 0.0004608631134033203
ell 948, elapsed: 0.0003719329833984375
ell 947, elapsed: 0.00037598609924316406
ell 946, elapsed: 0.0003731250762939453
ell 945, elapsed: 0.0003750324249267578
ell 944, elapsed: 0.0003669261932373047
ell 943, elapsed: 0.00036597251892089844
ell 942, elapsed: 0.0003871917724609375
ell 941, elapsed: 0.00036716461181640625
ell 940, elapsed: 0.0003769397735595703
ell 939, elapsed: 0.00036787986755371094
ell 938, elapsed: 0.0003688335418701172
ell 937, elapsed: 0.00037097930908203125
ell 936, elapsed: 0.00037097930908203125
ell 935, elapsed: 0.00037288665771484375
ell 934, elapsed: 0.00036978721618652344
ell 933, elapsed: 0.00036597251892089844
ell 932, elapsed: 0.00035691261291503906
ell 931, elapsed: 0.0002999305725097656
ell 930, elapsed: 0.00031304359436035156
ell 929, elapsed: 0.0003190040588378906
ell 928, elapsed: 0.0003070831298828125
ell 927, elapsed: 0.0003170967102050781
ell 926, elapsed: 0.0002999305725097656
ell 925, elapsed: 0.00031685829162597656
ell 924, elapsed: 0.0002961158752441406
ell 923, elapsed: 0.0002970695495605469
ell 922, elapsed: 0.0002989768981933594
ell 921, elapsed: 0.0003190040588378906
ell 920, elapsed: 0.00030303001403808594
ell 919, elapsed: 0.00030493736267089844
ell 918, elapsed: 0.0003170967102050781
ell 917, elapsed: 0.0003180503845214844
ell 916, elapsed: 0.0003039836883544922
ell 915, elapsed: 0.0003108978271484375
ell 914, elapsed: 0.0003020763397216797
ell 913, elapsed: 0.00030303001403808594
ell 912, elapsed: 0.00035190582275390625
ell 911, elapsed: 0.0003070831298828125
ell 910, elapsed: 0.0003159046173095703
ell 909, elapsed: 0.00030684471130371094
ell 908, elapsed: 0.0003008842468261719
ell 907, elapsed: 0.00030303001403808594
ell 906, elapsed: 0.0003001689910888672
ell 905, elapsed: 0.00030303001403808594
ell 904, elapsed: 0.0003459453582763672
ell 903, elapsed: 0.000308990478515625
ell 902, elapsed: 0.0002989768981933594
ell 901, elapsed: 0.00030517578125
ell 900, elapsed: 0.00032782554626464844
ell 899, elapsed: 0.00030612945556640625
ell 898, elapsed: 0.0003268718719482422
ell 897, elapsed: 0.00030803680419921875
ell 896, elapsed: 0.0003190040588378906
ell 895, elapsed: 0.0003190040588378906
ell 894, elapsed: 0.00030612945556640625
ell 893, elapsed: 0.00030994415283203125
ell 892, elapsed: 0.00030612945556640625
ell 891, elapsed: 0.00030493736267089844
ell 890, elapsed: 0.0003108978271484375
ell 889, elapsed: 0.00031185150146484375
ell 888, elapsed: 0.00030994415283203125
ell 887, elapsed: 0.0003180503845214844
ell 886, elapsed: 0.0003039836883544922
ell 885, elapsed: 0.00030612945556640625
ell 884, elapsed: 0.00030303001403808594
ell 883, elapsed: 0.0003018379211425781
ell 882, elapsed: 0.0003209114074707031
ell 881, elapsed: 0.0003139972686767578
ell 880, elapsed: 0.0003108978271484375
ell 879, elapsed: 0.00030994415283203125
ell 878, elapsed: 0.0003151893615722656
ell 877, elapsed: 0.0003039836883544922
ell 876, elapsed: 0.0003180503845214844
ell 875, elapsed: 0.0003390312194824219
ell 874, elapsed: 0.0003218650817871094
ell 873, elapsed: 0.0004620552062988281
ell 872, elapsed: 0.0004601478576660156
ell 871, elapsed: 0.00034999847412109375
ell 870, elapsed: 0.00030803680419921875
ell 869, elapsed: 0.00030493736267089844
ell 868, elapsed: 0.0003120899200439453
ell 867, elapsed: 0.00032401084899902344
ell 866, elapsed: 0.0002961158752441406
ell 865, elapsed: 0.0003311634063720703
ell 864, elapsed: 0.0003008842468261719
ell 863, elapsed: 0.0003249645233154297
ell 862, elapsed: 0.00030612945556640625
ell 861, elapsed: 0.00031304359436035156
ell 860, elapsed: 0.00030612945556640625
ell 859, elapsed: 0.0003120899200439453
ell 858, elapsed: 0.00031113624572753906
ell 857, elapsed: 0.0003020763397216797
ell 856, elapsed: 0.00031113624572753906
ell 855, elapsed: 0.0003120899200439453
ell 854, elapsed: 0.0003161430358886719
ell 853, elapsed: 0.00046896934509277344
ell 852, elapsed: 0.0004169940948486328
ell 851, elapsed: 0.0004239082336425781
ell 850, elapsed: 0.0004200935363769531
ell 849, elapsed: 0.0006048679351806641
ell 848, elapsed: 0.0006899833679199219
ell 847, elapsed: 0.0007469654083251953
ell 846, elapsed: 0.0007281303405761719
ell 845, elapsed: 0.0005390644073486328
ell 844, elapsed: 0.00045299530029296875
ell 843, elapsed: 0.0005331039428710938
ell 842, elapsed: 0.0005319118499755859
ell 841, elapsed: 0.0005362033843994141
ell 840, elapsed: 0.0005500316619873047
ell 839, elapsed: 0.0005288124084472656
ell 838, elapsed: 0.0005350112915039062
ell 837, elapsed: 0.0005347728729248047
ell 836, elapsed: 0.0005300045013427734
ell 835, elapsed: 0.0005309581756591797
ell 834, elapsed: 0.0005350112915039062
ell 833, elapsed: 0.0005478858947753906
ell 832, elapsed: 0.0005340576171875
ell 831, elapsed: 0.0005350112915039062
ell 830, elapsed: 0.0005078315734863281
ell 829, elapsed: 0.0005171298980712891
ell 828, elapsed: 0.0005261898040771484
ell 827, elapsed: 0.0005879402160644531
ell 826, elapsed: 0.0005359649658203125
ell 825, elapsed: 0.0005190372467041016
ell 824, elapsed: 0.0005209445953369141
ell 823, elapsed: 0.0005209445953369141
ell 822, elapsed: 0.0005199909210205078
ell 821, elapsed: 0.0005211830139160156
ell 820, elapsed: 0.0005888938903808594
ell 819, elapsed: 0.0005271434783935547
ell 818, elapsed: 0.0005249977111816406
ell 817, elapsed: 0.0005152225494384766
ell 816, elapsed: 0.0005240440368652344
ell 815, elapsed: 0.0005168914794921875
ell 814, elapsed: 0.0005209445953369141
ell 813, elapsed: 0.0005950927734375
ell 812, elapsed: 0.0005199909210205078
ell 811, elapsed: 0.0005209445953369141
ell 810, elapsed: 0.0005190372467041016
ell 809, elapsed: 0.0005209445953369141
ell 808, elapsed: 0.0005240440368652344
ell 807, elapsed: 0.0005180835723876953
ell 806, elapsed: 0.0006048679351806641
ell 805, elapsed: 0.0005199909210205078
ell 804, elapsed: 0.0005199909210205078
ell 803, elapsed: 0.0005249977111816406
ell 802, elapsed: 0.0005190372467041016
ell 801, elapsed: 0.0005400180816650391
ell 800, elapsed: 0.0005180835723876953
ell 799, elapsed: 0.0005331039428710938
ell 798, elapsed: 0.0005819797515869141
ell 797, elapsed: 0.0006530284881591797
ell 796, elapsed: 0.0005319118499755859
ell 795, elapsed: 0.0005178451538085938
ell 794, elapsed: 0.0005168914794921875
ell 793, elapsed: 0.0005228519439697266
ell 792, elapsed: 0.0005600452423095703
ell 791, elapsed: 0.0005300045013427734
ell 790, elapsed: 0.0005159378051757812
ell 789, elapsed: 0.0005238056182861328
ell 788, elapsed: 0.0005168914794921875
ell 787, elapsed: 0.0005199909210205078
ell 786, elapsed: 0.0005240440368652344
ell 785, elapsed: 0.0007238388061523438
ell 784, elapsed: 0.0004978179931640625
ell 783, elapsed: 0.0006470680236816406
ell 782, elapsed: 0.0007388591766357422
ell 781, elapsed: 0.0006539821624755859
ell 780, elapsed: 0.0005369186401367188
ell 779, elapsed: 0.0005440711975097656
ell 778, elapsed: 0.0005269050598144531
ell 777, elapsed: 0.0005230903625488281
ell 776, elapsed: 0.0005249977111816406
ell 775, elapsed: 0.0005259513854980469
ell 774, elapsed: 0.0005269050598144531
ell 773, elapsed: 0.0006239414215087891
ell 772, elapsed: 0.0007181167602539062
ell 771, elapsed: 0.0006968975067138672
ell 770, elapsed: 0.0007598400115966797
ell 769, elapsed: 0.0005209445953369141
ell 768, elapsed: 0.0005228519439697266
ell 767, elapsed: 0.0005440711975097656
ell 766, elapsed: 0.0005090236663818359
ell 765, elapsed: 0.0005340576171875
ell 764, elapsed: 0.0005300045013427734
ell 763, elapsed: 0.0005209445953369141
ell 762, elapsed: 0.0006699562072753906
ell 761, elapsed: 0.0007519721984863281
ell 760, elapsed: 0.0007431507110595703
ell 759, elapsed: 0.000743865966796875
ell 758, elapsed: 0.0007259845733642578
ell 757, elapsed: 0.0007200241088867188
ell 756, elapsed: 0.0005609989166259766
ell 755, elapsed: 0.0004589557647705078
ell 754, elapsed: 0.00045299530029296875
ell 753, elapsed: 0.00044083595275878906
ell 752, elapsed: 0.0004360675811767578
ell 751, elapsed: 0.0006208419799804688
ell 750, elapsed: 0.000518798828125
ell 749, elapsed: 0.00047516822814941406
ell 748, elapsed: 0.00047898292541503906
ell 747, elapsed: 0.0004658699035644531
ell 746, elapsed: 0.0004940032958984375
ell 745, elapsed: 0.0004718303680419922
ell 744, elapsed: 0.00045490264892578125
ell 743, elapsed: 0.000492095947265625
ell 742, elapsed: 0.00047397613525390625
ell 741, elapsed: 0.00047278404235839844
ell 740, elapsed: 0.00044798851013183594
ell 739, elapsed: 0.00044798851013183594
ell 738, elapsed: 0.0004630088806152344
ell 737, elapsed: 0.0003612041473388672
ell 736, elapsed: 0.00034308433532714844
ell 735, elapsed: 0.0003428459167480469
ell 734, elapsed: 0.00039696693420410156
ell 733, elapsed: 0.00041413307189941406
ell 732, elapsed: 0.0003650188446044922
ell 731, elapsed: 0.0003600120544433594
ell 730, elapsed: 0.00034499168395996094
ell 729, elapsed: 0.0003218650817871094
ell 728, elapsed: 0.0002970695495605469
ell 727, elapsed: 0.0003299713134765625
ell 726, elapsed: 0.0003070831298828125
ell 725, elapsed: 0.00030803680419921875
ell 724, elapsed: 0.0003070831298828125
ell 723, elapsed: 0.000331878662109375
ell 722, elapsed: 0.0003058910369873047
ell 721, elapsed: 0.00031304359436035156
ell 720, elapsed: 0.00030517578125
ell 719, elapsed: 0.0003070831298828125
ell 718, elapsed: 0.00029587745666503906
ell 717, elapsed: 0.00030112266540527344
ell 716, elapsed: 0.0002949237823486328
ell 715, elapsed: 0.0003018379211425781
ell 714, elapsed: 0.00030994415283203125
ell 713, elapsed: 0.0003070831298828125
ell 712, elapsed: 0.00030994415283203125
ell 711, elapsed: 0.00035309791564941406
ell 710, elapsed: 0.00039696693420410156
ell 709, elapsed: 0.0003299713134765625
ell 708, elapsed: 0.00030684471130371094
ell 707, elapsed: 0.0002999305725097656
ell 706, elapsed: 0.0003361701965332031
ell 705, elapsed: 0.00030303001403808594
ell 704, elapsed: 0.0002970695495605469
ell 703, elapsed: 0.00029397010803222656
ell 702, elapsed: 0.0003058910369873047
ell 701, elapsed: 0.0002961158752441406
ell 700, elapsed: 0.000331878662109375
ell 699, elapsed: 0.00030112266540527344
ell 698, elapsed: 0.00042700767517089844
ell 697, elapsed: 0.0003509521484375
ell 696, elapsed: 0.0004131793975830078
ell 695, elapsed: 0.0004439353942871094
ell 694, elapsed: 0.00038313865661621094
ell 693, elapsed: 0.0003859996795654297
ell 692, elapsed: 0.000392913818359375
ell 691, elapsed: 0.0004069805145263672
ell 690, elapsed: 0.00031495094299316406
ell 689, elapsed: 0.00030303001403808594
ell 688, elapsed: 0.00030303001403808594
ell 687, elapsed: 0.00030517578125
ell 686, elapsed: 0.00031280517578125
ell 685, elapsed: 0.00030922889709472656
ell 684, elapsed: 0.00030303001403808594
ell 683, elapsed: 0.000308990478515625
ell 682, elapsed: 0.00030517578125
ell 681, elapsed: 0.000308990478515625
ell 680, elapsed: 0.00031185150146484375
ell 679, elapsed: 0.0003161430358886719
ell 678, elapsed: 0.00030994415283203125
ell 677, elapsed: 0.00034689903259277344
ell 676, elapsed: 0.0003490447998046875
ell 675, elapsed: 0.0003559589385986328
ell 674, elapsed: 0.00030303001403808594
ell 673, elapsed: 0.00032210350036621094
ell 672, elapsed: 0.00030803680419921875
ell 671, elapsed: 0.00032711029052734375
ell 670, elapsed: 0.00032210350036621094
ell 669, elapsed: 0.0003008842468261719
ell 668, elapsed: 0.0003218650817871094
ell 667, elapsed: 0.0002980232238769531
ell 666, elapsed: 0.0002989768981933594
ell 665, elapsed: 0.00030803680419921875
ell 664, elapsed: 0.0002980232238769531
ell 663, elapsed: 0.0003070831298828125
ell 662, elapsed: 0.0002980232238769531
ell 661, elapsed: 0.0003070831298828125
ell 660, elapsed: 0.0002968311309814453
ell 659, elapsed: 0.0002989768981933594
ell 658, elapsed: 0.0003018379211425781
ell 657, elapsed: 0.0003001689910888672
ell 656, elapsed: 0.00041413307189941406
ell 655, elapsed: 0.0004417896270751953
ell 654, elapsed: 0.0004470348358154297
ell 653, elapsed: 0.0004448890686035156
ell 652, elapsed: 0.0004448890686035156
ell 651, elapsed: 0.00045299530029296875
ell 650, elapsed: 0.0004410743713378906
ell 649, elapsed: 0.0004420280456542969
ell 648, elapsed: 0.0004668235778808594
ell 647, elapsed: 0.00044918060302734375
ell 646, elapsed: 0.0004420280456542969
ell 645, elapsed: 0.000431060791015625
ell 644, elapsed: 0.0003809928894042969
ell 643, elapsed: 0.0004119873046875
ell 642, elapsed: 0.00038886070251464844
ell 641, elapsed: 0.0003941059112548828
ell 640, elapsed: 0.0003879070281982422
ell 639, elapsed: 0.00043702125549316406
ell 638, elapsed: 0.0004458427429199219
ell 637, elapsed: 0.0004360675811767578
ell 636, elapsed: 0.00044608116149902344
ell 635, elapsed: 0.00043702125549316406
ell 634, elapsed: 0.0004398822784423828
ell 633, elapsed: 0.00044798851013183594
ell 632, elapsed: 0.0004410743713378906
ell 631, elapsed: 0.0004611015319824219
ell 630, elapsed: 0.0004410743713378906
ell 629, elapsed: 0.00044083595275878906
ell 628, elapsed: 0.0004410743713378906
ell 627, elapsed: 0.00043892860412597656
ell 626, elapsed: 0.0004448890686035156
ell 625, elapsed: 0.0004379749298095703
ell 624, elapsed: 0.0004410743713378906
ell 623, elapsed: 0.0004520416259765625
ell 622, elapsed: 0.0004429817199707031
ell 621, elapsed: 0.0004420280456542969
ell 620, elapsed: 0.0004458427429199219
ell 619, elapsed: 0.0004401206970214844
ell 618, elapsed: 0.00041604042053222656
ell 617, elapsed: 0.0003719329833984375
ell 616, elapsed: 0.00034308433532714844
ell 615, elapsed: 0.00031304359436035156
ell 614, elapsed: 0.00042891502380371094
ell 613, elapsed: 0.0003352165222167969
ell 612, elapsed: 0.00032806396484375
ell 611, elapsed: 0.0003139972686767578
ell 610, elapsed: 0.00029587745666503906
ell 609, elapsed: 0.00035500526428222656
ell 608, elapsed: 0.00043702125549316406
ell 607, elapsed: 0.0003590583801269531
ell 606, elapsed: 0.0002970695495605469
ell 605, elapsed: 0.0002968311309814453
ell 604, elapsed: 0.00030994415283203125
ell 603, elapsed: 0.0004019737243652344
ell 602, elapsed: 0.0003070831298828125
ell 601, elapsed: 0.00030994415283203125
ell 600, elapsed: 0.0002989768981933594
ell 599, elapsed: 0.00030994415283203125
ell 598, elapsed: 0.0002949237823486328
ell 597, elapsed: 0.00030112266540527344
ell 596, elapsed: 0.0002930164337158203
ell 595, elapsed: 0.00029587745666503906
ell 594, elapsed: 0.0002989768981933594
ell 593, elapsed: 0.0002949237823486328
ell 592, elapsed: 0.0003600120544433594
ell 591, elapsed: 0.0005359649658203125
ell 590, elapsed: 0.0005180835723876953
ell 589, elapsed: 0.0005259513854980469
ell 588, elapsed: 0.0005171298980712891
ell 587, elapsed: 0.0005261898040771484
ell 586, elapsed: 0.0005168914794921875
ell 585, elapsed: 0.0005381107330322266
ell 584, elapsed: 0.0005300045013427734
ell 583, elapsed: 0.0005199909210205078
ell 582, elapsed: 0.0005249977111816406
ell 581, elapsed: 0.0005190372467041016
ell 580, elapsed: 0.0005209445953369141
ell 579, elapsed: 0.0005290508270263672
ell 578, elapsed: 0.0005328655242919922
ell 577, elapsed: 0.0004169940948486328
ell 576, elapsed: 0.0004191398620605469
ell 575, elapsed: 0.000415802001953125
ell 574, elapsed: 0.0004210472106933594
ell 573, elapsed: 0.00041294097900390625
ell 572, elapsed: 0.00041794776916503906
ell 571, elapsed: 0.00041103363037109375
ell 570, elapsed: 0.0005259513854980469
ell 569, elapsed: 0.0006308555603027344
ell 568, elapsed: 0.0006158351898193359
ell 567, elapsed: 0.0006139278411865234
ell 566, elapsed: 0.0004131793975830078
ell 565, elapsed: 0.00041484832763671875
ell 564, elapsed: 0.00041294097900390625
ell 563, elapsed: 0.00041103363037109375
ell 562, elapsed: 0.0005619525909423828
ell 561, elapsed: 0.0004978179931640625
ell 560, elapsed: 0.00037097930908203125
ell 559, elapsed: 0.00036406517028808594
ell 558, elapsed: 0.00036787986755371094
ell 557, elapsed: 0.000370025634765625
ell 556, elapsed: 0.0003669261932373047
ell 555, elapsed: 0.00036907196044921875
ell 554, elapsed: 0.0003669261932373047
ell 553, elapsed: 0.0004000663757324219
ell 552, elapsed: 0.0004439353942871094
ell 551, elapsed: 0.0004639625549316406
ell 550, elapsed: 0.0004639625549316406
ell 549, elapsed: 0.00045418739318847656
ell 548, elapsed: 0.0004699230194091797
ell 547, elapsed: 0.00047087669372558594
ell 546, elapsed: 0.0004630088806152344
ell 545, elapsed: 0.0004870891571044922
ell 544, elapsed: 0.0004630088806152344
ell 543, elapsed: 0.0004639625549316406
ell 542, elapsed: 0.0004520416259765625
ell 541, elapsed: 0.00045800209045410156
ell 540, elapsed: 0.00045490264892578125
ell 539, elapsed: 0.00045299530029296875
ell 538, elapsed: 0.0004520416259765625
ell 537, elapsed: 0.00047898292541503906
ell 536, elapsed: 0.00044798851013183594
ell 535, elapsed: 0.00045800209045410156
ell 534, elapsed: 0.0004420280456542969
ell 533, elapsed: 0.00045490264892578125
ell 532, elapsed: 0.0004570484161376953
ell 531, elapsed: 0.00045418739318847656
ell 530, elapsed: 0.00045800209045410156
ell 529, elapsed: 0.0004589557647705078
ell 528, elapsed: 0.00047516822814941406
ell 527, elapsed: 0.0004508495330810547
ell 526, elapsed: 0.00044989585876464844
ell 525, elapsed: 0.0004489421844482422
ell 524, elapsed: 0.0004470348358154297
ell 523, elapsed: 0.00045180320739746094
ell 522, elapsed: 0.0004520416259765625
ell 521, elapsed: 0.00045108795166015625
ell 520, elapsed: 0.00045490264892578125
ell 519, elapsed: 0.00044798851013183594
ell 518, elapsed: 0.00045800209045410156
ell 517, elapsed: 0.00044798851013183594
ell 516, elapsed: 0.0004420280456542969
ell 515, elapsed: 0.00044608116149902344
ell 514, elapsed: 0.00043582916259765625
ell 513, elapsed: 0.0004620552062988281
ell 512, elapsed: 0.0004470348358154297
ell 511, elapsed: 0.0004489421844482422
ell 510, elapsed: 0.0004558563232421875
ell 509, elapsed: 0.00043702125549316406
ell 508, elapsed: 0.0004589557647705078
ell 507, elapsed: 0.0004658699035644531
ell 506, elapsed: 0.00044798851013183594
ell 505, elapsed: 0.00045990943908691406
ell 504, elapsed: 0.0004520416259765625
ell 503, elapsed: 0.00045490264892578125
ell 502, elapsed: 0.000453948974609375
ell 501, elapsed: 0.00045490264892578125
ell 500, elapsed: 0.0004329681396484375
ell 499, elapsed: 0.0004420280456542969
ell 498, elapsed: 0.0004570484161376953
ell 497, elapsed: 0.0004589557647705078
ell 496, elapsed: 0.000431060791015625
ell 495, elapsed: 0.00044798851013183594
ell 494, elapsed: 0.00044918060302734375
ell 493, elapsed: 0.00044798851013183594
ell 492, elapsed: 0.0004458427429199219
ell 491, elapsed: 0.0004520416259765625
ell 490, elapsed: 0.0004520416259765625
ell 489, elapsed: 0.0004467964172363281
ell 488, elapsed: 0.0004239082336425781
ell 487, elapsed: 0.00045108795166015625
ell 486, elapsed: 0.00045680999755859375
ell 485, elapsed: 0.0004329681396484375
ell 484, elapsed: 0.0004172325134277344
ell 483, elapsed: 0.0004508495330810547
ell 482, elapsed: 0.00045013427734375
ell 481, elapsed: 0.0004558563232421875
ell 480, elapsed: 0.0004639625549316406
ell 479, elapsed: 0.0004470348358154297
ell 478, elapsed: 0.00042510032653808594
ell 477, elapsed: 0.0004570484161376953
ell 476, elapsed: 0.0003719329833984375
ell 475, elapsed: 0.0003139972686767578
ell 474, elapsed: 0.0003008842468261719
ell 473, elapsed: 0.0003058910369873047
ell 472, elapsed: 0.0002949237823486328
ell 471, elapsed: 0.00031495094299316406
ell 470, elapsed: 0.0003039836883544922
ell 469, elapsed: 0.00030303001403808594
ell 468, elapsed: 0.0002989768981933594
ell 467, elapsed: 0.0002961158752441406
ell 466, elapsed: 0.0002968311309814453
ell 465, elapsed: 0.0003039836883544922
ell 464, elapsed: 0.0003001689910888672
ell 463, elapsed: 0.00030303001403808594
ell 462, elapsed: 0.0002999305725097656
ell 461, elapsed: 0.00031113624572753906
ell 460, elapsed: 0.00030112266540527344
ell 459, elapsed: 0.0003159046173095703
ell 458, elapsed: 0.00030112266540527344
ell 457, elapsed: 0.0002961158752441406
ell 456, elapsed: 0.0002980232238769531
ell 455, elapsed: 0.00030994415283203125
ell 454, elapsed: 0.0003039836883544922
ell 453, elapsed: 0.000308990478515625
ell 452, elapsed: 0.0003070831298828125
ell 451, elapsed: 0.0003001689910888672
ell 450, elapsed: 0.0003159046173095703
ell 449, elapsed: 0.00030493736267089844
ell 448, elapsed: 0.00034499168395996094
ell 447, elapsed: 0.0003571510314941406
ell 446, elapsed: 0.0003390312194824219
ell 445, elapsed: 0.0003020763397216797
ell 444, elapsed: 0.00030493736267089844
ell 443, elapsed: 0.0003509521484375
ell 442, elapsed: 0.00034618377685546875
ell 441, elapsed: 0.00034999847412109375
ell 440, elapsed: 0.00033402442932128906
ell 439, elapsed: 0.00034999847412109375
ell 438, elapsed: 0.00033402442932128906
ell 437, elapsed: 0.0003330707550048828
ell 436, elapsed: 0.00040912628173828125
ell 435, elapsed: 0.00041484832763671875
ell 434, elapsed: 0.0004220008850097656
ell 433, elapsed: 0.00041604042053222656
ell 432, elapsed: 0.0004220008850097656
ell 431, elapsed: 0.00041413307189941406
ell 430, elapsed: 0.0004138946533203125
ell 429, elapsed: 0.00041794776916503906
ell 428, elapsed: 0.00041604042053222656
ell 427, elapsed: 0.000453948974609375
ell 426, elapsed: 0.0004200935363769531
ell 425, elapsed: 0.00041794776916503906
ell 424, elapsed: 0.0004229545593261719
ell 423, elapsed: 0.0004208087921142578
ell 422, elapsed: 0.0004220008850097656
ell 421, elapsed: 0.00041604042053222656
ell 420, elapsed: 0.0004220008850097656
ell 419, elapsed: 0.000453948974609375
ell 418, elapsed: 0.00042700767517089844
ell 417, elapsed: 0.0004260540008544922
ell 416, elapsed: 0.0004150867462158203
ell 415, elapsed: 0.0004220008850097656
ell 414, elapsed: 0.0004150867462158203
ell 413, elapsed: 0.0004200935363769531
ell 412, elapsed: 0.0005090236663818359
ell 411, elapsed: 0.0005421638488769531
ell 410, elapsed: 0.0005300045013427734
ell 409, elapsed: 0.0005221366882324219
ell 408, elapsed: 0.0005240440368652344
ell 407, elapsed: 0.0005350112915039062
ell 406, elapsed: 0.0005199909210205078
ell 405, elapsed: 0.0006699562072753906
ell 404, elapsed: 0.0007650852203369141
ell 403, elapsed: 0.0006060600280761719
ell 402, elapsed: 0.0004839897155761719
ell 401, elapsed: 0.00047397613525390625
ell 400, elapsed: 0.0004680156707763672
ell 399, elapsed: 0.00045418739318847656
ell 398, elapsed: 0.0004439353942871094
ell 397, elapsed: 0.0004620552062988281
ell 396, elapsed: 0.00044989585876464844
ell 395, elapsed: 0.0003979206085205078
ell 394, elapsed: 0.0004551410675048828
ell 393, elapsed: 0.00044798851013183594
ell 392, elapsed: 0.0004780292510986328
ell 391, elapsed: 0.00045490264892578125
ell 390, elapsed: 0.0004520416259765625
ell 389, elapsed: 0.0004889965057373047
ell 388, elapsed: 0.0004630088806152344
ell 387, elapsed: 0.00044989585876464844
ell 386, elapsed: 0.0004718303680419922
ell 385, elapsed: 0.0004630088806152344
ell 384, elapsed: 0.0004451274871826172
ell 383, elapsed: 0.0004398822784423828
ell 382, elapsed: 0.0004470348358154297
ell 381, elapsed: 0.00047206878662109375
ell 380, elapsed: 0.0004258155822753906
ell 379, elapsed: 0.0004138946533203125
ell 378, elapsed: 0.0004208087921142578
ell 377, elapsed: 0.0004150867462158203
ell 376, elapsed: 0.00041794776916503906
ell 375, elapsed: 0.0004239082336425781
ell 374, elapsed: 0.0004181861877441406
ell 373, elapsed: 0.0004439353942871094
ell 372, elapsed: 0.0004258155822753906
ell 371, elapsed: 0.00041604042053222656
ell 370, elapsed: 0.0004208087921142578
ell 369, elapsed: 0.000415802001953125
ell 368, elapsed: 0.0004191398620605469
ell 367, elapsed: 0.0004150867462158203
ell 366, elapsed: 0.0006830692291259766
ell 365, elapsed: 0.0004448890686035156
ell 364, elapsed: 0.0006680488586425781
ell 363, elapsed: 0.00047016143798828125
ell 362, elapsed: 0.00036597251892089844
ell 361, elapsed: 0.00037097930908203125
ell 360, elapsed: 0.00036716461181640625
ell 359, elapsed: 0.0003650188446044922
ell 358, elapsed: 0.0003688335418701172
ell 357, elapsed: 0.0003650188446044922
ell 356, elapsed: 0.00038814544677734375
ell 355, elapsed: 0.00037407875061035156
ell 354, elapsed: 0.00036978721618652344
ell 353, elapsed: 0.00036716461181640625
ell 352, elapsed: 0.00036597251892089844
ell 351, elapsed: 0.0003750324249267578
ell 350, elapsed: 0.00036597251892089844
ell 349, elapsed: 0.00037288665771484375
ell 348, elapsed: 0.00036787986755371094
ell 347, elapsed: 0.000370025634765625
ell 346, elapsed: 0.00045990943908691406
ell 345, elapsed: 0.00042819976806640625
ell 344, elapsed: 0.0003819465637207031
ell 343, elapsed: 0.0003650188446044922
ell 342, elapsed: 0.0003628730773925781
ell 341, elapsed: 0.0003790855407714844
ell 340, elapsed: 0.00036978721618652344
ell 339, elapsed: 0.0003719329833984375
ell 338, elapsed: 0.00036787986755371094
ell 337, elapsed: 0.0004341602325439453
ell 336, elapsed: 0.0004169940948486328
ell 335, elapsed: 0.0003390312194824219
ell 334, elapsed: 0.0003371238708496094
ell 333, elapsed: 0.0003819465637207031
ell 332, elapsed: 0.00037097930908203125
ell 331, elapsed: 0.00033402442932128906
ell 330, elapsed: 0.0003139972686767578
ell 329, elapsed: 0.0003180503845214844
ell 328, elapsed: 0.0003161430358886719
ell 327, elapsed: 0.00037384033203125
ell 326, elapsed: 0.00045013427734375
ell 325, elapsed: 0.00047397613525390625
ell 324, elapsed: 0.00047016143798828125
ell 323, elapsed: 0.0004749298095703125
ell 322, elapsed: 0.00046896934509277344
ell 321, elapsed: 0.0004611015319824219
ell 320, elapsed: 0.0004661083221435547
ell 319, elapsed: 0.0004899501800537109
ell 318, elapsed: 0.0004818439483642578
ell 317, elapsed: 0.0004949569702148438
ell 316, elapsed: 0.0004899501800537109
ell 315, elapsed: 0.0004668235778808594
ell 314, elapsed: 0.00047588348388671875
ell 313, elapsed: 0.0004639625549316406
ell 312, elapsed: 0.0005500316619873047
ell 311, elapsed: 0.0004639625549316406
ell 310, elapsed: 0.0004699230194091797
ell 309, elapsed: 0.0004818439483642578
ell 308, elapsed: 0.0005099773406982422
ell 307, elapsed: 0.0005209445953369141
ell 306, elapsed: 0.00047397613525390625
ell 305, elapsed: 0.0005028247833251953
ell 304, elapsed: 0.0004889965057373047
ell 303, elapsed: 0.0004858970642089844
ell 302, elapsed: 0.00048422813415527344
ell 301, elapsed: 0.00045800209045410156
ell 300, elapsed: 0.0005488395690917969
ell 299, elapsed: 0.00046706199645996094
ell 298, elapsed: 0.00046896934509277344
ell 297, elapsed: 0.0004949569702148438
ell 296, elapsed: 0.00046706199645996094
ell 295, elapsed: 0.0004668235778808594
ell 294, elapsed: 0.000476837158203125
ell 293, elapsed: 0.00046515464782714844
ell 292, elapsed: 0.00047087669372558594
ell 291, elapsed: 0.00048089027404785156
ell 290, elapsed: 0.00046896934509277344
ell 289, elapsed: 0.0004658699035644531
ell 288, elapsed: 0.00047397613525390625
ell 287, elapsed: 0.00047206878662109375
ell 286, elapsed: 0.0004630088806152344
ell 285, elapsed: 0.0004830360412597656
ell 284, elapsed: 0.0004639625549316406
ell 283, elapsed: 0.00045609474182128906
ell 282, elapsed: 0.0004639625549316406
ell 281, elapsed: 0.0004601478576660156
ell 280, elapsed: 0.00037288665771484375
ell 279, elapsed: 0.0003590583801269531
ell 278, elapsed: 0.0003600120544433594
ell 277, elapsed: 0.00032591819763183594
ell 276, elapsed: 0.00031304359436035156
ell 275, elapsed: 0.00032019615173339844
ell 274, elapsed: 0.0003571510314941406
ell 273, elapsed: 0.0003581047058105469
ell 272, elapsed: 0.00038814544677734375
ell 271, elapsed: 0.0003159046173095703
ell 270, elapsed: 0.00031495094299316406
ell 269, elapsed: 0.000308990478515625
ell 268, elapsed: 0.00033593177795410156
ell 267, elapsed: 0.0003478527069091797
ell 266, elapsed: 0.00034809112548828125
ell 265, elapsed: 0.00035881996154785156
ell 264, elapsed: 0.0003039836883544922
ell 263, elapsed: 0.00030803680419921875
ell 262, elapsed: 0.00034499168395996094
ell 261, elapsed: 0.0003719329833984375
ell 260, elapsed: 0.000308990478515625
ell 259, elapsed: 0.0003077983856201172
ell 258, elapsed: 0.00034999847412109375
ell 257, elapsed: 0.00035500526428222656
ell 256, elapsed: 0.00030612945556640625
ell 255, elapsed: 0.00034880638122558594
ell 254, elapsed: 0.00034499168395996094
ell 253, elapsed: 0.0003559589385986328
ell 252, elapsed: 0.0003039836883544922
ell 251, elapsed: 0.00030112266540527344
ell 250, elapsed: 0.00036406517028808594
ell 249, elapsed: 0.0003459453582763672
ell 248, elapsed: 0.000347137451171875
ell 247, elapsed: 0.00035500526428222656
ell 246, elapsed: 0.000347137451171875
ell 245, elapsed: 0.00034689903259277344
ell 244, elapsed: 0.0003528594970703125
ell 243, elapsed: 0.0003540515899658203
ell 242, elapsed: 0.0003440380096435547
ell 241, elapsed: 0.00034117698669433594
ell 240, elapsed: 0.0003638267517089844
ell 239, elapsed: 0.00035500526428222656
ell 238, elapsed: 0.00030994415283203125
ell 237, elapsed: 0.00030493736267089844
ell 236, elapsed: 0.000308990478515625
ell 235, elapsed: 0.00030303001403808594
ell 234, elapsed: 0.00030303001403808594
ell 233, elapsed: 0.00030803680419921875
ell 232, elapsed: 0.0003178119659423828
ell 231, elapsed: 0.0003120899200439453
ell 230, elapsed: 0.0003161430358886719
ell 229, elapsed: 0.0002989768981933594
ell 228, elapsed: 0.000331878662109375
ell 227, elapsed: 0.00030493736267089844
ell 226, elapsed: 0.00030994415283203125
ell 225, elapsed: 0.00030517578125
ell 224, elapsed: 0.00029587745666503906
ell 223, elapsed: 0.00030493736267089844
ell 222, elapsed: 0.0003070831298828125
ell 221, elapsed: 0.0003120899200439453
ell 220, elapsed: 0.0003020763397216797
ell 219, elapsed: 0.0003077983856201172
ell 218, elapsed: 0.00030493736267089844
ell 217, elapsed: 0.0003218650817871094
ell 216, elapsed: 0.0004649162292480469
ell 215, elapsed: 0.0004849433898925781
ell 214, elapsed: 0.0004379749298095703
ell 213, elapsed: 0.0004439353942871094
ell 212, elapsed: 0.00044608116149902344
ell 211, elapsed: 0.0004420280456542969
ell 210, elapsed: 0.0006039142608642578
ell 209, elapsed: 0.0007481575012207031
ell 208, elapsed: 0.0005960464477539062
ell 207, elapsed: 0.0004949569702148438
ell 206, elapsed: 0.00046896934509277344
ell 205, elapsed: 0.0004801750183105469
ell 204, elapsed: 0.00047898292541503906
ell 203, elapsed: 0.0004749298095703125
ell 202, elapsed: 0.00046896934509277344
ell 201, elapsed: 0.0004611015319824219
ell 200, elapsed: 0.0004968643188476562
ell 199, elapsed: 0.0004839897155761719
ell 198, elapsed: 0.0006148815155029297
ell 197, elapsed: 0.0007741451263427734
ell 196, elapsed: 0.0007500648498535156
ell 195, elapsed: 0.0007719993591308594
ell 194, elapsed: 0.0005362033843994141
ell 193, elapsed: 0.0004999637603759766
ell 192, elapsed: 0.0004830360412597656
ell 191, elapsed: 0.00047397613525390625
ell 190, elapsed: 0.0005099773406982422
ell 189, elapsed: 0.0004851818084716797
ell 188, elapsed: 0.0004968643188476562
ell 187, elapsed: 0.000476837158203125
ell 186, elapsed: 0.0004839897155761719
ell 185, elapsed: 0.0004990100860595703
ell 184, elapsed: 0.0005311965942382812
ell 183, elapsed: 0.0005321502685546875
ell 182, elapsed: 0.0004849433898925781
ell 181, elapsed: 0.0004811286926269531
ell 180, elapsed: 0.0004889965057373047
ell 179, elapsed: 0.0004878044128417969
ell 178, elapsed: 0.0004749298095703125
ell 177, elapsed: 0.0005481243133544922
ell 176, elapsed: 0.0006909370422363281
ell 175, elapsed: 0.0004730224609375
ell 174, elapsed: 0.0005061626434326172
ell 173, elapsed: 0.0005171298980712891
ell 172, elapsed: 0.00047087669372558594
ell 171, elapsed: 0.0004868507385253906
ell 170, elapsed: 0.0004839897155761719
ell 169, elapsed: 0.0005440711975097656
ell 168, elapsed: 0.0007541179656982422
ell 167, elapsed: 0.0005950927734375
ell 166, elapsed: 0.0005180835723876953
ell 165, elapsed: 0.000614166259765625
ell 164, elapsed: 0.0007448196411132812
ell 163, elapsed: 0.0005671977996826172
ell 162, elapsed: 0.0004940032958984375
ell 161, elapsed: 0.00047206878662109375
ell 160, elapsed: 0.0004780292510986328
ell 159, elapsed: 0.000492095947265625
ell 158, elapsed: 0.0004780292510986328
ell 157, elapsed: 0.0005140304565429688
ell 156, elapsed: 0.0004799365997314453
ell 155, elapsed: 0.0004749298095703125
ell 154, elapsed: 0.0004429817199707031
ell 153, elapsed: 0.00043487548828125
ell 152, elapsed: 0.0004379749298095703
ell 151, elapsed: 0.0006580352783203125
ell 150, elapsed: 0.0007901191711425781
ell 149, elapsed: 0.0007460117340087891
ell 148, elapsed: 0.0005238056182861328
ell 147, elapsed: 0.0004699230194091797
ell 146, elapsed: 0.00043487548828125
ell 145, elapsed: 0.0006318092346191406
ell 144, elapsed: 0.000782012939453125
ell 143, elapsed: 0.0007300376892089844
ell 142, elapsed: 0.0005609989166259766
ell 141, elapsed: 0.0004680156707763672
ell 140, elapsed: 0.0006840229034423828
ell 139, elapsed: 0.0007288455963134766
ell 138, elapsed: 0.0005669593811035156
ell 137, elapsed: 0.0004868507385253906
ell 136, elapsed: 0.0004658699035644531
ell 135, elapsed: 0.0004918575286865234
ell 134, elapsed: 0.0004980564117431641
ell 133, elapsed: 0.00045800209045410156
ell 132, elapsed: 0.00046896934509277344
ell 131, elapsed: 0.0004868507385253906
ell 130, elapsed: 0.0004680156707763672
ell 129, elapsed: 0.0006859302520751953
ell 128, elapsed: 0.0007331371307373047
ell 127, elapsed: 0.00055694580078125
ell 126, elapsed: 0.0004889965057373047
ell 125, elapsed: 0.0004940032958984375
ell 124, elapsed: 0.0004620552062988281
ell 123, elapsed: 0.0004360675811767578
ell 122, elapsed: 0.0004458427429199219
ell 121, elapsed: 0.0004298686981201172
ell 120, elapsed: 0.0004439353942871094
ell 119, elapsed: 0.0004401206970214844
ell 118, elapsed: 0.0005180835723876953
ell 117, elapsed: 0.0006651878356933594
ell 116, elapsed: 0.0007491111755371094
ell 115, elapsed: 0.0006020069122314453
ell 114, elapsed: 0.0005090236663818359
ell 113, elapsed: 0.0005211830139160156
ell 112, elapsed: 0.0005040168762207031
ell 111, elapsed: 0.0004780292510986328
ell 110, elapsed: 0.0005059242248535156
ell 109, elapsed: 0.00051116943359375
ell 108, elapsed: 0.00045990943908691406
ell 107, elapsed: 0.0004329681396484375
ell 106, elapsed: 0.000659942626953125
ell 105, elapsed: 0.0005178451538085938
ell 104, elapsed: 0.000640869140625
ell 103, elapsed: 0.0006811618804931641
ell 102, elapsed: 0.00038504600524902344
ell 101, elapsed: 0.00036907196044921875
ell 100, elapsed: 0.00037598609924316406
ell 99, elapsed: 0.00037097930908203125
ell 98, elapsed: 0.00037598609924316406
ell 97, elapsed: 0.0003809928894042969
ell 96, elapsed: 0.00037097930908203125
ell 95, elapsed: 0.00037407875061035156
ell 94, elapsed: 0.0003681182861328125
ell 93, elapsed: 0.0003750324249267578
ell 92, elapsed: 0.00036716461181640625
ell 91, elapsed: 0.00037407875061035156
ell 90, elapsed: 0.00036597251892089844
ell 89, elapsed: 0.00036978721618652344
ell 88, elapsed: 0.00037097930908203125
ell 87, elapsed: 0.0003941059112548828
ell 86, elapsed: 0.0003719329833984375
ell 85, elapsed: 0.000370025634765625
ell 84, elapsed: 0.00036716461181640625
ell 83, elapsed: 0.00037384033203125
ell 82, elapsed: 0.000370025634765625
ell 81, elapsed: 0.0003719329833984375
ell 80, elapsed: 0.0003650188446044922
ell 79, elapsed: 0.00036907196044921875
ell 78, elapsed: 0.00037598609924316406
ell 77, elapsed: 0.00037217140197753906
ell 76, elapsed: 0.0003731250762939453
ell 75, elapsed: 0.00036907196044921875
ell 74, elapsed: 0.0003669261932373047
ell 73, elapsed: 0.0003750324249267578
ell 72, elapsed: 0.00036907196044921875
ell 71, elapsed: 0.0003750324249267578
ell 70, elapsed: 0.0003681182861328125
ell 69, elapsed: 0.0003719329833984375
ell 68, elapsed: 0.0004000663757324219
ell 67, elapsed: 0.0004169940948486328
ell 66, elapsed: 0.0003600120544433594
ell 65, elapsed: 0.0003230571746826172
ell 64, elapsed: 0.00030803680419921875
ell 63, elapsed: 0.00031113624572753906
ell 62, elapsed: 0.0003578662872314453
ell 61, elapsed: 0.0003561973571777344
ell 60, elapsed: 0.00034499168395996094
ell 59, elapsed: 0.0003540515899658203
ell 58, elapsed: 0.0003509521484375
ell 57, elapsed: 0.0003638267517089844
ell 56, elapsed: 0.0003509521484375
ell 55, elapsed: 0.00034689903259277344
ell 54, elapsed: 0.0003540515899658203
ell 53, elapsed: 0.0003421306610107422
ell 52, elapsed: 0.00034809112548828125
ell 51, elapsed: 0.0003070831298828125
ell 50, elapsed: 0.00030112266540527344
ell 49, elapsed: 0.00030684471130371094
ell 48, elapsed: 0.0004048347473144531
ell 47, elapsed: 0.0003731250762939453
ell 46, elapsed: 0.0003540515899658203
ell 45, elapsed: 0.0003509521484375
ell 44, elapsed: 0.0003161430358886719
ell 43, elapsed: 0.0003039836883544922
ell 42, elapsed: 0.0003151893615722656
ell 41, elapsed: 0.0003681182861328125
ell 40, elapsed: 0.0003418922424316406
ell 39, elapsed: 0.0003311634063720703
ell 38, elapsed: 0.0004467964172363281
ell 37, elapsed: 0.0004940032958984375
ell 36, elapsed: 0.00043392181396484375
ell 35, elapsed: 0.0002989768981933594
ell 34, elapsed: 0.00031304359436035156
ell 33, elapsed: 0.0003039836883544922
ell 32, elapsed: 0.00030493736267089844
ell 31, elapsed: 0.0003008842468261719
ell 30, elapsed: 0.0002970695495605469
ell 29, elapsed: 0.00030803680419921875
ell 28, elapsed: 0.0002999305725097656
ell 27, elapsed: 0.000308990478515625
ell 26, elapsed: 0.0003399848937988281
ell 25, elapsed: 0.00041294097900390625
ell 24, elapsed: 0.0004420280456542969
ell 23, elapsed: 0.0004420280456542969
ell 22, elapsed: 0.0004420280456542969
ell 21, elapsed: 0.0004410743713378906
ell 20, elapsed: 0.0006809234619140625
ell 19, elapsed: 0.0007269382476806641
ell 18, elapsed: 0.0004749298095703125
ell 17, elapsed: 0.00039505958557128906
ell 16, elapsed: 0.00038886070251464844
ell 15, elapsed: 0.0004668235778808594
ell 14, elapsed: 0.0004410743713378906
ell 13, elapsed: 0.00038886070251464844
ell 12, elapsed: 0.00039386749267578125
ell 11, elapsed: 0.0004169940948486328
ell 10, elapsed: 0.0004849433898925781
ell 9, elapsed: 0.00048613548278808594
ell 8, elapsed: 0.00047898292541503906
ell 7, elapsed: 0.0004839897155761719
ell 6, elapsed: 0.0004830360412597656
ell 5, elapsed: 0.00047707557678222656
ell 4, elapsed: 0.0004830360412597656
ell 3, elapsed: 0.0004899501800537109
ell 2, elapsed: 0.0004918575286865234
ell 1, elapsed: 0.00047898292541503906
ell 0, elapsed: 0.0004911422729492188
  0.627657 seconds (103.92 k allocations: 3.974 MiB)
elapsed: 0.0005919933319091797
step:          0.067822 sec (0 allocations: 0 byte, 0.0% gc time)
swapping:      0.000635 sec (0 allocations: 0 byte, 0.0% gc time)
calc_Mellell!: 0.009399 sec (0 allocations: 0 byte, 0.0% gc time)
  t0 :  0.001928 sec (0 allocations: 0 byte, 0.0% gc time)
  tm2 : 0.09679 sec (0 allocations: 0 byte, 0.0% gc time)
  tm2s: 0.001332 sec (0 allocations: 0 byte, 0.0% gc time)
  tm4 : 0.247948 sec (0 allocations: 0 byte, 0.0% gc time)
  tp2 : 0.0 sec (0 allocations: 0 byte, 0.0% gc time)
  tp2s: 0.0 sec (0 allocations: 0 byte, 0.0% gc time)
  tp4 : 0.0 sec (0 allocations: 0 byte, 0.0% gc time)
calc_wtdll!:   0.376302 sec (9.9 k allocations: 1.047 MB, 0.0% gc time)
calc_wljj!:    0.034503 sec (689 allocations: 10.766 KB, 0.0% gc time)
mult_prefac!:  0.0 sec (0 allocations: 0 byte, 0.0% gc time)
convert:       0.0 sec (0 allocations: 0 byte, 0.0% gc time)
write:         0.040494 sec (0 allocations: 0 byte, 0.0% gc time)
test_rand_2f1: 0.0 sec (0 allocations: 0 byte, 0.0% gc time)
Closing outfile out/Ml21-cache.bin...   0.000007 seconds
  0.000372 seconds (36 allocations: 27.953 KiB)
make_phi():   0.002832 seconds (8.18 k allocations: 237.844 KiB)
  0.209281 seconds (141.90 k allocations: 3.483 MiB)
tskip:       0.000919 sec (0 allocations: 0 byte, 0.0% gc time)
tread:       0.02838 sec (17 allocations: 10.641 KB, 0.0% gc time)
tmultphi:    0.014737 sec (0 allocations: 0 byte, 0.0% gc time)
tbrfft:      0.05606 sec (0 allocations: 0 byte, 0.0% gc time)
tmultprefac: 0.047224 sec (0 allocations: 0 byte, 0.0% gc time)
toutfunc:    0.0581 sec (127.507 k allocations: 2.312 MB, 0.0% gc time)
Testing R=1.0 ... passed
Calculating fmax: 
  dlrec    = 4
  dlrecRg1 = -4
  q=1.1, R=0.9:	  0.526993 seconds (105.76 k allocations: 15.287 MiB)

  0.527391 seconds (105.99 k allocations: 15.324 MiB)
ℓ = 1202
Δℓ = 4
ΔℓRg1 = -4
N = 1600
q = 1.1
kmin = 1.0e-5
kmax = 100000.00000000004
χ0 = 0.023029999999999995
RR = RR.tsv
ℓmax = ℓmax.bin
f21 = f21.bin
kmin = 1.0e-5
kmax = 100000.0
dlrec    = 4
dlrecRg1 = -4
Output size: 5741568 bytes = 0.005347251892089844 GiB
Output size: 51264 bytes = 4.774332046508789e-5 GiB
Reading 'out/F21EllCache'...   0.001122 seconds (197 allocations: 84.203 KiB)
ellmax: 1202
lmaxcache: 1202
fell[:,1,1] = ComplexF64[1.3482014726274674e-57 - 3.302141236118086e-73im, 1.357860004724329e-57 - 3.3257978169518355e-73im]
ell 1202, elapsed: 2.288818359375e-5
ell 1201, elapsed: 0.0003139972686767578
ell 1200, elapsed: 0.00030994415283203125
ell 1199, elapsed: 0.0002980232238769531
ell 1198, elapsed: 0.0002899169921875
ell 1002, elapsed: 0.010331153869628906
ell 1001, elapsed: 0.0004131793975830078
ell 1000, elapsed: 0.0003838539123535156
ell 999, elapsed: 0.0003750324249267578
ell 998, elapsed: 0.00037789344787597656
ell 902, elapsed: 0.005206108093261719
ell 901, elapsed: 0.00039196014404296875
ell 900, elapsed: 0.0003769397735595703
ell 899, elapsed: 0.0003800392150878906
ell 898, elapsed: 0.00037598609924316406
ell 802, elapsed: 0.005340099334716797
ell 801, elapsed: 0.0003829002380371094
ell 800, elapsed: 0.00039696693420410156
ell 799, elapsed: 0.00038504600524902344
ell 798, elapsed: 0.0003459453582763672
ell 702, elapsed: 0.004796028137207031
ell 701, elapsed: 0.0003261566162109375
ell 700, elapsed: 0.00030684471130371094
ell 699, elapsed: 0.0003230571746826172
ell 698, elapsed: 0.00030493736267089844
ell 602, elapsed: 0.004870176315307617
ell 601, elapsed: 0.0004229545593261719
ell 600, elapsed: 0.0003788471221923828
ell 599, elapsed: 0.00037097930908203125
ell 598, elapsed: 0.0003790855407714844
ell 502, elapsed: 0.00533604621887207
ell 501, elapsed: 0.00033283233642578125
ell 500, elapsed: 0.00045299530029296875
ell 499, elapsed: 0.00045990943908691406
ell 498, elapsed: 0.00046515464782714844
ell 402, elapsed: 0.006912946701049805
ell 401, elapsed: 0.0005478858947753906
ell 400, elapsed: 0.0004410743713378906
ell 399, elapsed: 0.00036215782165527344
ell 398, elapsed: 0.00032806396484375
ell 302, elapsed: 0.0051839351654052734
ell 301, elapsed: 0.0004069805145263672
ell 300, elapsed: 0.0003981590270996094
ell 299, elapsed: 0.0005490779876708984
ell 298, elapsed: 0.0004711151123046875
ell 202, elapsed: 0.005403041839599609
ell 201, elapsed: 0.0003647804260253906
ell 200, elapsed: 0.0003619194030761719
ell 199, elapsed: 0.0003898143768310547
ell 198, elapsed: 0.00036597251892089844
ell 152, elapsed: 0.0027348995208740234
ell 151, elapsed: 0.00033283233642578125
ell 150, elapsed: 0.0003180503845214844
ell 149, elapsed: 0.0003159046173095703
ell 148, elapsed: 0.00034999847412109375
ell 127, elapsed: 0.0014941692352294922
ell 126, elapsed: 0.0003209114074707031
ell 125, elapsed: 0.0003590583801269531
ell 124, elapsed: 0.0004069805145263672
ell 123, elapsed: 0.00040602684020996094
ell 114, elapsed: 0.0009679794311523438
ell 113, elapsed: 0.00040602684020996094
ell 112, elapsed: 0.0004019737243652344
ell 111, elapsed: 0.0004000663757324219
ell 110, elapsed: 0.00036215782165527344
ell 102, elapsed: 0.000637054443359375
ell 101, elapsed: 0.0002651214599609375
ell 100, elapsed: 0.00038313865661621094
ell 99, elapsed: 0.0006558895111083984
ell 98, elapsed: 0.0006120204925537109
ell 97, elapsed: 0.00051116943359375
ell 96, elapsed: 0.0004019737243652344
ell 95, elapsed: 0.00041294097900390625
ell 94, elapsed: 0.00037097930908203125
ell 93, elapsed: 0.0003769397735595703
ell 92, elapsed: 0.00037097930908203125
ell 91, elapsed: 0.00037097930908203125
ell 90, elapsed: 0.00036907196044921875
ell 89, elapsed: 0.00037288665771484375
ell 88, elapsed: 0.00037384033203125
ell 87, elapsed: 0.0003681182861328125
ell 86, elapsed: 0.00037598609924316406
ell 85, elapsed: 0.000370025634765625
ell 84, elapsed: 0.0003762245178222656
ell 83, elapsed: 0.00037097930908203125
ell 82, elapsed: 0.00031304359436035156
ell 81, elapsed: 0.0003161430358886719
ell 80, elapsed: 0.00030517578125
ell 79, elapsed: 0.000308990478515625
ell 78, elapsed: 0.0003008842468261719
ell 77, elapsed: 0.00029921531677246094
ell 76, elapsed: 0.000308990478515625
ell 75, elapsed: 0.0002980232238769531
ell 74, elapsed: 0.0003039836883544922
ell 73, elapsed: 0.0002989768981933594
ell 72, elapsed: 0.0003008842468261719
ell 71, elapsed: 0.00032401084899902344
ell 70, elapsed: 0.0003020763397216797
ell 69, elapsed: 0.0003018379211425781
ell 68, elapsed: 0.0002999305725097656
ell 67, elapsed: 0.0002980232238769531
ell 66, elapsed: 0.00030684471130371094
ell 65, elapsed: 0.0003008842468261719
ell 64, elapsed: 0.00030493736267089844
ell 63, elapsed: 0.0002980232238769531
ell 62, elapsed: 0.0003001689910888672
ell 61, elapsed: 0.0003070831298828125
ell 60, elapsed: 0.0002999305725097656
ell 59, elapsed: 0.0003199577331542969
ell 58, elapsed: 0.00029921531677246094
ell 57, elapsed: 0.0003018379211425781
ell 56, elapsed: 0.0003108978271484375
ell 55, elapsed: 0.0003001689910888672
ell 54, elapsed: 0.0003209114074707031
ell 53, elapsed: 0.0003020763397216797
ell 52, elapsed: 0.0004019737243652344
ell 51, elapsed: 0.0003921985626220703
ell 50, elapsed: 0.0003981590270996094
ell 49, elapsed: 0.0004119873046875
ell 48, elapsed: 0.00038313865661621094
ell 47, elapsed: 0.00039196014404296875
ell 46, elapsed: 0.0004260540008544922
ell 45, elapsed: 0.0004119873046875
ell 44, elapsed: 0.0004000663757324219
ell 43, elapsed: 0.00040602684020996094
ell 42, elapsed: 0.00038909912109375
ell 41, elapsed: 0.000392913818359375
ell 40, elapsed: 0.0003509521484375
ell 39, elapsed: 0.0003101825714111328
ell 38, elapsed: 0.0003039836883544922
ell 37, elapsed: 0.0003070831298828125
ell 36, elapsed: 0.0003108978271484375
ell 35, elapsed: 0.0003070831298828125
ell 34, elapsed: 0.0003077983856201172
ell 33, elapsed: 0.00030803680419921875
ell 32, elapsed: 0.00031685829162597656
ell 31, elapsed: 0.00030994415283203125
ell 30, elapsed: 0.0002999305725097656
ell 29, elapsed: 0.0003161430358886719
ell 28, elapsed: 0.00032711029052734375
ell 27, elapsed: 0.00030517578125
ell 26, elapsed: 0.00031304359436035156
ell 25, elapsed: 0.0002999305725097656
ell 24, elapsed: 0.00031113624572753906
ell 23, elapsed: 0.00030517578125
ell 22, elapsed: 0.00030303001403808594
ell 21, elapsed: 0.0002989768981933594
ell 20, elapsed: 0.00030994415283203125
ell 19, elapsed: 0.0003039836883544922
ell 18, elapsed: 0.0003108978271484375
ell 17, elapsed: 0.00030994415283203125
ell 16, elapsed: 0.0003190040588378906
ell 15, elapsed: 0.0002968311309814453
ell 14, elapsed: 0.00030303001403808594
ell 13, elapsed: 0.0002951622009277344
ell 12, elapsed: 0.0003139972686767578
ell 11, elapsed: 0.00030112266540527344
ell 10, elapsed: 0.0003020763397216797
ell 9, elapsed: 0.0003139972686767578
ell 8, elapsed: 0.00030112266540527344
ell 7, elapsed: 0.0003070831298828125
ell 6, elapsed: 0.0003039836883544922
ell 5, elapsed: 0.00031495094299316406
ell 4, elapsed: 0.00030684471130371094
ell 3, elapsed: 0.0003020763397216797
ell 2, elapsed: 0.00030493736267089844
ell 1, elapsed: 0.0002989768981933594
ell 0, elapsed: 0.0003020763397216797
  0.121044 seconds (19.84 k allocations: 849.812 KiB)
elapsed: 0.0004169940948486328
step:          0.060111 sec (0 allocations: 0 byte, 0.0% gc time)
swapping:      0.000476 sec (0 allocations: 0 byte, 0.0% gc time)
calc_Mellell!: 0.001117 sec (0 allocations: 0 byte, 0.0% gc time)
  t0 :  0.000297 sec (0 allocations: 0 byte, 0.0% gc time)
  tm2 : 0.011985 sec (0 allocations: 0 byte, 0.0% gc time)
  tm2s: 0.000209 sec (0 allocations: 0 byte, 0.0% gc time)
  tm4 : 0.029177 sec (0 allocations: 0 byte, 0.0% gc time)
  tp2 : 0.0 sec (0 allocations: 0 byte, 0.0% gc time)
  tp2s: 0.0 sec (0 allocations: 0 byte, 0.0% gc time)
  tp4 : 0.0 sec (0 allocations: 0 byte, 0.0% gc time)
calc_wtdll!:   0.042089 sec (1.344 k allocations: 147.0 KB, 0.0% gc time)
calc_wljj!:    0.002299 sec (6 allocations: 96 byte, 0.0% gc time)
mult_prefac!:  0.0 sec (0 allocations: 0 byte, 0.0% gc time)
convert:       0.0 sec (0 allocations: 0 byte, 0.0% gc time)
write:         0.003188 sec (0 allocations: 0 byte, 0.0% gc time)
test_rand_2f1: 0.0 sec (0 allocations: 0 byte, 0.0% gc time)
Closing outfile out/Ml21-cache.bin...   0.000005 seconds
  0.000195 seconds (36 allocations: 27.953 KiB)
make_phi():   0.001821 seconds (8.18 k allocations: 237.844 KiB)
  0.023614 seconds (11.65 k allocations: 308.688 KiB)
tskip:       2.4e-5 sec (0 allocations: 0 byte, 0.0% gc time)
tread:       0.00328 sec (17 allocations: 2.125 KB, 0.0% gc time)
tmultphi:    0.001635 sec (0 allocations: 0 byte, 0.0% gc time)
tbrfft:      0.00652 sec (0 allocations: 0 byte, 0.0% gc time)
tmultprefac: 0.00481 sec (0 allocations: 0 byte, 0.0% gc time)
toutfunc:    0.006911 sec (10.304 k allocations: 196.0 KB, 0.0% gc time)
Testing R=0.9 ... passed
Calculating fmax: 
  dlrec    = 4
  dlrecRg1 = -4
  q=1.1, R=0.8:	  0.439323 seconds (103.25 k allocations: 14.856 MiB)

  0.439687 seconds (103.48 k allocations: 14.893 MiB)
ℓ = 1202
Δℓ = 4
ΔℓRg1 = -4
N = 1600
q = 1.1
kmin = 1.0e-5
kmax = 100000.00000000004
χ0 = 0.023029999999999995
RR = RR.tsv
ℓmax = ℓmax.bin
f21 = f21.bin
kmin = 1.0e-5
kmax = 100000.0
dlrec    = 4
dlrecRg1 = -4
Output size: 5741568 bytes = 0.005347251892089844 GiB
Output size: 51264 bytes = 4.774332046508789e-5 GiB
Reading 'out/F21EllCache'...   0.000929 seconds (197 allocations: 84.203 KiB)
ellmax: 1202
lmaxcache: 1202
fell[:,1,1] = ComplexF64[7.519068145690986e-120 - 1.8416405474382574e-135im, 7.541664537386155e-120 - 1.847175067190611e-135im]
ell 1202, elapsed: 2.384185791015625e-5
ell 1201, elapsed: 0.0004699230194091797
ell 1200, elapsed: 0.0004010200500488281
ell 1199, elapsed: 0.00039315223693847656
ell 1198, elapsed: 0.0004279613494873047
ell 1002, elapsed: 0.010937929153442383
ell 1001, elapsed: 0.00039696693420410156
ell 1000, elapsed: 0.00040078163146972656
ell 999, elapsed: 0.0004010200500488281
ell 998, elapsed: 0.0004019737243652344
ell 902, elapsed: 0.006045103073120117
ell 901, elapsed: 0.0004169940948486328
ell 900, elapsed: 0.000415802001953125
ell 899, elapsed: 0.0004119873046875
ell 898, elapsed: 0.0004010200500488281
ell 802, elapsed: 0.005959987640380859
ell 801, elapsed: 0.00036716461181640625
ell 800, elapsed: 0.0003600120544433594
ell 799, elapsed: 0.0003600120544433594
ell 798, elapsed: 0.0003631114959716797
ell 702, elapsed: 0.006112098693847656
ell 701, elapsed: 0.000370025634765625
ell 700, elapsed: 0.0003628730773925781
ell 699, elapsed: 0.0003619194030761719
ell 698, elapsed: 0.0003609657287597656
ell 602, elapsed: 0.0057430267333984375
ell 601, elapsed: 0.00039887428283691406
ell 600, elapsed: 0.00040221214294433594
ell 599, elapsed: 0.00039887428283691406
ell 598, elapsed: 0.0004048347473144531
ell 502, elapsed: 0.005758047103881836
ell 501, elapsed: 0.0003230571746826172
ell 500, elapsed: 0.0003209114074707031
ell 499, elapsed: 0.0003209114074707031
ell 498, elapsed: 0.00032210350036621094
ell 402, elapsed: 0.0052950382232666016
ell 401, elapsed: 0.00038504600524902344
ell 400, elapsed: 0.00039386749267578125
ell 399, elapsed: 0.00039505958557128906
ell 398, elapsed: 0.00041103363037109375
ell 302, elapsed: 0.005463838577270508
ell 301, elapsed: 0.0003230571746826172
ell 300, elapsed: 0.00032210350036621094
ell 299, elapsed: 0.0004000663757324219
ell 298, elapsed: 0.0003921985626220703
ell 202, elapsed: 0.005654811859130859
ell 201, elapsed: 0.00036787986755371094
ell 200, elapsed: 0.0003609657287597656
ell 199, elapsed: 0.0003612041473388672
ell 198, elapsed: 0.0003590583801269531
ell 152, elapsed: 0.0028638839721679688
ell 151, elapsed: 0.0003600120544433594
ell 150, elapsed: 0.0003590583801269531
ell 149, elapsed: 0.00036597251892089844
ell 148, elapsed: 0.00029397010803222656
ell 127, elapsed: 0.0013189315795898438
ell 126, elapsed: 0.0002570152282714844
ell 125, elapsed: 0.0002579689025878906
ell 124, elapsed: 0.0002560615539550781
ell 123, elapsed: 0.0002570152282714844
ell 114, elapsed: 0.0006580352783203125
ell 113, elapsed: 0.0002570152282714844
ell 112, elapsed: 0.000286102294921875
ell 111, elapsed: 0.0002601146697998047
ell 110, elapsed: 0.0002598762512207031
ell 102, elapsed: 0.0006198883056640625
ell 101, elapsed: 0.0002579689025878906
ell 100, elapsed: 0.0002651214599609375
ell 99, elapsed: 0.0002589225769042969
ell 98, elapsed: 0.0002608299255371094
ell 97, elapsed: 0.00030517578125
ell 96, elapsed: 0.00030517578125
ell 95, elapsed: 0.0003018379211425781
ell 94, elapsed: 0.00030517578125
ell 93, elapsed: 0.0003139972686767578
ell 92, elapsed: 0.00031495094299316406
ell 91, elapsed: 0.0003058910369873047
ell 90, elapsed: 0.0003018379211425781
ell 89, elapsed: 0.0003170967102050781
ell 88, elapsed: 0.0003018379211425781
ell 87, elapsed: 0.00031304359436035156
ell 86, elapsed: 0.00030612945556640625
ell 85, elapsed: 0.00030684471130371094
ell 84, elapsed: 0.00030493736267089844
ell 83, elapsed: 0.0002980232238769531
ell 82, elapsed: 0.00032401084899902344
ell 81, elapsed: 0.0003058910369873047
ell 80, elapsed: 0.0003170967102050781
ell 79, elapsed: 0.0003039836883544922
ell 78, elapsed: 0.0002989768981933594
ell 77, elapsed: 0.00030493736267089844
ell 76, elapsed: 0.00030303001403808594
ell 75, elapsed: 0.0003039836883544922
ell 74, elapsed: 0.0003039836883544922
ell 73, elapsed: 0.00029778480529785156
ell 72, elapsed: 0.0003139972686767578
ell 71, elapsed: 0.0003018379211425781
ell 70, elapsed: 0.0003211498260498047
ell 69, elapsed: 0.00030112266540527344
ell 68, elapsed: 0.0002970695495605469
ell 67, elapsed: 0.000308990478515625
ell 66, elapsed: 0.0003020763397216797
ell 65, elapsed: 0.00030517578125
ell 64, elapsed: 0.00030422210693359375
ell 63, elapsed: 0.00029587745666503906
ell 62, elapsed: 0.000308990478515625
ell 61, elapsed: 0.0003020763397216797
ell 60, elapsed: 0.00030803680419921875
ell 59, elapsed: 0.00030303001403808594
ell 58, elapsed: 0.00032210350036621094
ell 57, elapsed: 0.00030303001403808594
ell 56, elapsed: 0.0002970695495605469
ell 55, elapsed: 0.00030994415283203125
ell 54, elapsed: 0.0003039836883544922
ell 53, elapsed: 0.0003039836883544922
ell 52, elapsed: 0.00030112266540527344
ell 51, elapsed: 0.00029587745666503906
ell 50, elapsed: 0.000308990478515625
ell 49, elapsed: 0.0003020763397216797
ell 48, elapsed: 0.00030517578125
ell 47, elapsed: 0.0003001689910888672
ell 46, elapsed: 0.0003139972686767578
ell 45, elapsed: 0.00030994415283203125
[...]
ell 789, elapsed: 0.0007500648498535156
ell 788, elapsed: 0.0007548332214355469
ell 782, elapsed: 0.0015749931335449219
ell 781, elapsed: 0.0007810592651367188
ell 780, elapsed: 0.0007410049438476562
ell 779, elapsed: 0.0008070468902587891
ell 778, elapsed: 0.000926971435546875
ell 772, elapsed: 0.0015070438385009766
ell 771, elapsed: 0.000804901123046875
ell 770, elapsed: 0.0007789134979248047
ell 769, elapsed: 0.0010449886322021484
ell 768, elapsed: 0.0007691383361816406
ell 762, elapsed: 0.0015320777893066406
ell 761, elapsed: 0.0008080005645751953
ell 760, elapsed: 0.0007920265197753906
ell 759, elapsed: 0.0007710456848144531
ell 758, elapsed: 0.0008499622344970703
ell 752, elapsed: 0.002562999725341797
ell 751, elapsed: 0.0008709430694580078
ell 750, elapsed: 0.0008769035339355469
ell 749, elapsed: 0.0016269683837890625
ell 748, elapsed: 0.0008740425109863281
ell 742, elapsed: 0.0019161701202392578
ell 741, elapsed: 0.001569986343383789
ell 740, elapsed: 0.0007891654968261719
ell 739, elapsed: 0.0007741451263427734
ell 738, elapsed: 0.0007889270782470703
ell 732, elapsed: 0.0015249252319335938
ell 731, elapsed: 0.0007569789886474609
ell 730, elapsed: 0.0016179084777832031
ell 729, elapsed: 0.0008420944213867188
ell 728, elapsed: 0.0007958412170410156
ell 722, elapsed: 0.002941131591796875
ell 721, elapsed: 0.0007910728454589844
ell 720, elapsed: 0.0007920265197753906
ell 719, elapsed: 0.001622915267944336
ell 718, elapsed: 0.0007770061492919922
ell 712, elapsed: 0.0015270709991455078
ell 711, elapsed: 0.0017690658569335938
ell 710, elapsed: 0.0008897781372070312
ell 709, elapsed: 0.0008800029754638672
ell 708, elapsed: 0.0009379386901855469
ell 702, elapsed: 0.0015909671783447266
ell 701, elapsed: 0.0008640289306640625
ell 700, elapsed: 0.0007741451263427734
ell 699, elapsed: 0.0009949207305908203
ell 698, elapsed: 0.0008671283721923828
ell 692, elapsed: 0.0015621185302734375
ell 691, elapsed: 0.0008602142333984375
ell 690, elapsed: 0.0009510517120361328
ell 689, elapsed: 0.0009551048278808594
ell 688, elapsed: 0.0009279251098632812
ell 682, elapsed: 0.0017108917236328125
ell 681, elapsed: 0.0009059906005859375
ell 680, elapsed: 0.0008120536804199219
ell 679, elapsed: 0.000843048095703125
ell 678, elapsed: 0.013121843338012695
ell 672, elapsed: 0.0021698474884033203
ell 671, elapsed: 0.0008819103240966797
ell 670, elapsed: 0.0009360313415527344
ell 669, elapsed: 0.0008950233459472656
ell 668, elapsed: 0.0007638931274414062
ell 662, elapsed: 0.0016129016876220703
ell 661, elapsed: 0.0010340213775634766
ell 660, elapsed: 0.001026153564453125
ell 659, elapsed: 0.000988006591796875
ell 658, elapsed: 0.0008740425109863281
ell 652, elapsed: 0.0014309883117675781
ell 651, elapsed: 0.0007600784301757812
ell 650, elapsed: 0.0007588863372802734
ell 649, elapsed: 0.009050846099853516
ell 648, elapsed: 0.0009398460388183594
ell 642, elapsed: 0.0019989013671875
ell 641, elapsed: 0.00086212158203125
ell 640, elapsed: 0.000804901123046875
ell 639, elapsed: 0.0007841587066650391
ell 638, elapsed: 0.0007929801940917969
ell 632, elapsed: 0.0015599727630615234
ell 631, elapsed: 0.0008270740509033203
ell 630, elapsed: 0.0007879734039306641
ell 629, elapsed: 0.0007939338684082031
ell 628, elapsed: 0.0008051395416259766
ell 622, elapsed: 0.0015559196472167969
ell 621, elapsed: 0.0008130073547363281
ell 620, elapsed: 0.0008261203765869141
ell 619, elapsed: 0.0014791488647460938
ell 618, elapsed: 0.0014748573303222656
ell 612, elapsed: 0.002201080322265625
ell 611, elapsed: 0.0007889270782470703
ell 610, elapsed: 0.0007998943328857422
ell 609, elapsed: 0.0008580684661865234
ell 608, elapsed: 0.0013201236724853516
ell 602, elapsed: 0.0019359588623046875
ell 601, elapsed: 0.000888824462890625
ell 600, elapsed: 0.0007879734039306641
ell 599, elapsed: 0.0007920265197753906
ell 598, elapsed: 0.0007917881011962891
ell 592, elapsed: 0.0015881061553955078
ell 591, elapsed: 0.0008981227874755859
ell 590, elapsed: 0.0007970333099365234
ell 589, elapsed: 0.0007870197296142578
ell 588, elapsed: 0.0007991790771484375
ell 582, elapsed: 0.0015518665313720703
ell 581, elapsed: 0.0008139610290527344
ell 580, elapsed: 0.0007951259613037109
ell 579, elapsed: 0.0008649826049804688
ell 578, elapsed: 0.0008471012115478516
ell 572, elapsed: 0.001499176025390625
ell 571, elapsed: 0.0009670257568359375
ell 570, elapsed: 0.0008561611175537109
ell 569, elapsed: 0.0008740425109863281
ell 568, elapsed: 0.0008771419525146484
ell 562, elapsed: 0.0019550323486328125
ell 561, elapsed: 0.0007779598236083984
ell 560, elapsed: 0.0008420944213867188
ell 559, elapsed: 0.0007910728454589844
ell 558, elapsed: 0.0010149478912353516
ell 552, elapsed: 0.0019290447235107422
ell 551, elapsed: 0.0007841587066650391
ell 550, elapsed: 0.0009710788726806641
ell 549, elapsed: 0.0008111000061035156
ell 548, elapsed: 0.0007970333099365234
ell 542, elapsed: 0.0015900135040283203
ell 541, elapsed: 0.0010790824890136719
ell 540, elapsed: 0.0008819103240966797
ell 539, elapsed: 0.0008759498596191406
ell 538, elapsed: 0.0008771419525146484
ell 532, elapsed: 0.0017669200897216797
ell 531, elapsed: 0.0008749961853027344
ell 530, elapsed: 0.0009229183197021484
ell 529, elapsed: 0.0009660720825195312
ell 528, elapsed: 0.0008821487426757812
ell 522, elapsed: 0.0018949508666992188
ell 521, elapsed: 0.0010099411010742188
ell 520, elapsed: 0.0009419918060302734
ell 519, elapsed: 0.0008690357208251953
ell 518, elapsed: 0.0008800029754638672
ell 512, elapsed: 0.0017120838165283203
ell 511, elapsed: 0.0008578300476074219
ell 510, elapsed: 0.0008840560913085938
ell 509, elapsed: 0.0010008811950683594
ell 508, elapsed: 0.0010268688201904297
ell 502, elapsed: 0.0019221305847167969
ell 501, elapsed: 0.0008609294891357422
ell 500, elapsed: 0.000782012939453125
ell 499, elapsed: 0.0007588863372802734
ell 498, elapsed: 0.0007710456848144531
ell 492, elapsed: 0.0019338130950927734
ell 491, elapsed: 0.0013568401336669922
ell 490, elapsed: 0.0008480548858642578
ell 489, elapsed: 0.0009608268737792969
ell 488, elapsed: 0.0008928775787353516
ell 482, elapsed: 0.0019259452819824219
ell 481, elapsed: 0.0007870197296142578
ell 480, elapsed: 0.001422882080078125
ell 479, elapsed: 0.0010280609130859375
ell 478, elapsed: 0.0008840560913085938
ell 472, elapsed: 0.0019369125366210938
ell 471, elapsed: 0.0007729530334472656
ell 470, elapsed: 0.0007860660552978516
ell 469, elapsed: 0.000865936279296875
ell 468, elapsed: 0.0008487701416015625
ell 462, elapsed: 0.0015668869018554688
ell 461, elapsed: 0.0008459091186523438
ell 460, elapsed: 0.001043081283569336
ell 459, elapsed: 0.0009350776672363281
ell 458, elapsed: 0.000865936279296875
ell 452, elapsed: 0.0019941329956054688
ell 451, elapsed: 0.0007848739624023438
ell 450, elapsed: 0.0007841587066650391
ell 449, elapsed: 0.0007889270782470703
ell 448, elapsed: 0.0009241104125976562
ell 442, elapsed: 0.002025127410888672
ell 441, elapsed: 0.0008559226989746094
ell 440, elapsed: 0.0009059906005859375
ell 439, elapsed: 0.0007719993591308594
ell 438, elapsed: 0.0007901191711425781
ell 432, elapsed: 0.001577138900756836
ell 431, elapsed: 0.0010421276092529297
ell 430, elapsed: 0.0009989738464355469
ell 429, elapsed: 0.0008080005645751953
ell 428, elapsed: 0.0007810592651367188
ell 422, elapsed: 0.0015981197357177734
ell 421, elapsed: 0.0007610321044921875
ell 420, elapsed: 0.0007660388946533203
ell 419, elapsed: 0.0007600784301757812
ell 418, elapsed: 0.000782012939453125
ell 412, elapsed: 0.0014939308166503906
ell 411, elapsed: 0.0007781982421875
ell 410, elapsed: 0.0007619857788085938
ell 409, elapsed: 0.0007891654968261719
ell 408, elapsed: 0.0007638931274414062
ell 402, elapsed: 0.0014700889587402344
ell 401, elapsed: 0.0007698535919189453
ell 400, elapsed: 0.000782012939453125
ell 399, elapsed: 0.0007650852203369141
ell 398, elapsed: 0.0007669925689697266
ell 392, elapsed: 0.0015110969543457031
ell 391, elapsed: 0.0007798671722412109
ell 390, elapsed: 0.0007750988006591797
ell 389, elapsed: 0.0007610321044921875
ell 388, elapsed: 0.0007669925689697266
ell 382, elapsed: 0.001522064208984375
ell 381, elapsed: 0.0007679462432861328
ell 380, elapsed: 0.0007669925689697266
ell 379, elapsed: 0.0007688999176025391
ell 378, elapsed: 0.0007660388946533203
ell 372, elapsed: 0.0015270709991455078
ell 371, elapsed: 0.0007789134979248047
ell 370, elapsed: 0.0007641315460205078
ell 369, elapsed: 0.0008320808410644531
ell 368, elapsed: 0.0008130073547363281
ell 362, elapsed: 0.00150299072265625
ell 361, elapsed: 0.0007538795471191406
ell 360, elapsed: 0.0007691383361816406
ell 359, elapsed: 0.0007808208465576172
ell 358, elapsed: 0.0007698535919189453
ell 352, elapsed: 0.001497030258178711
ell 351, elapsed: 0.0007770061492919922
ell 350, elapsed: 0.0007879734039306641
ell 349, elapsed: 0.0007550716400146484
ell 348, elapsed: 0.0007779598236083984
ell 342, elapsed: 0.001505136489868164
ell 341, elapsed: 0.0008051395416259766
ell 340, elapsed: 0.0007939338684082031
ell 339, elapsed: 0.0007810592651367188
ell 338, elapsed: 0.0007550716400146484
ell 332, elapsed: 0.0015659332275390625
ell 331, elapsed: 0.0008499622344970703
ell 330, elapsed: 0.0008959770202636719
ell 329, elapsed: 0.0008151531219482422
ell 328, elapsed: 0.0008001327514648438
ell 322, elapsed: 0.0014619827270507812
ell 321, elapsed: 0.0007688999176025391
ell 320, elapsed: 0.0007700920104980469
ell 319, elapsed: 0.0007770061492919922
ell 318, elapsed: 0.0007638931274414062
ell 312, elapsed: 0.001416921615600586
ell 311, elapsed: 0.0007510185241699219
ell 310, elapsed: 0.0007648468017578125
ell 309, elapsed: 0.0007419586181640625
ell 308, elapsed: 0.0007491111755371094
ell 302, elapsed: 0.0013759136199951172
ell 301, elapsed: 0.0007569789886474609
ell 300, elapsed: 0.0007569789886474609
ell 299, elapsed: 0.0008330345153808594
ell 298, elapsed: 0.0007309913635253906
ell 292, elapsed: 0.001302957534790039
ell 291, elapsed: 0.0007309913635253906
ell 290, elapsed: 0.0007340908050537109
ell 289, elapsed: 0.0007390975952148438
ell 288, elapsed: 0.0007529258728027344
ell 282, elapsed: 0.0014019012451171875
ell 281, elapsed: 0.0008299350738525391
ell 280, elapsed: 0.0008370876312255859
ell 279, elapsed: 0.0008490085601806641
ell 278, elapsed: 0.0008759498596191406
ell 272, elapsed: 0.0015931129455566406
ell 271, elapsed: 0.0008490085601806641
ell 270, elapsed: 0.0008170604705810547
ell 269, elapsed: 0.000782012939453125
ell 268, elapsed: 0.0008099079132080078
ell 262, elapsed: 0.0014472007751464844
ell 261, elapsed: 0.0007817745208740234
ell 260, elapsed: 0.0007710456848144531
ell 259, elapsed: 0.0007700920104980469
ell 258, elapsed: 0.0007610321044921875
ell 252, elapsed: 0.0014998912811279297
ell 251, elapsed: 0.016892194747924805
ell 250, elapsed: 0.0007839202880859375
ell 249, elapsed: 0.0007789134979248047
ell 248, elapsed: 0.0007729530334472656
ell 242, elapsed: 0.0015568733215332031
ell 241, elapsed: 0.0007748603820800781
ell 240, elapsed: 0.0007681846618652344
ell 239, elapsed: 0.0007710456848144531
ell 238, elapsed: 0.0007650852203369141
ell 232, elapsed: 0.0015230178833007812
ell 231, elapsed: 0.0007691383361816406
ell 230, elapsed: 0.0007691383361816406
ell 229, elapsed: 0.0007719993591308594
ell 228, elapsed: 0.0007851123809814453
ell 222, elapsed: 0.004592180252075195
ell 221, elapsed: 0.0007550716400146484
ell 220, elapsed: 0.0007598400115966797
ell 219, elapsed: 0.0007460117340087891
ell 218, elapsed: 0.0007660388946533203
ell 212, elapsed: 0.0013489723205566406
ell 211, elapsed: 0.0007300376892089844
ell 210, elapsed: 0.0007460117340087891
ell 209, elapsed: 0.0007510185241699219
ell 208, elapsed: 0.0007441043853759766
ell 202, elapsed: 0.0014259815216064453
ell 201, elapsed: 0.0007200241088867188
ell 200, elapsed: 0.0007538795471191406
ell 199, elapsed: 0.0007328987121582031
ell 198, elapsed: 0.0007500648498535156
ell 192, elapsed: 0.0013918876647949219
ell 191, elapsed: 0.0007841587066650391
ell 190, elapsed: 0.0007770061492919922
ell 189, elapsed: 0.0007469654083251953
ell 188, elapsed: 0.0007319450378417969
ell 182, elapsed: 0.0013628005981445312
ell 181, elapsed: 0.0007488727569580078
ell 180, elapsed: 0.0007419586181640625
ell 179, elapsed: 0.0007460117340087891
ell 178, elapsed: 0.0007548332214355469
ell 172, elapsed: 0.0015289783477783203
ell 171, elapsed: 0.0007779598236083984
ell 170, elapsed: 0.0007479190826416016
ell 169, elapsed: 0.0007350444793701172
ell 168, elapsed: 0.0008270740509033203
ell 162, elapsed: 0.0013239383697509766
ell 161, elapsed: 0.0007250308990478516
ell 160, elapsed: 0.0007309913635253906
ell 159, elapsed: 0.0007259845733642578
ell 158, elapsed: 0.0008699893951416016
ell 152, elapsed: 0.001383066177368164
ell 151, elapsed: 0.0007560253143310547
ell 150, elapsed: 0.0007448196411132812
ell 149, elapsed: 0.000823974609375
ell 148, elapsed: 0.0007619857788085938
ell 142, elapsed: 0.0013301372528076172
ell 141, elapsed: 0.0007359981536865234
ell 140, elapsed: 0.0007932186126708984
ell 139, elapsed: 0.0007560253143310547
ell 138, elapsed: 0.0007429122924804688
ell 132, elapsed: 0.0013859272003173828
ell 131, elapsed: 0.0007798671722412109
ell 130, elapsed: 0.0007441043853759766
ell 129, elapsed: 0.0007429122924804688
ell 128, elapsed: 0.0007359981536865234
ell 122, elapsed: 0.001397848129272461
ell 121, elapsed: 0.0007510185241699219
ell 120, elapsed: 0.000759124755859375
ell 119, elapsed: 0.0007600784301757812
ell 118, elapsed: 0.0007488727569580078
ell 112, elapsed: 0.0013251304626464844
ell 111, elapsed: 0.0007510185241699219
ell 110, elapsed: 0.0007598400115966797
ell 109, elapsed: 0.0007319450378417969
ell 108, elapsed: 0.0007560253143310547
ell 102, elapsed: 0.0013871192932128906
ell 101, elapsed: 0.0031888484954833984
ell 100, elapsed: 0.0032711029052734375
ell 99, elapsed: 0.003075122833251953
ell 98, elapsed: 0.003175020217895508
ell 92, elapsed: 0.005853891372680664
ell 91, elapsed: 0.0030660629272460938
ell 90, elapsed: 0.003239870071411133
ell 89, elapsed: 0.0029871463775634766
ell 88, elapsed: 0.0029671192169189453
ell 82, elapsed: 0.0057790279388427734
ell 81, elapsed: 0.002995014190673828
ell 80, elapsed: 0.0031881332397460938
ell 79, elapsed: 0.0031540393829345703
ell 78, elapsed: 0.0029621124267578125
ell 72, elapsed: 0.00580906867980957
ell 71, elapsed: 0.0030519962310791016
ell 70, elapsed: 0.0029561519622802734
ell 69, elapsed: 0.0031430721282958984
ell 68, elapsed: 0.0032072067260742188
ell 62, elapsed: 0.0060040950775146484
ell 61, elapsed: 0.003125905990600586
ell 60, elapsed: 0.003164052963256836
ell 59, elapsed: 0.0032248497009277344
ell 58, elapsed: 0.003122091293334961
ell 52, elapsed: 0.0058591365814208984
ell 51, elapsed: 0.0031728744506835938
ell 50, elapsed: 0.003217935562133789
ell 49, elapsed: 0.003183126449584961
ell 48, elapsed: 0.0030651092529296875
ell 42, elapsed: 0.0056209564208984375
ell 41, elapsed: 0.0029718875885009766
ell 40, elapsed: 0.0031728744506835938
ell 39, elapsed: 0.0030579566955566406
ell 38, elapsed: 0.003262042999267578
ell 32, elapsed: 0.005821943283081055
ell 31, elapsed: 0.0032351016998291016
ell 30, elapsed: 0.003186941146850586
ell 29, elapsed: 0.0030770301818847656
ell 28, elapsed: 0.0030639171600341797
ell 22, elapsed: 0.0059719085693359375
ell 21, elapsed: 0.002975940704345703
ell 20, elapsed: 0.0030710697174072266
ell 19, elapsed: 0.003081798553466797
ell 18, elapsed: 0.003197908401489258
ell 12, elapsed: 0.005872964859008789
ell 11, elapsed: 0.0029900074005126953
ell 10, elapsed: 0.003119945526123047
ell 9, elapsed: 0.003062009811401367
ell 8, elapsed: 0.003072977066040039
  0.837791 seconds (97.54 k allocations: 12.618 MiB)
elapsed: 0.003866910934448242
step:          0.062819 sec (0 allocations: 0 byte, 0.0% gc time)
swapping:      0.000705 sec (0 allocations: 0 byte, 0.0% gc time)
calc_Mellell!: 0.040967 sec (0 allocations: 0 byte, 0.0% gc time)
  t0 :  0.01131 sec (0 allocations: 0 byte, 0.0% gc time)
  tm2 : 0.072151 sec (0 allocations: 0 byte, 0.0% gc time)
  tm2s: 0.008393 sec (0 allocations: 0 byte, 0.0% gc time)
  tm4 : 0.190682 sec (0 allocations: 0 byte, 0.0% gc time)
  tp2 : 0.0 sec (0 allocations: 0 byte, 0.0% gc time)
  tp2s: 0.0 sec (0 allocations: 0 byte, 0.0% gc time)
  tp4 : 0.0 sec (0 allocations: 0 byte, 0.0% gc time)
calc_wtdll!:   0.579953 sec (48.6 k allocations: 11.096 MB, 0.0% gc time)
calc_wljj!:    0.055861 sec (69 allocations: 1.078 KB, 0.0% gc time)
mult_prefac!:  0.0 sec (0 allocations: 0 byte, 0.0% gc time)
convert:       0.0 sec (0 allocations: 0 byte, 0.0% gc time)
write:         0.038908 sec (0 allocations: 0 byte, 0.0% gc time)
test_rand_2f1: 0.0 sec (0 allocations: 0 byte, 0.0% gc time)
Closing outfile out/MlCache/MlCache.bin...   0.000009 seconds
xi, l=0, nu=0:   0.410176 seconds (603.14 k allocations: 32.986 MiB)
xi, l=0, nu=-2:  0.003123 seconds (114 allocations: 148.969 KiB)
Created 'out/xi.tsv'.
  q=1.1, R=0.6:	  0.923442 seconds (264.51 k allocations: 38.097 MiB)
  q=1.1, R=0.7:	  1.152044 seconds (276.48 k allocations: 40.118 MiB, 1.08% gc time)
  q=1.1, R=0.8:	  1.287187 seconds (271.73 k allocations: 39.310 MiB, 1.19% gc time)
  q=1.1, R=0.9:	  1.275600 seconds (266.62 k allocations: 38.459 MiB, 0.56% gc time)
  q=1.1, R=0.998:	 20.556993 seconds (114.96 k allocations: 7.588 MiB)
  q=1.1, R=1.0:	  0.003569 seconds (8.20 k allocations: 704.344 KiB)

ℓ = 1000
Δℓ = 4
ΔℓRg1 = -4
N = 4096
q = 1.1
kmin = 1.0e-5
kmax = 1000.0
χ0 = 0.001
RR = RR.tsv
ℓmax = ℓmax.bin
f21 = f21.bin
kmin = 1.0e-5
kmax = 1000.0
dlrec    = 4
dlrecRg1 = -4
Output size: 1573632 bytes = 0.0014655590057373047 GiB
Output size: 786816 bytes = 0.0007327795028686523 GiB
Reading 'out/F21EllCache'...   0.001327 seconds (198 allocations: 533.078 KiB)
ellmax: 1002
lmaxcache: 1000
fell[:,1,1] = ComplexF64[1.726292812820208e-224 - 4.2281979352226965e-240im, 1.7282693092099638e-224 - 4.233038955177178e-240im]
ell 1002, elapsed: 5.888938903808594e-5
ell 1001, elapsed: 0.0007410049438476562
ell 1000, elapsed: 0.0007221698760986328
ell 999, elapsed: 0.0051729679107666016
ell 998, elapsed: 0.005108833312988281
ell 44, elapsed: 0.7084271907806396
ell 43, elapsed: 0.0050580501556396484
ell 42, elapsed: 0.005027055740356445
ell 41, elapsed: 0.005038022994995117
ell 40, elapsed: 0.005064964294433594
  0.748154 seconds (5.05 k allocations: 329.422 KiB)
elapsed: 0.006211996078491211
step:          0.706512 sec (0 allocations: 0 byte, 0.0% gc time)
swapping:      0.000393 sec (0 allocations: 0 byte, 0.0% gc time)
calc_Mellell!: 0.001135 sec (0 allocations: 0 byte, 0.0% gc time)
  t0 :  0.000316 sec (0 allocations: 0 byte, 0.0% gc time)
  tm2 : 0.0088 sec (0 allocations: 0 byte, 0.0% gc time)
  tm2s: 0.000238 sec (0 allocations: 0 byte, 0.0% gc time)
  tm4 : 0.024581 sec (0 allocations: 0 byte, 0.0% gc time)
  tp2 : 0.0 sec (0 allocations: 0 byte, 0.0% gc time)
  tp2s: 0.0 sec (0 allocations: 0 byte, 0.0% gc time)
  tp4 : 0.0 sec (0 allocations: 0 byte, 0.0% gc time)
calc_wtdll!:   0.034072 sec (480 allocations: 52.5 KB, 0.0% gc time)
calc_wljj!:    0.001236 sec (1 allocations: 16 byte, 0.0% gc time)
mult_prefac!:  0.0 sec (0 allocations: 0 byte, 0.0% gc time)
convert:       0.0 sec (0 allocations: 0 byte, 0.0% gc time)
write:         0.000903 sec (0 allocations: 0 byte, 0.0% gc time)
test_rand_2f1: 0.0 sec (0 allocations: 0 byte, 0.0% gc time)
Closing outfile out/MlCache/MlCache.bin...   0.000008 seconds
  0.472227 seconds (38 allocations: 66.859 KiB)
make_phi():   0.011711 seconds (65 allocations: 275.984 KiB)
  0.047771 seconds (11.42 k allocations: 711.851 KiB)
tskip:       2.0e-6 sec (0 allocations: 0 byte, 0.0% gc time)
tread:       0.000918 sec (17 allocations: 1.266 KB, 0.0% gc time)
tmultphi:    0.000393 sec (0 allocations: 0 byte, 0.0% gc time)
tbrfft:      0.001439 sec (0 allocations: 0 byte, 0.0% gc time)
tmultprefac: 0.001281 sec (0 allocations: 0 byte, 0.0% gc time)
toutfunc:    0.000215 sec (0 allocations: 0 byte, 0.0% gc time)
Created 'out/wl42_jj00.tsv'.
Created 'out/wl42_jj02.tsv'.
    Testing TwoFAST tests passed 
