Julia Version 1.5.0-DEV.11
Commit 18783434e9 (2020-01-04 00:48 UTC)
Platform Info:
  OS: Linux (x86_64-pc-linux-gnu)
  CPU: Intel(R) Xeon(R) Silver 4114 CPU @ 2.20GHz
  WORD_SIZE: 64
  LIBM: libopenlibm
  LLVM: libLLVM-8.0.1 (ORCJIT, skylake)
Environment:
  JULIA_DEPOT_PATH = ::/usr/local/share/julia

 Resolving package versions...
 Installed URIParser ──────── v0.4.0
 Installed AbstractFFTs ───── v0.5.0
 Installed FFTW ───────────── v1.2.0
 Installed BinaryProvider ─── v0.5.8
 Installed SpecialFunctions ─ v0.8.0
 Installed AbstractAlgebra ── v0.7.1
 Installed Nemo ───────────── v0.15.1
 Installed Reexport ───────── v0.2.0
 Installed BinDeps ────────── v1.0.0
 Installed MKL_jll ────────── v2019.0.117+0
 Installed IntelOpenMP_jll ── v2018.0.3+0
 Installed IncGammaBeta ───── v0.1.0
 Installed FFTW_jll ───────── v3.3.9+3
 Installed TwoFAST ────────── v0.1.0
  Updating `~/.julia/environments/v1.5/Project.toml`
  [0dd23c3e] + TwoFAST v0.1.0
  Updating `~/.julia/environments/v1.5/Manifest.toml`
  [c3fe647b] + AbstractAlgebra v0.7.1
  [621f4979] + AbstractFFTs v0.5.0
  [9e28174c] + BinDeps v1.0.0
  [b99e7846] + BinaryProvider v0.5.8
  [7a1cc6ca] + FFTW v1.2.0
  [f5851436] + FFTW_jll v3.3.9+3
  [5087d2c0] + IncGammaBeta v0.1.0
  [1d5cc7b8] + IntelOpenMP_jll v2018.0.3+0
  [856f044c] + MKL_jll v2019.0.117+0
  [2edaba10] + Nemo v0.15.1
  [189a3867] + Reexport v0.2.0
  [276daf66] + SpecialFunctions v0.8.0
  [0dd23c3e] + TwoFAST v0.1.0
  [30578b45] + URIParser v0.4.0
  [2a0f44e3] + Base64 
  [ade2ca70] + Dates 
  [8bb1440f] + DelimitedFiles 
  [8ba89e20] + Distributed 
  [b77e0a4c] + InteractiveUtils 
  [76f85450] + LibGit2 
  [8f399da3] + Libdl 
  [37e2e46d] + LinearAlgebra 
  [56ddb016] + Logging 
  [d6f4376e] + Markdown 
  [a63ad114] + Mmap 
  [44cfe95a] + Pkg 
  [de0858da] + Printf 
  [3fa0cd96] + REPL 
  [9a3f8284] + Random 
  [ea8e919c] + SHA 
  [9e88b42a] + Serialization 
  [6462fe0b] + Sockets 
  [2f01184e] + SparseArrays 
  [8dfed614] + Test 
  [cf7118a7] + UUIDs 
  [4ec0a83e] + Unicode 
  Building FFTW ────────────→ `~/.julia/packages/FFTW/qqcBj/deps/build.log`
  Updating `/tmp/jl_vqy45Y/Project.toml`
 [no changes]
  Updating `/tmp/jl_vqy45Y/Manifest.toml`
 [no changes]
  Building SpecialFunctions → `~/.julia/packages/SpecialFunctions/ne2iw/deps/build.log`
  Updating `/tmp/jl_yIs4EO/Project.toml`
 [no changes]
  Updating `/tmp/jl_yIs4EO/Manifest.toml`
 [no changes]
  Building Nemo ────────────→ `~/.julia/packages/Nemo/qzx0m/deps/build.log`
  Updating `/tmp/jl_5TzmIf/Project.toml`
 [no changes]
  Updating `/tmp/jl_5TzmIf/Manifest.toml`
 [no changes]
   Testing TwoFAST
 Installed Dierckx ─ v0.4.1
  Updating `/tmp/jl_wlLBHq/Project.toml`
  [39dd38d3] + Dierckx v0.4.1
  Updating `/tmp/jl_wlLBHq/Manifest.toml`
  [39dd38d3] + Dierckx v0.4.1
  Building Dierckx → `~/.julia/packages/Dierckx/9SY4A/deps/build.log`
  Updating `/tmp/jl_CBbuCO/Project.toml`
 [no changes]
  Updating `/tmp/jl_CBbuCO/Manifest.toml`
 [no changes]
Running sandbox
Status `/tmp/jl_wlLBHq/Project.toml`
  [39dd38d3] Dierckx v0.4.1
  [7a1cc6ca] FFTW v1.2.0
  [5087d2c0] IncGammaBeta v0.1.0
  [2edaba10] Nemo v0.15.1
  [276daf66] SpecialFunctions v0.8.0
  [0dd23c3e] TwoFAST v0.1.0
  [8bb1440f] DelimitedFiles 
  [37e2e46d] LinearAlgebra 
  [56ddb016] Logging 
  [8dfed614] Test 

Welcome to Nemo version 0.15.1

Nemo comes with absolutely no warranty whatsoever


Welcome to Nemo version 0.15.1

Nemo comes with absolutely no warranty whatsoever

Testing ξ(r), ℓ=0, ν=-1 ... passed
Testing ξ(r), ℓ=0, ν=0 ... passed
Testing ξ(r), ℓ=0, ν=1 ... passed
Testing ξ(r), ℓ=0, ν=2 ... passed
Testing ξ(r), ℓ=0, ν=3 ... passed
Testing ξ(r), ℓ=1, ν=0 ... passed
Testing ξ(r), ℓ=1, ν=1 ... passed
Testing ξ(r), ℓ=1, ν=2 ... passed
Testing ξ(r), ℓ=1, ν=3 ... passed
Testing ξ(r), ℓ=2, ν=-1 ... passed
Testing ξ(r), ℓ=2, ν=0 ... passed
Testing ξ(r), ℓ=2, ν=1 ... passed
Testing ξ(r), ℓ=2, ν=2 ... passed
Testing ξ(r), ℓ=2, ν=3 ... passed
Testing ξ(r), ℓ=3, ν=-1 ... passed
Testing ξ(r), ℓ=3, ν=0 ... passed
Testing ξ(r), ℓ=3, ν=1 ... passed
Testing ξ(r), ℓ=3, ν=2 ... passed
Testing ξ(r), ℓ=3, ν=3 ... passed
Testing ξ(r), ℓ=4, ν=-1 ... passed
Testing ξ(r), ℓ=4, ν=0 ... passed
Testing ξ(r), ℓ=4, ν=1 ... passed
Testing ξ(r), ℓ=4, ν=2 ... passed
Testing ξ(r), ℓ=4, ν=3 ... passed
Testing ξ(r) ... passed
Testing ξ′(r) ... passed
Testing ξ″(r) ... passed
Calculating fmax: 
  dlrec    = 4
  dlrecRg1 = -4
  q=1.1, R=1.1:	  4.913874 seconds (1.20 M allocations: 67.954 MiB, 1.13% gc time)

  4.971397 seconds (1.22 M allocations: 69.065 MiB, 1.11% gc time)
ℓ = 1202
Δℓ = 4
ΔℓRg1 = -4
N = 1600
q = 1.1
kmin = 1.0e-5
kmax = 100000.00000000004
χ0 = 0.023029999999999995
RR = RR.tsv
ℓmax = ℓmax.bin
f21 = f21.bin
kmin = 1.0e-5
kmax = 100000.0
dlrec    = 4
dlrecRg1 = -4
Output size: 5741568 bytes = 0.005347251892089844 GiB
Output size: 51264 bytes = 4.774332046508789e-5 GiB
Reading 'out/F21EllCache'...   0.596479 seconds (318.67 k allocations: 16.380 MiB)
ellmax: 1202
lmaxcache: 1202
fell[:,1,1] = Complex{Float64}[3.9583795592771634e-52 - 9.695233714158177e-68im, 3.990121772925759e-52 - 9.772979714843386e-68im]
ell 1202, elapsed: 8.702278137207031e-5
ell 1201, elapsed: 2.2740700244903564
ell 1200, elapsed: 0.0005979537963867188
ell 1199, elapsed: 0.0005059242248535156
ell 1198, elapsed: 0.0005209445953369141
ell 1002, elapsed: 0.009556055068969727
ell 1001, elapsed: 0.0006098747253417969
ell 1000, elapsed: 0.0004868507385253906
ell 999, elapsed: 0.0004839897155761719
ell 998, elapsed: 0.0004780292510986328
ell 902, elapsed: 0.005450010299682617
ell 901, elapsed: 0.0004849433898925781
ell 900, elapsed: 0.00048804283142089844
ell 899, elapsed: 0.00047397613525390625
ell 898, elapsed: 0.0018160343170166016
ell 802, elapsed: 0.004948139190673828
ell 801, elapsed: 0.0007939338684082031
ell 800, elapsed: 0.0004851818084716797
ell 799, elapsed: 0.00046706199645996094
ell 798, elapsed: 0.0004661083221435547
ell 702, elapsed: 0.004884004592895508
ell 701, elapsed: 0.0005049705505371094
ell 700, elapsed: 0.0006000995635986328
ell 699, elapsed: 0.0005228519439697266
ell 698, elapsed: 0.0005319118499755859
ell 602, elapsed: 0.004917144775390625
ell 601, elapsed: 0.0005018711090087891
ell 600, elapsed: 0.0004780292510986328
ell 599, elapsed: 0.006011962890625
ell 598, elapsed: 0.0005011558532714844
ell 502, elapsed: 0.00497889518737793
ell 501, elapsed: 0.0004978179931640625
ell 500, elapsed: 0.0004839897155761719
ell 499, elapsed: 0.0004780292510986328
ell 498, elapsed: 0.0004889965057373047
ell 402, elapsed: 0.005102872848510742
ell 401, elapsed: 0.0005049705505371094
ell 400, elapsed: 0.0004870891571044922
ell 399, elapsed: 0.0004930496215820312
ell 398, elapsed: 0.00047206878662109375
ell 302, elapsed: 0.004889965057373047
ell 301, elapsed: 0.0005021095275878906
ell 300, elapsed: 0.0004811286926269531
ell 299, elapsed: 0.0004909038543701172
ell 298, elapsed: 0.00047206878662109375
ell 202, elapsed: 0.005059003829956055
ell 201, elapsed: 0.0004961490631103516
ell 200, elapsed: 0.0004839897155761719
ell 199, elapsed: 0.0004699230194091797
ell 198, elapsed: 0.00047707557678222656
ell 152, elapsed: 0.002568960189819336
ell 151, elapsed: 0.0004940032958984375
ell 150, elapsed: 0.00047707557678222656
ell 149, elapsed: 0.0004930496215820312
ell 148, elapsed: 0.0004868507385253906
ell 127, elapsed: 0.0016160011291503906
ell 126, elapsed: 0.0004949569702148438
ell 125, elapsed: 0.0004820823669433594
ell 124, elapsed: 0.0004761219024658203
ell 123, elapsed: 0.000476837158203125
ell 114, elapsed: 0.0008978843688964844
ell 113, elapsed: 0.00047707557678222656
ell 112, elapsed: 0.00047707557678222656
ell 111, elapsed: 0.0004801750183105469
ell 110, elapsed: 0.00047707557678222656
ell 102, elapsed: 0.0009400844573974609
ell 101, elapsed: 0.0004799365997314453
ell 100, elapsed: 0.0004990100860595703
ell 99, elapsed: 0.0004830360412597656
ell 98, elapsed: 0.00048089027404785156
ell 97, elapsed: 0.0005240440368652344
ell 96, elapsed: 0.0006070137023925781
ell 95, elapsed: 0.0005240440368652344
ell 94, elapsed: 0.0005991458892822266
ell 93, elapsed: 0.0006251335144042969
ell 92, elapsed: 0.0006020069122314453
ell 91, elapsed: 0.00051116943359375
ell 90, elapsed: 0.0005910396575927734
ell 89, elapsed: 0.0005171298980712891
ell 88, elapsed: 0.0006229877471923828
ell 87, elapsed: 0.0005669593811035156
ell 86, elapsed: 0.0006871223449707031
ell 85, elapsed: 0.000518798828125
ell 84, elapsed: 0.0005929470062255859
ell 83, elapsed: 0.0005159378051757812
ell 82, elapsed: 0.0005919933319091797
ell 81, elapsed: 0.0005180835723876953
ell 80, elapsed: 0.0006029605865478516
ell 79, elapsed: 0.0005140304565429688
ell 78, elapsed: 0.0005841255187988281
ell 77, elapsed: 0.0005099773406982422
ell 76, elapsed: 0.0006039142608642578
ell 75, elapsed: 0.0005140304565429688
ell 74, elapsed: 0.0005981922149658203
ell 73, elapsed: 0.0005190372467041016
ell 72, elapsed: 0.0005900859832763672
ell 71, elapsed: 0.0005118846893310547
ell 70, elapsed: 0.0005772113800048828
ell 69, elapsed: 0.000514984130859375
ell 68, elapsed: 0.0005991458892822266
ell 67, elapsed: 0.0005109310150146484
ell 66, elapsed: 0.0006060600280761719
ell 65, elapsed: 0.0005090236663818359
ell 64, elapsed: 0.00061798095703125
ell 63, elapsed: 0.0005831718444824219
ell 62, elapsed: 0.0005991458892822266
ell 61, elapsed: 0.0005221366882324219
ell 60, elapsed: 0.0005960464477539062
ell 59, elapsed: 0.0005350112915039062
ell 58, elapsed: 0.0005848407745361328
ell 57, elapsed: 0.000514984130859375
ell 56, elapsed: 0.0005960464477539062
ell 55, elapsed: 0.0005199909210205078
ell 54, elapsed: 0.0006120204925537109
ell 53, elapsed: 0.0005280971527099609
ell 52, elapsed: 0.0006029605865478516
ell 51, elapsed: 0.000514984130859375
ell 50, elapsed: 0.000598907470703125
ell 49, elapsed: 0.0005171298980712891
ell 48, elapsed: 0.0006010532379150391
ell 47, elapsed: 0.0005130767822265625
ell 46, elapsed: 0.0006079673767089844
ell 45, elapsed: 0.0005140304565429688
ell 44, elapsed: 0.0005919933319091797
ell 43, elapsed: 0.0005199909210205078
ell 42, elapsed: 0.0005939006805419922
ell 41, elapsed: 0.0005168914794921875
ell 40, elapsed: 0.0005941390991210938
ell 39, elapsed: 0.0005350112915039062
ell 38, elapsed: 0.0005979537963867188
ell 37, elapsed: 0.0005178451538085938
ell 36, elapsed: 0.0005960464477539062
ell 35, elapsed: 0.0005261898040771484
ell 34, elapsed: 0.0006060600280761719
ell 33, elapsed: 0.0005261898040771484
ell 32, elapsed: 0.0006129741668701172
ell 31, elapsed: 0.0005290508270263672
ell 30, elapsed: 0.0005970001220703125
ell 29, elapsed: 0.0005249977111816406
ell 28, elapsed: 0.0006008148193359375
ell 27, elapsed: 0.0005679130554199219
ell 26, elapsed: 0.0008308887481689453
ell 25, elapsed: 0.0005080699920654297
ell 24, elapsed: 0.0005869865417480469
ell 23, elapsed: 0.0004999637603759766
ell 22, elapsed: 0.0005929470062255859
ell 21, elapsed: 0.0005090236663818359
ell 20, elapsed: 0.0005910396575927734
ell 19, elapsed: 0.0005929470062255859
ell 18, elapsed: 0.0006198883056640625
ell 17, elapsed: 0.0005829334259033203
ell 16, elapsed: 0.0005869865417480469
ell 15, elapsed: 0.0005180835723876953
ell 14, elapsed: 0.0005939006805419922
ell 13, elapsed: 0.0005929470062255859
ell 12, elapsed: 0.0005810260772705078
ell 11, elapsed: 0.0005109310150146484
ell 10, elapsed: 0.0005791187286376953
ell 9, elapsed: 0.0005130767822265625
ell 8, elapsed: 0.0005819797515869141
ell 7, elapsed: 0.0005190372467041016
ell 6, elapsed: 0.0006809234619140625
ell 5, elapsed: 0.0005190372467041016
ell 4, elapsed: 0.0005898475646972656
ell 3, elapsed: 0.0005180835723876953
ell 2, elapsed: 0.0005979537963867188
ell 1, elapsed: 0.0005171298980712891
ell 0, elapsed: 0.0005948543548583984
  3.145486 seconds (1.75 M allocations: 85.479 MiB, 0.84% gc time)
elapsed: 0.0007109642028808594
step:          0.724895 sec (402.561 k allocations: 20.278 MB, 0.0% gc time)
swapping:      0.000559 sec (0 allocations: 0 byte, 0.0% gc time)
calc_Mellell!: 0.603587 sec (296.399 k allocations: 14.958 MB, 0.0% gc time)
  t0 :  0.0 sec (0 allocations: 0 byte, 0.0% gc time)
  tm2 : 0.0 sec (0 allocations: 0 byte, 0.0% gc time)
  tm2s: 0.0 sec (0 allocations: 0 byte, 0.0% gc time)
  tm4 : 0.0 sec (0 allocations: 0 byte, 0.0% gc time)
  tp2 : 0.0 sec (0 allocations: 0 byte, 0.0% gc time)
  tp2s: 0.0 sec (0 allocations: 0 byte, 0.0% gc time)
  tp4 : 0.0 sec (0 allocations: 0 byte, 0.0% gc time)
calc_wtdll!:   1.076081 sec (525.864 k allocations: 26.379 MB, 2.46% gc time)
calc_wljj!:    0.003446 sec (6 allocations: 96 byte, 0.0% gc time)
mult_prefac!:  0.0 sec (0 allocations: 0 byte, 0.0% gc time)
convert:       0.0 sec (0 allocations: 0 byte, 0.0% gc time)
write:         0.005119 sec (0 allocations: 0 byte, 0.0% gc time)
test_rand_2f1: 0.0 sec (0 allocations: 0 byte, 0.0% gc time)
Closing outfile out/Ml21-cache.bin...   0.000129 seconds
  1.019153 seconds (8.66 k allocations: 420.969 KiB)
make_phi():   0.013717 seconds (8.20 k allocations: 238.016 KiB)
  0.214895 seconds (121.69 k allocations: 5.901 MiB)
tskip:       2.2e-5 sec (0 allocations: 0 byte, 0.0% gc time)
tread:       0.002019 sec (19 allocations: 2.172 KB, 0.0% gc time)
tmultphi:    0.040981 sec (26.022 k allocations: 1.338 MB, 0.0% gc time)
tbrfft:      0.004211 sec (896 allocations: 42.0 KB, 0.0% gc time)
tmultprefac: 0.003975 sec (0 allocations: 0 byte, 0.0% gc time)
toutfunc:    0.163621 sec (94.102 k allocations: 4.45 MB, 0.0% gc time)
Testing R=1.1 ... passed
Calculating fmax: 
  dlrec    = 4
  dlrecRg1 = -4
  q=1.1, R=1.0:	  0.001680 seconds (4.00 k allocations: 300.375 KiB)

  0.002712 seconds (4.04 k allocations: 334.734 KiB)
ℓ = 1202
Δℓ = 4
ΔℓRg1 = -4
N = 1600
q = 1.1
kmin = 1.0e-5
kmax = 100000.00000000004
χ0 = 0.023029999999999995
RR = RR.tsv
ℓmax = ℓmax.bin
f21 = f21.bin
kmin = 1.0e-5
kmax = 100000.0
dlrec    = 4
dlrecRg1 = -4
Output size: 61465536 bytes = 0.05724424123764038 GiB
Output size: 51264 bytes = 4.774332046508789e-5 GiB
Reading 'out/F21EllCache'...   0.001328 seconds (267 allocations: 84.656 KiB)
ellmax: 1202
lmaxcache: 1202
fell[:,1,1] = Complex{Float64}[809.6031528389767 - 1.9829558194077161e-13im, 0.0 + 0.0im]
ell 1202, elapsed: 2.5987625122070312e-5
ell 1201, elapsed: 0.014184951782226562
ell 1200, elapsed: 0.0005040168762207031
ell 1199, elapsed: 0.0003628730773925781
ell 1198, elapsed: 0.0003581047058105469
ell 1197, elapsed: 0.0004088878631591797
ell 1196, elapsed: 0.0004048347473144531
ell 1195, elapsed: 0.0004971027374267578
ell 1194, elapsed: 0.0005238056182861328
ell 1193, elapsed: 0.0006191730499267578
ell 1192, elapsed: 0.0004000663757324219
ell 1191, elapsed: 0.0004868507385253906
ell 1190, elapsed: 0.00039887428283691406
ell 1189, elapsed: 0.0004839897155761719
ell 1188, elapsed: 0.0004019737243652344
ell 1187, elapsed: 0.00048422813415527344
ell 1186, elapsed: 0.0004057884216308594
ell 1185, elapsed: 0.0005011558532714844
ell 1184, elapsed: 0.0003991127014160156
ell 1183, elapsed: 0.0004839897155761719
ell 1182, elapsed: 0.0004029273986816406
ell 1181, elapsed: 0.0004818439483642578
ell 1180, elapsed: 0.0004029273986816406
ell 1179, elapsed: 0.00046896934509277344
ell 1178, elapsed: 0.0003731250762939453
ell 1177, elapsed: 0.0005049705505371094
ell 1176, elapsed: 0.0003960132598876953
ell 1175, elapsed: 0.0005350112915039062
ell 1174, elapsed: 0.0004379749298095703
ell 1173, elapsed: 0.0005469322204589844
ell 1172, elapsed: 0.00045299530029296875
ell 1171, elapsed: 0.0005669593811035156
ell 1170, elapsed: 0.0004379749298095703
ell 1169, elapsed: 0.0005290508270263672
ell 1168, elapsed: 0.0004570484161376953
ell 1167, elapsed: 0.0006110668182373047
ell 1166, elapsed: 0.00043892860412597656
ell 1165, elapsed: 0.0005440711975097656
ell 1164, elapsed: 0.00043702125549316406
ell 1163, elapsed: 0.0005269050598144531
ell 1162, elapsed: 0.00043702125549316406
ell 1161, elapsed: 0.0005290508270263672
ell 1160, elapsed: 0.0004398822784423828
ell 1159, elapsed: 0.0005359649658203125
ell 1158, elapsed: 0.0004589557647705078
ell 1157, elapsed: 0.0005290508270263672
ell 1156, elapsed: 0.0004360675811767578
ell 1155, elapsed: 0.0005469322204589844
ell 1154, elapsed: 0.0004429817199707031
ell 1153, elapsed: 0.0005381107330322266
ell 1152, elapsed: 0.00045800209045410156
ell 1151, elapsed: 0.0005290508270263672
ell 1150, elapsed: 0.0004417896270751953
ell 1149, elapsed: 0.0005230903625488281
ell 1148, elapsed: 0.0004558563232421875
ell 1147, elapsed: 0.0005309581756591797
ell 1146, elapsed: 0.0004601478576660156
ell 1145, elapsed: 0.0005500316619873047
ell 1144, elapsed: 0.0004429817199707031
ell 1143, elapsed: 0.0005249977111816406
ell 1142, elapsed: 0.00045800209045410156
ell 1141, elapsed: 0.0005300045013427734
ell 1140, elapsed: 0.0004589557647705078
ell 1139, elapsed: 0.0005509853363037109
ell 1138, elapsed: 0.0004439353942871094
ell 1137, elapsed: 0.0005309581756591797
ell 1136, elapsed: 0.0004410743713378906
ell 1135, elapsed: 0.0005571842193603516
ell 1134, elapsed: 0.0004451274871826172
ell 1133, elapsed: 0.0005340576171875
ell 1132, elapsed: 0.0004429817199707031
ell 1131, elapsed: 0.0005209445953369141
ell 1130, elapsed: 0.00044417381286621094
ell 1129, elapsed: 0.0005409717559814453
ell 1128, elapsed: 0.0004520416259765625
ell 1127, elapsed: 0.0005350112915039062
ell 1126, elapsed: 0.00043892860412597656
ell 1125, elapsed: 0.0005431175231933594
ell 1124, elapsed: 0.00044083595275878906
ell 1123, elapsed: 0.0005519390106201172
ell 1122, elapsed: 0.0004458427429199219
ell 1121, elapsed: 0.0005550384521484375
ell 1120, elapsed: 0.000453948974609375
ell 1119, elapsed: 0.0005528926849365234
ell 1118, elapsed: 0.00044417381286621094
ell 1117, elapsed: 0.0005471706390380859
ell 1116, elapsed: 0.0005710124969482422
ell 1115, elapsed: 0.0007519721984863281
ell 1114, elapsed: 0.0004551410675048828
ell 1113, elapsed: 0.0005459785461425781
ell 1112, elapsed: 0.00045800209045410156
ell 1111, elapsed: 0.0005300045013427734
ell 1110, elapsed: 0.0004570484161376953
ell 1109, elapsed: 0.0005390644073486328
ell 1108, elapsed: 0.00043892860412597656
ell 1107, elapsed: 0.0005271434783935547
ell 1106, elapsed: 0.0004520416259765625
ell 1105, elapsed: 0.0005190372467041016
ell 1104, elapsed: 0.00043511390686035156
ell 1103, elapsed: 0.0005309581756591797
ell 1102, elapsed: 0.00045490264892578125
ell 1101, elapsed: 0.0005447864532470703
ell 1100, elapsed: 0.00046181678771972656
ell 1099, elapsed: 0.0005340576171875
ell 1098, elapsed: 0.0004520416259765625
ell 1097, elapsed: 0.0005509853363037109
ell 1096, elapsed: 0.00046515464782714844
ell 1095, elapsed: 0.0005369186401367188
ell 1094, elapsed: 0.0004558563232421875
ell 1093, elapsed: 0.0005509853363037109
ell 1092, elapsed: 0.0004611015319824219
ell 1091, elapsed: 0.0005331039428710938
ell 1090, elapsed: 0.0004410743713378906
ell 1089, elapsed: 0.0005269050598144531
ell 1088, elapsed: 0.0004489421844482422
ell 1087, elapsed: 0.0005450248718261719
ell 1086, elapsed: 0.00045490264892578125
ell 1085, elapsed: 0.0005350112915039062
ell 1084, elapsed: 0.00044608116149902344
ell 1083, elapsed: 0.0008070468902587891
ell 1082, elapsed: 0.0004470348358154297
ell 1081, elapsed: 0.0005259513854980469
ell 1080, elapsed: 0.00045990943908691406
ell 1079, elapsed: 0.0005490779876708984
ell 1078, elapsed: 0.0005590915679931641
ell 1077, elapsed: 0.0006039142608642578
ell 1076, elapsed: 0.00045013427734375
ell 1075, elapsed: 0.0005269050598144531
ell 1074, elapsed: 0.00043582916259765625
ell 1073, elapsed: 0.0005288124084472656
ell 1072, elapsed: 0.0004470348358154297
ell 1071, elapsed: 0.0005230903625488281
ell 1070, elapsed: 0.0004432201385498047
ell 1069, elapsed: 0.0005371570587158203
ell 1068, elapsed: 0.0004317760467529297
ell 1067, elapsed: 0.0005431175231933594
ell 1066, elapsed: 0.0004279613494873047
ell 1065, elapsed: 0.0005199909210205078
ell 1064, elapsed: 0.0004398822784423828
ell 1063, elapsed: 0.0005240440368652344
ell 1062, elapsed: 0.0005469322204589844
ell 1061, elapsed: 0.0005888938903808594
ell 1060, elapsed: 0.00045299530029296875
ell 1059, elapsed: 0.0005249977111816406
ell 1058, elapsed: 0.0004601478576660156
ell 1057, elapsed: 0.0005428791046142578
ell 1056, elapsed: 0.0004360675811767578
ell 1055, elapsed: 0.0005528926849365234
ell 1054, elapsed: 0.00045108795166015625
ell 1053, elapsed: 0.0005228519439697266
ell 1052, elapsed: 0.0004551410675048828
ell 1051, elapsed: 0.0005171298980712891
ell 1050, elapsed: 0.00043392181396484375
ell 1049, elapsed: 0.0005140304565429688
ell 1048, elapsed: 0.0004420280456542969
ell 1047, elapsed: 0.0006589889526367188
ell 1046, elapsed: 0.0004639625549316406
ell 1045, elapsed: 0.0005238056182861328
ell 1044, elapsed: 0.00045299530029296875
ell 1043, elapsed: 0.0007159709930419922
ell 1042, elapsed: 0.0004649162292480469
ell 1041, elapsed: 0.0005528926849365234
ell 1040, elapsed: 0.0004417896270751953
ell 1039, elapsed: 0.0005230903625488281
ell 1038, elapsed: 0.0004401206970214844
ell 1037, elapsed: 0.0005421638488769531
ell 1036, elapsed: 0.00043702125549316406
ell 1035, elapsed: 0.0005209445953369141
ell 1034, elapsed: 0.00044417381286621094
ell 1033, elapsed: 0.0005340576171875
ell 1032, elapsed: 0.00045490264892578125
ell 1031, elapsed: 0.0005180835723876953
ell 1030, elapsed: 0.0006160736083984375
ell 1029, elapsed: 0.0005700588226318359
ell 1028, elapsed: 0.0005631446838378906
ell 1027, elapsed: 0.0005991458892822266
ell 1026, elapsed: 0.00047087669372558594
ell 1025, elapsed: 0.0005288124084472656
ell 1024, elapsed: 0.0004429817199707031
ell 1023, elapsed: 0.0005719661712646484
ell 1022, elapsed: 0.0005600452423095703
ell 1021, elapsed: 0.0006139278411865234
ell 1020, elapsed: 0.00044083595275878906
ell 1019, elapsed: 0.00047707557678222656
ell 1018, elapsed: 0.0003981590270996094
ell 1017, elapsed: 0.00047898292541503906
ell 1016, elapsed: 0.0003991127014160156
ell 1015, elapsed: 0.0004742145538330078
ell 1014, elapsed: 0.0004000663757324219
ell 1013, elapsed: 0.0004820823669433594
ell 1012, elapsed: 0.0003979206085205078
ell 1011, elapsed: 0.0004940032958984375
ell 1010, elapsed: 0.0003979206085205078
ell 1009, elapsed: 0.0004680156707763672
ell 1008, elapsed: 0.000392913818359375
ell 1007, elapsed: 0.0004818439483642578
ell 1006, elapsed: 0.00039696693420410156
ell 1005, elapsed: 0.0004830360412597656
ell 1004, elapsed: 0.0003960132598876953
ell 1003, elapsed: 0.0004870891571044922
ell 1002, elapsed: 0.00039887428283691406
ell 1001, elapsed: 0.00047087669372558594
ell 1000, elapsed: 0.00040793418884277344
ell 999, elapsed: 0.0006151199340820312
ell 998, elapsed: 0.0004830360412597656
ell 997, elapsed: 0.0004680156707763672
ell 996, elapsed: 0.00039386749267578125
ell 995, elapsed: 0.0004839897155761719
ell 994, elapsed: 0.00039696693420410156
ell 993, elapsed: 0.0004680156707763672
ell 992, elapsed: 0.0003941059112548828
ell 991, elapsed: 0.00046896934509277344
ell 990, elapsed: 0.0003960132598876953
ell 989, elapsed: 0.0004649162292480469
ell 988, elapsed: 0.00039505958557128906
ell 987, elapsed: 0.0004699230194091797
ell 986, elapsed: 0.0004570484161376953
ell 985, elapsed: 0.0007460117340087891
ell 984, elapsed: 0.0006232261657714844
ell 983, elapsed: 0.0005750656127929688
ell 982, elapsed: 0.0005040168762207031
ell 981, elapsed: 0.0007450580596923828
ell 980, elapsed: 0.0006439685821533203
ell 979, elapsed: 0.0006430149078369141
ell 978, elapsed: 0.0005688667297363281
ell 977, elapsed: 0.0007359981536865234
ell 976, elapsed: 0.0004889965057373047
ell 975, elapsed: 0.0006361007690429688
ell 974, elapsed: 0.0004971027374267578
ell 973, elapsed: 0.0006399154663085938
ell 972, elapsed: 0.0006821155548095703
ell 971, elapsed: 0.0008230209350585938
ell 970, elapsed: 0.0005819797515869141
ell 969, elapsed: 0.0007939338684082031
ell 968, elapsed: 0.0006840229034423828
ell 967, elapsed: 0.00061798095703125
ell 966, elapsed: 0.0005879402160644531
ell 965, elapsed: 0.0009210109710693359
ell 964, elapsed: 0.0006740093231201172
ell 963, elapsed: 0.0008170604705810547
ell 962, elapsed: 0.0006411075592041016
ell 961, elapsed: 0.00080108642578125
ell 960, elapsed: 0.0006759166717529297
ell 959, elapsed: 0.0007970333099365234
ell 958, elapsed: 0.0006761550903320312
ell 957, elapsed: 0.0008249282836914062
ell 956, elapsed: 0.0006480216979980469
ell 955, elapsed: 0.0007817745208740234
ell 954, elapsed: 0.0006492137908935547
ell 953, elapsed: 0.0007641315460205078
ell 952, elapsed: 0.0006299018859863281
ell 951, elapsed: 0.0007631778717041016
ell 950, elapsed: 0.0006089210510253906
ell 949, elapsed: 0.0005431175231933594
ell 948, elapsed: 0.0005371570587158203
ell 947, elapsed: 0.0006248950958251953
ell 946, elapsed: 0.0006589889526367188
ell 945, elapsed: 0.0008399486541748047
ell 944, elapsed: 0.0005490779876708984
ell 943, elapsed: 0.0008318424224853516
ell 942, elapsed: 0.0005979537963867188
ell 941, elapsed: 0.0008230209350585938
ell 940, elapsed: 0.000698089599609375
ell 939, elapsed: 0.0008471012115478516
ell 938, elapsed: 0.0006530284881591797
ell 937, elapsed: 0.0007560253143310547
ell 936, elapsed: 0.0005919933319091797
ell 935, elapsed: 0.0008330345153808594
ell 934, elapsed: 0.00045108795166015625
ell 933, elapsed: 0.0006561279296875
ell 932, elapsed: 0.0006070137023925781
ell 931, elapsed: 0.0006132125854492188
ell 930, elapsed: 0.0004680156707763672
ell 929, elapsed: 0.0006630420684814453
ell 928, elapsed: 0.0005631446838378906
ell 927, elapsed: 0.0005698204040527344
ell 926, elapsed: 0.0004620552062988281
ell 925, elapsed: 0.0007410049438476562
ell 924, elapsed: 0.0005671977996826172
ell 923, elapsed: 0.0006651878356933594
ell 922, elapsed: 0.00047206878662109375
ell 921, elapsed: 0.00047707557678222656
ell 920, elapsed: 0.00039505958557128906
ell 919, elapsed: 0.0004830360412597656
ell 918, elapsed: 0.00039196014404296875
ell 917, elapsed: 0.0007119178771972656
ell 916, elapsed: 0.0006139278411865234
ell 915, elapsed: 0.0005629062652587891
ell 914, elapsed: 0.0005609989166259766
ell 913, elapsed: 0.0005550384521484375
ell 912, elapsed: 0.0005548000335693359
ell 911, elapsed: 0.0008780956268310547
ell 910, elapsed: 0.00049591064453125
ell 909, elapsed: 0.0006380081176757812
ell 908, elapsed: 0.0006120204925537109
ell 907, elapsed: 0.00074005126953125
ell 906, elapsed: 0.0005278587341308594
ell 905, elapsed: 0.0008180141448974609
ell 904, elapsed: 0.0005059242248535156
ell 903, elapsed: 0.0006070137023925781
ell 902, elapsed: 0.0005211830139160156
ell 901, elapsed: 0.0005779266357421875
ell 900, elapsed: 0.0006258487701416016
ell 899, elapsed: 0.0008449554443359375
ell 898, elapsed: 0.0006079673767089844
ell 897, elapsed: 0.0006711483001708984
ell 896, elapsed: 0.0003960132598876953
ell 895, elapsed: 0.00047898292541503906
ell 894, elapsed: 0.0003960132598876953
ell 893, elapsed: 0.000637054443359375
ell 892, elapsed: 0.0005509853363037109
ell 891, elapsed: 0.00048089027404785156
ell 890, elapsed: 0.0003981590270996094
ell 889, elapsed: 0.0004742145538330078
ell 888, elapsed: 0.00039696693420410156
ell 887, elapsed: 0.0004718303680419922
ell 886, elapsed: 0.0004010200500488281
ell 885, elapsed: 0.00047397613525390625
ell 884, elapsed: 0.0003948211669921875
ell 883, elapsed: 0.0004849433898925781
ell 882, elapsed: 0.0003960132598876953
ell 881, elapsed: 0.00048089027404785156
ell 880, elapsed: 0.0004010200500488281
ell 879, elapsed: 0.0004780292510986328
ell 878, elapsed: 0.0004000663757324219
ell 877, elapsed: 0.0004780292510986328
ell 876, elapsed: 0.00039696693420410156
ell 875, elapsed: 0.0005879402160644531
ell 874, elapsed: 0.0004010200500488281
ell 873, elapsed: 0.00047206878662109375
ell 872, elapsed: 0.0003960132598876953
ell 871, elapsed: 0.0004749298095703125
ell 870, elapsed: 0.000392913818359375
ell 869, elapsed: 0.0004718303680419922
ell 868, elapsed: 0.00039386749267578125
ell 867, elapsed: 0.0005888938903808594
ell 866, elapsed: 0.0004000663757324219
ell 865, elapsed: 0.0004761219024658203
ell 864, elapsed: 0.00039696693420410156
ell 863, elapsed: 0.00047087669372558594
ell 862, elapsed: 0.0003960132598876953
ell 861, elapsed: 0.00047707557678222656
ell 860, elapsed: 0.0003941059112548828
ell 859, elapsed: 0.0004849433898925781
ell 858, elapsed: 0.0004088878631591797
ell 857, elapsed: 0.0004990100860595703
ell 856, elapsed: 0.0004100799560546875
ell 855, elapsed: 0.0004851818084716797
ell 854, elapsed: 0.00039505958557128906
ell 853, elapsed: 0.00046896934509277344
ell 852, elapsed: 0.0003960132598876953
ell 851, elapsed: 0.0004699230194091797
ell 850, elapsed: 0.0004990100860595703
ell 849, elapsed: 0.0004849433898925781
ell 848, elapsed: 0.0003941059112548828
ell 847, elapsed: 0.000476837158203125
ell 846, elapsed: 0.000392913818359375
ell 845, elapsed: 0.0004999637603759766
ell 844, elapsed: 0.00038814544677734375
ell 843, elapsed: 0.0004811286926269531
ell 842, elapsed: 0.0005099773406982422
ell 841, elapsed: 0.0004799365997314453
ell 840, elapsed: 0.0003960132598876953
ell 839, elapsed: 0.00047898292541503906
ell 838, elapsed: 0.0003941059112548828
ell 837, elapsed: 0.0004780292510986328
ell 836, elapsed: 0.00039386749267578125
ell 835, elapsed: 0.00048613548278808594
ell 834, elapsed: 0.0003960132598876953
ell 833, elapsed: 0.0006108283996582031
ell 832, elapsed: 0.00040221214294433594
ell 831, elapsed: 0.0004801750183105469
ell 830, elapsed: 0.0004000663757324219
ell 829, elapsed: 0.00047397613525390625
ell 828, elapsed: 0.0004990100860595703
ell 827, elapsed: 0.0006208419799804688
ell 826, elapsed: 0.0004901885986328125
ell 825, elapsed: 0.00048613548278808594
ell 824, elapsed: 0.0003960132598876953
ell 823, elapsed: 0.00048613548278808594
ell 822, elapsed: 0.0003941059112548828
ell 821, elapsed: 0.00046706199645996094
ell 820, elapsed: 0.0003941059112548828
ell 819, elapsed: 0.00047397613525390625
ell 818, elapsed: 0.0003979206085205078
ell 817, elapsed: 0.0005979537963867188
ell 816, elapsed: 0.0004000663757324219
ell 815, elapsed: 0.00047397613525390625
ell 814, elapsed: 0.0005440711975097656
ell 813, elapsed: 0.0006110668182373047
ell 812, elapsed: 0.0003941059112548828
ell 811, elapsed: 0.0004668235778808594
ell 810, elapsed: 0.0004849433898925781
ell 809, elapsed: 0.0004839897155761719
ell 808, elapsed: 0.0003941059112548828
ell 807, elapsed: 0.0006608963012695312
ell 806, elapsed: 0.0004661083221435547
ell 805, elapsed: 0.0004680156707763672
ell 804, elapsed: 0.000392913818359375
ell 803, elapsed: 0.0004680156707763672
ell 802, elapsed: 0.0007739067077636719
ell 801, elapsed: 0.0006930828094482422
ell 800, elapsed: 0.00045108795166015625
ell 799, elapsed: 0.00047707557678222656
ell 798, elapsed: 0.0003941059112548828
ell 797, elapsed: 0.0004711151123046875
ell 796, elapsed: 0.000392913818359375
ell 795, elapsed: 0.0005850791931152344
ell 794, elapsed: 0.0008819103240966797
ell 793, elapsed: 0.0004999637603759766
ell 792, elapsed: 0.00039315223693847656
ell 791, elapsed: 0.00046515464782714844
ell 790, elapsed: 0.00039696693420410156
ell 789, elapsed: 0.00046706199645996094
ell 788, elapsed: 0.00039315223693847656
ell 787, elapsed: 0.0005931854248046875
ell 786, elapsed: 0.0004851818084716797
ell 785, elapsed: 0.0006470680236816406
ell 784, elapsed: 0.0003960132598876953
ell 783, elapsed: 0.0004730224609375
ell 782, elapsed: 0.000392913818359375
ell 781, elapsed: 0.0006849765777587891
ell 780, elapsed: 0.0007600784301757812
ell 779, elapsed: 0.0004889965057373047
ell 778, elapsed: 0.00039696693420410156
ell 777, elapsed: 0.00047588348388671875
ell 776, elapsed: 0.000392913818359375
ell 775, elapsed: 0.0004730224609375
ell 774, elapsed: 0.00039696693420410156
ell 773, elapsed: 0.00047087669372558594
ell 772, elapsed: 0.0007331371307373047
ell 771, elapsed: 0.0004918575286865234
ell 770, elapsed: 0.0003998279571533203
ell 769, elapsed: 0.0004661083221435547
ell 768, elapsed: 0.000392913818359375
ell 767, elapsed: 0.00047206878662109375
ell 766, elapsed: 0.000392913818359375
ell 765, elapsed: 0.0004858970642089844
ell 764, elapsed: 0.00074005126953125
ell 763, elapsed: 0.0004839897155761719
ell 762, elapsed: 0.00039696693420410156
ell 761, elapsed: 0.00047087669372558594
ell 760, elapsed: 0.00039386749267578125
ell 759, elapsed: 0.0004680156707763672
ell 758, elapsed: 0.0005121231079101562
ell 757, elapsed: 0.001055002212524414
ell 756, elapsed: 0.0005261898040771484
ell 755, elapsed: 0.0006251335144042969
ell 754, elapsed: 0.0003979206085205078
ell 753, elapsed: 0.00047206878662109375
ell 752, elapsed: 0.00039505958557128906
ell 751, elapsed: 0.00047898292541503906
ell 750, elapsed: 0.0008580684661865234
ell 749, elapsed: 0.0004889965057373047
ell 748, elapsed: 0.0004000663757324219
ell 747, elapsed: 0.0005919933319091797
ell 746, elapsed: 0.0005071163177490234
ell 745, elapsed: 0.00047588348388671875
ell 744, elapsed: 0.0003981590270996094
ell 743, elapsed: 0.0009031295776367188
ell 742, elapsed: 0.00039696693420410156
ell 741, elapsed: 0.00047397613525390625
ell 740, elapsed: 0.0003991127014160156
ell 739, elapsed: 0.0004830360412597656
ell 738, elapsed: 0.0003960132598876953
ell 737, elapsed: 0.0004699230194091797
ell 736, elapsed: 0.0003960132598876953
ell 735, elapsed: 0.0009799003601074219
ell 734, elapsed: 0.0005159378051757812
ell 733, elapsed: 0.0006380081176757812
ell 732, elapsed: 0.0005598068237304688
ell 731, elapsed: 0.0006318092346191406
ell 730, elapsed: 0.0005609989166259766
ell 729, elapsed: 0.0006430149078369141
ell 728, elapsed: 0.0004839897155761719
ell 727, elapsed: 0.0006008148193359375
ell 726, elapsed: 0.00061798095703125
ell 725, elapsed: 0.0007319450378417969
ell 724, elapsed: 0.0008718967437744141
ell 723, elapsed: 0.0005800724029541016
ell 722, elapsed: 0.0006189346313476562
ell 721, elapsed: 0.0007431507110595703
ell 720, elapsed: 0.0004642009735107422
ell 719, elapsed: 0.000476837158203125
ell 718, elapsed: 0.0008580684661865234
ell 717, elapsed: 0.0006351470947265625
ell 716, elapsed: 0.00047016143798828125
ell 715, elapsed: 0.00047206878662109375
ell 714, elapsed: 0.00047898292541503906
ell 713, elapsed: 0.0006430149078369141
ell 712, elapsed: 0.0008370876312255859
ell 711, elapsed: 0.0006380081176757812
ell 710, elapsed: 0.0006279945373535156
ell 709, elapsed: 0.0006539821624755859
ell 708, elapsed: 0.00055694580078125
ell 707, elapsed: 0.0007560253143310547
ell 706, elapsed: 0.001371145248413086
ell 705, elapsed: 0.0007190704345703125
ell 704, elapsed: 0.0006260871887207031
ell 703, elapsed: 0.0007550716400146484
ell 702, elapsed: 0.0006420612335205078
ell 701, elapsed: 0.0007491111755371094
ell 700, elapsed: 0.0005211830139160156
ell 699, elapsed: 0.00047588348388671875
ell 698, elapsed: 0.0003848075866699219
ell 697, elapsed: 0.000598907470703125
ell 696, elapsed: 0.0005061626434326172
ell 695, elapsed: 0.019893884658813477
ell 694, elapsed: 0.0006110668182373047
ell 693, elapsed: 0.0007610321044921875
ell 692, elapsed: 0.0005640983581542969
ell 691, elapsed: 0.0007619857788085938
ell 690, elapsed: 0.0006170272827148438
ell 689, elapsed: 0.0007898807525634766
ell 688, elapsed: 0.0006189346313476562
ell 687, elapsed: 0.0007588863372802734
ell 686, elapsed: 0.0005211830139160156
ell 685, elapsed: 0.0006539821624755859
ell 684, elapsed: 0.0006210803985595703
ell 683, elapsed: 0.0007817745208740234
ell 682, elapsed: 0.0005459785461425781
ell 681, elapsed: 0.000492095947265625
ell 680, elapsed: 0.00039696693420410156
ell 679, elapsed: 0.0004849433898925781
ell 678, elapsed: 0.0004029273986816406
ell 677, elapsed: 0.00048089027404785156
ell 676, elapsed: 0.0004038810729980469
ell 675, elapsed: 0.0007748603820800781
ell 674, elapsed: 0.0005869865417480469
ell 673, elapsed: 0.0004749298095703125
ell 672, elapsed: 0.0003829002380371094
ell 671, elapsed: 0.0004620552062988281
ell 670, elapsed: 0.00039887428283691406
ell 669, elapsed: 0.0004839897155761719
ell 668, elapsed: 0.000431060791015625
ell 667, elapsed: 0.0004901885986328125
ell 666, elapsed: 0.0004620552062988281
ell 665, elapsed: 0.0006661415100097656
ell 664, elapsed: 0.00039196014404296875
ell 663, elapsed: 0.0009479522705078125
ell 662, elapsed: 0.0005209445953369141
ell 661, elapsed: 0.0007748603820800781
ell 660, elapsed: 0.00048804283142089844
ell 659, elapsed: 0.0006849765777587891
ell 658, elapsed: 0.00045108795166015625
ell 657, elapsed: 0.0004718303680419922
ell 656, elapsed: 0.0003838539123535156
ell 655, elapsed: 0.0006158351898193359
ell 654, elapsed: 0.0006699562072753906
ell 653, elapsed: 0.0006339550018310547
ell 652, elapsed: 0.0006160736083984375
ell 651, elapsed: 0.0006611347198486328
ell 650, elapsed: 0.00039505958557128906
ell 649, elapsed: 0.000682830810546875
ell 648, elapsed: 0.0006468296051025391
ell 647, elapsed: 0.0005679130554199219
ell 646, elapsed: 0.0003859996795654297
ell 645, elapsed: 0.00046896934509277344
ell 644, elapsed: 0.0003859996795654297
ell 643, elapsed: 0.0006830692291259766
ell 642, elapsed: 0.0004508495330810547
ell 641, elapsed: 0.0005741119384765625
ell 640, elapsed: 0.0004589557647705078
ell 639, elapsed: 0.0006589889526367188
ell 638, elapsed: 0.0003910064697265625
ell 637, elapsed: 0.0006198883056640625
ell 636, elapsed: 0.000392913818359375
ell 635, elapsed: 0.00047588348388671875
ell 634, elapsed: 0.000392913818359375
ell 633, elapsed: 0.0006201267242431641
ell 632, elapsed: 0.0004000663757324219
ell 631, elapsed: 0.00047707557678222656
ell 630, elapsed: 0.00045680999755859375
ell 629, elapsed: 0.0004820823669433594
ell 628, elapsed: 0.0003921985626220703
ell 627, elapsed: 0.00047898292541503906
ell 626, elapsed: 0.0003960132598876953
ell 625, elapsed: 0.0006709098815917969
ell 624, elapsed: 0.0005309581756591797
ell 623, elapsed: 0.0006570816040039062
ell 622, elapsed: 0.0003910064697265625
ell 621, elapsed: 0.00048613548278808594
ell 620, elapsed: 0.00038814544677734375
ell 619, elapsed: 0.0004630088806152344
ell 618, elapsed: 0.0006279945373535156
ell 617, elapsed: 0.0005350112915039062
ell 616, elapsed: 0.0003600120544433594
ell 615, elapsed: 0.0004341602325439453
ell 614, elapsed: 0.00038695335388183594
ell 613, elapsed: 0.00047898292541503906
ell 612, elapsed: 0.00038695335388183594
ell 611, elapsed: 0.0004849433898925781
ell 610, elapsed: 0.0006041526794433594
ell 609, elapsed: 0.0004851818084716797
ell 608, elapsed: 0.00038695335388183594
ell 607, elapsed: 0.0004730224609375
ell 606, elapsed: 0.0003960132598876953
ell 605, elapsed: 0.0004780292510986328
ell 604, elapsed: 0.0003910064697265625
ell 603, elapsed: 0.00048279762268066406
ell 602, elapsed: 0.0005009174346923828
ell 601, elapsed: 0.0004830360412597656
ell 600, elapsed: 0.0003910064697265625
ell 599, elapsed: 0.0004870891571044922
ell 598, elapsed: 0.00039315223693847656
ell 597, elapsed: 0.00048089027404785156
ell 596, elapsed: 0.00040411949157714844
ell 595, elapsed: 0.0004820823669433594
ell 594, elapsed: 0.00039315223693847656
ell 593, elapsed: 0.0004999637603759766
ell 592, elapsed: 0.0003879070281982422
ell 591, elapsed: 0.0004630088806152344
ell 590, elapsed: 0.0003809928894042969
ell 589, elapsed: 0.0008180141448974609
ell 588, elapsed: 0.0005388259887695312
ell 587, elapsed: 0.0006010532379150391
ell 586, elapsed: 0.00039196014404296875
ell 585, elapsed: 0.0004830360412597656
ell 584, elapsed: 0.00039196014404296875
ell 583, elapsed: 0.0004820823669433594
ell 582, elapsed: 0.0003921985626220703
ell 581, elapsed: 0.00048613548278808594
ell 580, elapsed: 0.0003941059112548828
ell 579, elapsed: 0.0008409023284912109
ell 578, elapsed: 0.0004019737243652344
ell 577, elapsed: 0.000476837158203125
ell 576, elapsed: 0.0003848075866699219
ell 575, elapsed: 0.00046515464782714844
ell 574, elapsed: 0.00038313865661621094
ell 573, elapsed: 0.0006270408630371094
ell 572, elapsed: 0.0004899501800537109
ell 571, elapsed: 0.0006089210510253906
ell 570, elapsed: 0.0005190372467041016
ell 569, elapsed: 0.0005919933319091797
ell 568, elapsed: 0.0003769397735595703
ell 567, elapsed: 0.000453948974609375
ell 566, elapsed: 0.0003771781921386719
ell 565, elapsed: 0.00044989585876464844
ell 564, elapsed: 0.00037407875061035156
ell 563, elapsed: 0.0006709098815917969
ell 562, elapsed: 0.00038313865661621094
ell 561, elapsed: 0.0004570484161376953
ell 560, elapsed: 0.00037598609924316406
ell 559, elapsed: 0.00045490264892578125
ell 558, elapsed: 0.00037097930908203125
ell 557, elapsed: 0.0006659030914306641
ell 556, elapsed: 0.0006108283996582031
ell 555, elapsed: 0.0008950233459472656
ell 554, elapsed: 0.0005102157592773438
ell 553, elapsed: 0.0006771087646484375
ell 552, elapsed: 0.0006120204925537109
ell 551, elapsed: 0.0007410049438476562
ell 550, elapsed: 0.00074005126953125
ell 549, elapsed: 0.0008180141448974609
ell 548, elapsed: 0.0006339550018310547
ell 547, elapsed: 0.0007379055023193359
ell 546, elapsed: 0.0006108283996582031
ell 545, elapsed: 0.0008361339569091797
ell 544, elapsed: 0.0004620552062988281
ell 543, elapsed: 0.0004639625549316406
ell 542, elapsed: 0.0003859996795654297
ell 541, elapsed: 0.0004699230194091797
ell 540, elapsed: 0.00037598609924316406
ell 539, elapsed: 0.00045108795166015625
ell 538, elapsed: 0.00037598609924316406
ell 537, elapsed: 0.00046181678771972656
ell 536, elapsed: 0.00047588348388671875
ell 535, elapsed: 0.0004570484161376953
ell 534, elapsed: 0.00037598609924316406
ell 533, elapsed: 0.000453948974609375
ell 532, elapsed: 0.0003790855407714844
ell 531, elapsed: 0.00045108795166015625
ell 530, elapsed: 0.0003800392150878906
ell 529, elapsed: 0.0004489421844482422
ell 528, elapsed: 0.0006339550018310547
ell 527, elapsed: 0.00055694580078125
ell 526, elapsed: 0.0003840923309326172
ell 525, elapsed: 0.0006649494171142578
ell 524, elapsed: 0.0006160736083984375
ell 523, elapsed: 0.0007388591766357422
ell 522, elapsed: 0.000720977783203125
ell 521, elapsed: 0.0007371902465820312
ell 520, elapsed: 0.0005991458892822266
ell 519, elapsed: 0.0007410049438476562
ell 518, elapsed: 0.0006148815155029297
ell 517, elapsed: 0.0007510185241699219
ell 516, elapsed: 0.0007390975952148438
ell 515, elapsed: 0.0007479190826416016
ell 514, elapsed: 0.0006101131439208984
ell 513, elapsed: 0.0007390975952148438
ell 512, elapsed: 0.0006148815155029297
ell 511, elapsed: 0.0008800029754638672
ell 510, elapsed: 0.0005369186401367188
ell 509, elapsed: 0.0007469654083251953
ell 508, elapsed: 0.0006279945373535156
ell 507, elapsed: 0.0007450580596923828
ell 506, elapsed: 0.0006279945373535156
ell 505, elapsed: 0.0006089210510253906
ell 504, elapsed: 0.0003848075866699219
ell 503, elapsed: 0.0004780292510986328
ell 502, elapsed: 0.0003840923309326172
ell 501, elapsed: 0.0006361007690429688
ell 500, elapsed: 0.0004730224609375
ell 499, elapsed: 0.0004780292510986328
ell 498, elapsed: 0.0004830360412597656
ell 497, elapsed: 0.00047087669372558594
ell 496, elapsed: 0.0003838539123535156
ell 495, elapsed: 0.0004780292510986328
ell 494, elapsed: 0.00038909912109375
ell 493, elapsed: 0.0006339550018310547
ell 492, elapsed: 0.000453948974609375
ell 491, elapsed: 0.00048804283142089844
ell 490, elapsed: 0.0005979537963867188
ell 489, elapsed: 0.0007369518280029297
ell 488, elapsed: 0.0006139278411865234
ell 487, elapsed: 0.0007359981536865234
ell 486, elapsed: 0.0006129741668701172
ell 485, elapsed: 0.0006740093231201172
ell 484, elapsed: 0.0004000663757324219
ell 483, elapsed: 0.0004820823669433594
ell 482, elapsed: 0.00038909912109375
ell 481, elapsed: 0.00048804283142089844
ell 480, elapsed: 0.00039505958557128906
ell 479, elapsed: 0.00048279762268066406
ell 478, elapsed: 0.0003879070281982422
ell 477, elapsed: 0.0007650852203369141
ell 476, elapsed: 0.0004119873046875
ell 475, elapsed: 0.0006308555603027344
ell 474, elapsed: 0.0004589557647705078
ell 473, elapsed: 0.0004870891571044922
ell 472, elapsed: 0.0003910064697265625
ell 471, elapsed: 0.0004780292510986328
ell 470, elapsed: 0.00039005279541015625
ell 469, elapsed: 0.0005738735198974609
ell 468, elapsed: 0.0005259513854980469
ell 467, elapsed: 0.0005741119384765625
ell 466, elapsed: 0.00037980079650878906
ell 465, elapsed: 0.0004830360412597656
ell 464, elapsed: 0.00039505958557128906
ell 463, elapsed: 0.0006339550018310547
ell 462, elapsed: 0.0004639625549316406
ell 461, elapsed: 0.0005018711090087891
ell 460, elapsed: 0.0003910064697265625
ell 459, elapsed: 0.0004868507385253906
ell 458, elapsed: 0.0003960132598876953
ell 457, elapsed: 0.00047707557678222656
ell 456, elapsed: 0.0003910064697265625
ell 455, elapsed: 0.0004830360412597656
ell 454, elapsed: 0.0003960132598876953
ell 453, elapsed: 0.0005331039428710938
ell 452, elapsed: 0.0003910064697265625
ell 451, elapsed: 0.0004870891571044922
ell 450, elapsed: 0.0003910064697265625
ell 449, elapsed: 0.0004811286926269531
ell 448, elapsed: 0.00039196014404296875
ell 447, elapsed: 0.00047898292541503906
ell 446, elapsed: 0.0003941059112548828
ell 445, elapsed: 0.0005199909210205078
ell 444, elapsed: 0.00039696693420410156
ell 443, elapsed: 0.00047588348388671875
ell 442, elapsed: 0.0003838539123535156
ell 441, elapsed: 0.0004749298095703125
ell 440, elapsed: 0.0003941059112548828
ell 439, elapsed: 0.0004830360412597656
ell 438, elapsed: 0.00039005279541015625
ell 437, elapsed: 0.0004911422729492188
ell 436, elapsed: 0.016531944274902344
ell 435, elapsed: 0.0005319118499755859
ell 434, elapsed: 0.0004019737243652344
ell 433, elapsed: 0.0004951953887939453
ell 432, elapsed: 0.0004031658172607422
ell 431, elapsed: 0.0004780292510986328
ell 430, elapsed: 0.0004019737243652344
ell 429, elapsed: 0.0004851818084716797
ell 428, elapsed: 0.00043511390686035156
ell 427, elapsed: 0.0005078315734863281
ell 426, elapsed: 0.0003898143768310547
ell 425, elapsed: 0.0004730224609375
ell 424, elapsed: 0.00038313865661621094
ell 423, elapsed: 0.0004639625549316406
ell 422, elapsed: 0.0003819465637207031
ell 421, elapsed: 0.000453948974609375
ell 420, elapsed: 0.00041294097900390625
ell 419, elapsed: 0.0004718303680419922
ell 418, elapsed: 0.0003910064697265625
ell 417, elapsed: 0.00047206878662109375
ell 416, elapsed: 0.0004031658172607422
ell 415, elapsed: 0.0004858970642089844
ell 414, elapsed: 0.00039386749267578125
ell 413, elapsed: 0.0004849433898925781
ell 412, elapsed: 0.0004138946533203125
ell 411, elapsed: 0.0006849765777587891
ell 410, elapsed: 0.00047707557678222656
ell 409, elapsed: 0.0004909038543701172
ell 408, elapsed: 0.00040793418884277344
ell 407, elapsed: 0.0004780292510986328
ell 406, elapsed: 0.0004057884216308594
ell 405, elapsed: 0.0005099773406982422
ell 404, elapsed: 0.0004031658172607422
ell 403, elapsed: 0.0005919933319091797
ell 402, elapsed: 0.0004010200500488281
ell 401, elapsed: 0.0004949569702148438
ell 400, elapsed: 0.000392913818359375
ell 399, elapsed: 0.0004971027374267578
ell 398, elapsed: 0.00039696693420410156
ell 397, elapsed: 0.0004649162292480469
ell 396, elapsed: 0.0004010200500488281
ell 395, elapsed: 0.0004868507385253906
ell 394, elapsed: 0.0003879070281982422
ell 393, elapsed: 0.0004761219024658203
ell 392, elapsed: 0.0003960132598876953
ell 391, elapsed: 0.00046515464782714844
ell 390, elapsed: 0.00038695335388183594
ell 389, elapsed: 0.0004668235778808594
ell 388, elapsed: 0.00038313865661621094
ell 387, elapsed: 0.000514984130859375
ell 386, elapsed: 0.00040912628173828125
ell 385, elapsed: 0.00048804283142089844
ell 384, elapsed: 0.00039005279541015625
ell 383, elapsed: 0.00047206878662109375
ell 382, elapsed: 0.000392913818359375
ell 381, elapsed: 0.0004642009735107422
ell 380, elapsed: 0.0005240440368652344
ell 379, elapsed: 0.000614166259765625
ell 378, elapsed: 0.0003910064697265625
ell 377, elapsed: 0.0004649162292480469
ell 376, elapsed: 0.0003829002380371094
ell 375, elapsed: 0.0006530284881591797
ell 374, elapsed: 0.00043702125549316406
ell 373, elapsed: 0.0006628036499023438
ell 372, elapsed: 0.012692928314208984
ell 371, elapsed: 0.0005400180816650391
ell 370, elapsed: 0.0005190372467041016
ell 369, elapsed: 0.0006837844848632812
ell 368, elapsed: 0.00039386749267578125
ell 367, elapsed: 0.0006151199340820312
ell 366, elapsed: 0.0004911422729492188
ell 365, elapsed: 0.0006101131439208984
ell 364, elapsed: 0.0006480216979980469
ell 363, elapsed: 0.0006620883941650391
ell 362, elapsed: 0.0005450248718261719
ell 361, elapsed: 0.0004680156707763672
ell 360, elapsed: 0.0004658699035644531
ell 359, elapsed: 0.0006492137908935547
ell 358, elapsed: 0.00038504600524902344
ell 357, elapsed: 0.0004649162292480469
ell 356, elapsed: 0.00039887428283691406
ell 355, elapsed: 0.0004749298095703125
ell 354, elapsed: 0.0005369186401367188
ell 353, elapsed: 0.0005419254302978516
ell 352, elapsed: 0.0004978179931640625
ell 351, elapsed: 0.0007658004760742188
ell 350, elapsed: 0.00046706199645996094
ell 349, elapsed: 0.0006830692291259766
ell 348, elapsed: 0.000514984130859375
ell 347, elapsed: 0.0005691051483154297
ell 346, elapsed: 0.0005390644073486328
ell 345, elapsed: 0.016713857650756836
ell 344, elapsed: 0.0004329681396484375
ell 343, elapsed: 0.0005211830139160156
ell 342, elapsed: 0.0005509853363037109
ell 341, elapsed: 0.0005488395690917969
ell 340, elapsed: 0.00037288665771484375
ell 339, elapsed: 0.0004680156707763672
ell 338, elapsed: 0.0003800392150878906
ell 337, elapsed: 0.0004901885986328125
ell 336, elapsed: 0.0003859996795654297
ell 335, elapsed: 0.0004611015319824219
ell 334, elapsed: 0.0003719329833984375
ell 333, elapsed: 0.0004401206970214844
ell 332, elapsed: 0.00037407875061035156
ell 331, elapsed: 0.0005829334259033203
ell 330, elapsed: 0.0004940032958984375
ell 329, elapsed: 0.0004570484161376953
ell 328, elapsed: 0.0005319118499755859
ell 327, elapsed: 0.0005857944488525391
ell 326, elapsed: 0.0003750324249267578
ell 325, elapsed: 0.00044798851013183594
ell 324, elapsed: 0.0003948211669921875
ell 323, elapsed: 0.0004780292510986328
ell 322, elapsed: 0.0005459785461425781
ell 321, elapsed: 0.0008418560028076172
ell 320, elapsed: 0.0005381107330322266
ell 319, elapsed: 0.000698089599609375
ell 318, elapsed: 0.0005400180816650391
ell 317, elapsed: 0.0006971359252929688
ell 316, elapsed: 0.0006241798400878906
ell 315, elapsed: 0.0007798671722412109
ell 314, elapsed: 0.0006279945373535156
ell 313, elapsed: 0.0007460117340087891
ell 312, elapsed: 0.0005099773406982422
ell 311, elapsed: 0.00047707557678222656
ell 310, elapsed: 0.000392913818359375
ell 309, elapsed: 0.0006680488586425781
ell 308, elapsed: 0.0005021095275878906
ell 307, elapsed: 0.0004839897155761719
ell 306, elapsed: 0.00038814544677734375
ell 305, elapsed: 0.0006771087646484375
ell 304, elapsed: 0.0006220340728759766
ell 303, elapsed: 0.0007519721984863281
ell 302, elapsed: 0.0005228519439697266
ell 301, elapsed: 0.0004940032958984375
ell 300, elapsed: 0.00045418739318847656
ell 299, elapsed: 0.0007610321044921875
ell 298, elapsed: 0.0006270408630371094
ell 297, elapsed: 0.0007569789886474609
ell 296, elapsed: 0.00049591064453125
ell 295, elapsed: 0.0005030632019042969
ell 294, elapsed: 0.00038695335388183594
ell 293, elapsed: 0.00048804283142089844
ell 292, elapsed: 0.0003898143768310547
ell 291, elapsed: 0.00048613548278808594
ell 290, elapsed: 0.00039005279541015625
ell 289, elapsed: 0.0006830692291259766
ell 288, elapsed: 0.0005450248718261719
ell 287, elapsed: 0.0006330013275146484
ell 286, elapsed: 0.0005660057067871094
ell 285, elapsed: 0.0005669593811035156
ell 284, elapsed: 0.0005731582641601562
ell 283, elapsed: 0.0007481575012207031
ell 282, elapsed: 0.000514984130859375
ell 281, elapsed: 0.0006890296936035156
ell 280, elapsed: 0.0006229877471923828
ell 279, elapsed: 0.0007510185241699219
ell 278, elapsed: 0.00047898292541503906
ell 277, elapsed: 0.00047898292541503906
ell 276, elapsed: 0.0004019737243652344
ell 275, elapsed: 0.0004849433898925781
ell 274, elapsed: 0.000514984130859375
ell 273, elapsed: 0.0006039142608642578
ell 272, elapsed: 0.00039386749267578125
ell 271, elapsed: 0.00048804283142089844
ell 270, elapsed: 0.0003898143768310547
ell 269, elapsed: 0.0004711151123046875
ell 268, elapsed: 0.00040602684020996094
ell 267, elapsed: 0.0006859302520751953
ell 266, elapsed: 0.0004260540008544922
ell 265, elapsed: 0.0006799697875976562
ell 264, elapsed: 0.0005650520324707031
ell 263, elapsed: 0.0007379055023193359
ell 262, elapsed: 0.0006449222564697266
ell 261, elapsed: 0.0007598400115966797
ell 260, elapsed: 0.0005340576171875
ell 259, elapsed: 0.0006971359252929688
ell 258, elapsed: 0.0005681514739990234
ell 257, elapsed: 0.0007338523864746094
ell 256, elapsed: 0.0006439685821533203
ell 255, elapsed: 0.0007510185241699219
ell 254, elapsed: 0.0006091594696044922
ell 253, elapsed: 0.0006759166717529297
ell 252, elapsed: 0.0006258487701416016
ell 251, elapsed: 0.0007729530334472656
ell 250, elapsed: 0.0006029605865478516
ell 249, elapsed: 0.0007500648498535156
ell 248, elapsed: 0.0006158351898193359
ell 247, elapsed: 0.0006589889526367188
ell 246, elapsed: 0.0003960132598876953
ell 245, elapsed: 0.0006620883941650391
ell 244, elapsed: 0.0005347728729248047
ell 243, elapsed: 0.0006999969482421875
ell 242, elapsed: 0.0006158351898193359
ell 241, elapsed: 0.0006279945373535156
ell 240, elapsed: 0.0004589557647705078
ell 239, elapsed: 0.0007450580596923828
ell 238, elapsed: 0.0005190372467041016
ell 237, elapsed: 0.0006680488586425781
ell 236, elapsed: 0.0005140304565429688
ell 235, elapsed: 0.0006990432739257812
ell 234, elapsed: 0.0005280971527099609
ell 233, elapsed: 0.0006959438323974609
ell 232, elapsed: 0.0005309581756591797
ell 231, elapsed: 0.0006902217864990234
ell 230, elapsed: 0.0004260540008544922
ell 229, elapsed: 0.0004858970642089844
ell 228, elapsed: 0.0003910064697265625
ell 227, elapsed: 0.00047898292541503906
ell 226, elapsed: 0.0003910064697265625
ell 225, elapsed: 0.0004830360412597656
ell 224, elapsed: 0.0004119873046875
ell 223, elapsed: 0.0004839897155761719
ell 222, elapsed: 0.000392913818359375
ell 221, elapsed: 0.00048279762268066406
ell 220, elapsed: 0.0003879070281982422
ell 219, elapsed: 0.0004899501800537109
ell 218, elapsed: 0.00039005279541015625
ell 217, elapsed: 0.00047707557678222656
ell 216, elapsed: 0.00041103363037109375
ell 215, elapsed: 0.00047206878662109375
ell 214, elapsed: 0.0003879070281982422
ell 213, elapsed: 0.0004849433898925781
ell 212, elapsed: 0.0005621910095214844
ell 211, elapsed: 0.0007460117340087891
ell 210, elapsed: 0.0005118846893310547
ell 209, elapsed: 0.000720977783203125
ell 208, elapsed: 0.0006248950958251953
ell 207, elapsed: 0.0007569789886474609
ell 206, elapsed: 0.0006158351898193359
ell 205, elapsed: 0.0006082057952880859
ell 204, elapsed: 0.0005109310150146484
ell 203, elapsed: 0.0006468296051025391
ell 202, elapsed: 0.00038695335388183594
ell 201, elapsed: 0.0006101131439208984
ell 200, elapsed: 0.0004971027374267578
ell 199, elapsed: 0.0004899501800537109
ell 198, elapsed: 0.00039196014404296875
ell 197, elapsed: 0.0004889965057373047
ell 196, elapsed: 0.00038909912109375
ell 195, elapsed: 0.0004911422729492188
ell 194, elapsed: 0.00044989585876464844
ell 193, elapsed: 0.0006589889526367188
ell 192, elapsed: 0.0005788803100585938
ell 191, elapsed: 0.0007441043853759766
ell 190, elapsed: 0.0006399154663085938
ell 189, elapsed: 0.0007650852203369141
ell 188, elapsed: 0.0005121231079101562
ell 187, elapsed: 0.0004761219024658203
ell 186, elapsed: 0.0003910064697265625
ell 185, elapsed: 0.0006279945373535156
ell 184, elapsed: 0.00047707557678222656
ell 183, elapsed: 0.0004680156707763672
ell 182, elapsed: 0.0004839897155761719
ell 181, elapsed: 0.0006561279296875
ell 180, elapsed: 0.0005490779876708984
ell 179, elapsed: 0.0005831718444824219
ell 178, elapsed: 0.00039315223693847656
ell 177, elapsed: 0.0004820823669433594
ell 176, elapsed: 0.0004858970642089844
ell 175, elapsed: 0.0006539821624755859
ell 174, elapsed: 0.00047707557678222656
ell 173, elapsed: 0.0006740093231201172
ell 172, elapsed: 0.0005998611450195312
ell 171, elapsed: 0.0006320476531982422
ell 170, elapsed: 0.0004949569702148438
ell 169, elapsed: 0.0006690025329589844
ell 168, elapsed: 0.0005218982696533203
ell 167, elapsed: 0.0006489753723144531
ell 166, elapsed: 0.000576019287109375
ell 165, elapsed: 0.0007369518280029297
ell 164, elapsed: 0.0006258487701416016
ell 163, elapsed: 0.0005970001220703125
ell 162, elapsed: 0.0005679130554199219
ell 161, elapsed: 0.0005800724029541016
ell 160, elapsed: 0.0005049705505371094
ell 159, elapsed: 0.0007488727569580078
ell 158, elapsed: 0.0006241798400878906
ell 157, elapsed: 0.0006918907165527344
ell 156, elapsed: 0.0005030632019042969
ell 155, elapsed: 0.0006170272827148438
ell 154, elapsed: 0.0003840923309326172
ell 153, elapsed: 0.0004799365997314453
ell 152, elapsed: 0.0004889965057373047
ell 151, elapsed: 0.0006260871887207031
ell 150, elapsed: 0.0003991127014160156
ell 149, elapsed: 0.0004949569702148438
ell 148, elapsed: 0.00039196014404296875
ell 147, elapsed: 0.0004851818084716797
ell 146, elapsed: 0.00040411949157714844
ell 145, elapsed: 0.0004839897155761719
ell 144, elapsed: 0.00038909912109375
ell 143, elapsed: 0.0004718303680419922
ell 142, elapsed: 0.00047206878662109375
ell 141, elapsed: 0.0007319450378417969
ell 140, elapsed: 0.0003859996795654297
ell 139, elapsed: 0.0004730224609375
ell 138, elapsed: 0.0003879070281982422
ell 137, elapsed: 0.0006299018859863281
ell 136, elapsed: 0.0004761219024658203
ell 135, elapsed: 0.0004830360412597656
ell 134, elapsed: 0.0003840923309326172
ell 133, elapsed: 0.0006151199340820312
ell 132, elapsed: 0.00039577484130859375
ell 131, elapsed: 0.0006887912750244141
ell 130, elapsed: 0.0005280971527099609
ell 129, elapsed: 0.0004749298095703125
ell 128, elapsed: 0.0005750656127929688
ell 127, elapsed: 0.0008299350738525391
ell 126, elapsed: 0.00045013427734375
ell 125, elapsed: 0.0004780292510986328
ell 124, elapsed: 0.0003879070281982422
ell 123, elapsed: 0.0006861686706542969
ell 122, elapsed: 0.0004229545593261719
ell 121, elapsed: 0.0004799365997314453
ell 120, elapsed: 0.0006968975067138672
ell 119, elapsed: 0.0005631446838378906
ell 118, elapsed: 0.00038909912109375
ell 117, elapsed: 0.0006079673767089844
ell 116, elapsed: 0.0005040168762207031
ell 115, elapsed: 0.0006470680236816406
ell 114, elapsed: 0.0005891323089599609
ell 113, elapsed: 0.0007109642028808594
ell 112, elapsed: 0.00048089027404785156
ell 111, elapsed: 0.0007050037384033203
ell 110, elapsed: 0.0005991458892822266
ell 109, elapsed: 0.0006999969482421875
ell 108, elapsed: 0.0005850791931152344
ell 107, elapsed: 0.0008258819580078125
ell 106, elapsed: 0.0005979537963867188
ell 105, elapsed: 0.0005729198455810547
ell 104, elapsed: 0.0004990100860595703
ell 103, elapsed: 0.0007340908050537109
ell 102, elapsed: 0.0006041526794433594
ell 101, elapsed: 0.0006899833679199219
ell 100, elapsed: 0.0005660057067871094
ell 99, elapsed: 0.0007219314575195312
ell 98, elapsed: 0.0005340576171875
ell 97, elapsed: 0.0006868839263916016
ell 96, elapsed: 0.0005080699920654297
ell 95, elapsed: 0.0007879734039306641
ell 94, elapsed: 0.0005199909210205078
ell 93, elapsed: 0.0006389617919921875
ell 92, elapsed: 0.00047898292541503906
ell 91, elapsed: 0.0004849433898925781
ell 90, elapsed: 0.00038814544677734375
ell 89, elapsed: 0.00047206878662109375
ell 88, elapsed: 0.0004889965057373047
ell 87, elapsed: 0.0004858970642089844
ell 86, elapsed: 0.0003821849822998047
ell 85, elapsed: 0.0004680156707763672
ell 84, elapsed: 0.00045180320739746094
ell 83, elapsed: 0.000659942626953125
ell 82, elapsed: 0.0005199909210205078
ell 81, elapsed: 0.0007100105285644531
ell 80, elapsed: 0.0005130767822265625
ell 79, elapsed: 0.0007350444793701172
ell 78, elapsed: 0.0006210803985595703
ell 77, elapsed: 0.000598907470703125
ell 76, elapsed: 0.0005629062652587891
ell 75, elapsed: 0.0006349086761474609
ell 74, elapsed: 0.0003921985626220703
ell 73, elapsed: 0.0004830360412597656
ell 72, elapsed: 0.00047898292541503906
ell 71, elapsed: 0.000640869140625
ell 70, elapsed: 0.00040078163146972656
ell 69, elapsed: 0.00047898292541503906
ell 68, elapsed: 0.00038814544677734375
ell 67, elapsed: 0.0005779266357421875
ell 66, elapsed: 0.0005350112915039062
ell 65, elapsed: 0.0005660057067871094
ell 64, elapsed: 0.00051116943359375
ell 63, elapsed: 0.0007309913635253906
ell 62, elapsed: 0.0004999637603759766
ell 61, elapsed: 0.0007729530334472656
ell 60, elapsed: 0.0005128383636474609
ell 59, elapsed: 0.0006518363952636719
ell 58, elapsed: 0.00039196014404296875
ell 57, elapsed: 0.0004839897155761719
ell 56, elapsed: 0.0005218982696533203
ell 55, elapsed: 0.0006320476531982422
ell 54, elapsed: 0.0006971359252929688
ell 53, elapsed: 0.0006248950958251953
ell 52, elapsed: 0.000514984130859375
ell 51, elapsed: 0.0006439685821533203
ell 50, elapsed: 0.0004661083221435547
ell 49, elapsed: 0.0004811286926269531
ell 48, elapsed: 0.00039196014404296875
ell 47, elapsed: 0.0005700588226318359
ell 46, elapsed: 0.0004649162292480469
ell 45, elapsed: 0.0006499290466308594
ell 44, elapsed: 0.0005490779876708984
ell 43, elapsed: 0.0005729198455810547
ell 42, elapsed: 0.00039005279541015625
ell 41, elapsed: 0.0004889965057373047
ell 40, elapsed: 0.0005030632019042969
ell 39, elapsed: 0.000659942626953125
ell 38, elapsed: 0.0004410743713378906
ell 37, elapsed: 0.0006289482116699219
ell 36, elapsed: 0.0005021095275878906
ell 35, elapsed: 0.0004820823669433594
ell 34, elapsed: 0.00039196014404296875
ell 33, elapsed: 0.0005669593811035156
ell 32, elapsed: 0.00047707557678222656
ell 31, elapsed: 0.0007369518280029297
ell 30, elapsed: 0.0005099773406982422
ell 29, elapsed: 0.0006840229034423828
ell 28, elapsed: 0.0005180835723876953
ell 27, elapsed: 0.0006160736083984375
ell 26, elapsed: 0.0006139278411865234
ell 25, elapsed: 0.0006651878356933594
ell 24, elapsed: 0.0005450248718261719
ell 23, elapsed: 0.0007390975952148438
ell 22, elapsed: 0.0006229877471923828
ell 21, elapsed: 0.0007059574127197266
ell 20, elapsed: 0.00039696693420410156
ell 19, elapsed: 0.0006010532379150391
ell 18, elapsed: 0.0006201267242431641
ell 17, elapsed: 0.00055694580078125
ell 16, elapsed: 0.0005049705505371094
ell 15, elapsed: 0.0006480216979980469
ell 14, elapsed: 0.0006608963012695312
ell 13, elapsed: 0.0007188320159912109
ell 12, elapsed: 0.0004978179931640625
ell 11, elapsed: 0.0004730224609375
ell 10, elapsed: 0.00039005279541015625
ell 9, elapsed: 0.0004711151123046875
ell 8, elapsed: 0.0003960132598876953
ell 7, elapsed: 0.0005829334259033203
ell 6, elapsed: 0.0005691051483154297
ell 5, elapsed: 0.0005497932434082031
ell 4, elapsed: 0.0003910064697265625
ell 3, elapsed: 0.0004799365997314453
ell 2, elapsed: 0.00046896934509277344
ell 1, elapsed: 0.0006439685821533203
ell 0, elapsed: 0.0006160736083984375
  0.806269 seconds (41.19 k allocations: 2.939 MiB)
elapsed: 0.0006499290466308594
step:          0.071026 sec (0 allocations: 0 byte, 0.0% gc time)
swapping:      0.000911 sec (0 allocations: 0 byte, 0.0% gc time)
calc_Mellell!: 0.027707 sec (0 allocations: 0 byte, 0.0% gc time)
  t0 :  0.003555 sec (0 allocations: 0 byte, 0.0% gc time)
  tm2 : 0.104894 sec (0 allocations: 0 byte, 0.0% gc time)
  tm2s: 0.002055 sec (0 allocations: 0 byte, 0.0% gc time)
  tm4 : 0.303439 sec (0 allocations: 0 byte, 0.0% gc time)
  tp2 : 0.0 sec (0 allocations: 0 byte, 0.0% gc time)
  tp2s: 0.0 sec (0 allocations: 0 byte, 0.0% gc time)
  tp4 : 0.0 sec (0 allocations: 0 byte, 0.0% gc time)
calc_wtdll!:   0.431966 sec (9.87 k allocations: 1.043 MB, 0.0% gc time)
calc_wljj!:    0.045536 sec (689 allocations: 10.766 KB, 0.0% gc time)
mult_prefac!:  0.0 sec (0 allocations: 0 byte, 0.0% gc time)
convert:       0.0 sec (0 allocations: 0 byte, 0.0% gc time)
write:         0.076056 sec (0 allocations: 0 byte, 0.0% gc time)
test_rand_2f1: 0.0 sec (0 allocations: 0 byte, 0.0% gc time)
Closing outfile out/Ml21-cache.bin...   0.022789 seconds
  0.000561 seconds (52 allocations: 28.297 KiB)
make_phi():   0.002953 seconds (8.20 k allocations: 238.016 KiB)
  0.176047 seconds (146.69 k allocations: 3.629 MiB)
tskip:       0.000916 sec (0 allocations: 0 byte, 0.0% gc time)
tread:       0.024945 sec (19 allocations: 10.688 KB, 0.0% gc time)
tmultphi:    0.012592 sec (0 allocations: 0 byte, 0.0% gc time)
tbrfft:      0.042434 sec (9.592 k allocations: 449.625 KB, 0.0% gc time)
tmultprefac: 0.03821 sec (0 allocations: 0 byte, 0.0% gc time)
toutfunc:    0.054957 sec (129.905 k allocations: 2.421 MB, 0.0% gc time)
Testing R=1.0 ... passed
Calculating fmax: 
  dlrec    = 4
  dlrecRg1 = -4
  q=1.1, R=0.9:	  0.477439 seconds (116.47 k allocations: 15.614 MiB)

  0.477694 seconds (116.50 k allocations: 15.647 MiB)
ℓ = 1202
Δℓ = 4
ΔℓRg1 = -4
N = 1600
q = 1.1
kmin = 1.0e-5
kmax = 100000.00000000004
χ0 = 0.023029999999999995
RR = RR.tsv
ℓmax = ℓmax.bin
f21 = f21.bin
kmin = 1.0e-5
kmax = 100000.0
dlrec    = 4
dlrecRg1 = -4
Output size: 5741568 bytes = 0.005347251892089844 GiB
Output size: 51264 bytes = 4.774332046508789e-5 GiB
Reading 'out/F21EllCache'...   0.001229 seconds (267 allocations: 84.656 KiB)
ellmax: 1202
lmaxcache: 1202
fell[:,1,1] = Complex{Float64}[1.3482014726274674e-57 - 3.302141236118086e-73im, 1.357860004724329e-57 - 3.3257978169518355e-73im]
ell 1202, elapsed: 2.193450927734375e-5
ell 1201, elapsed: 0.00038504600524902344
ell 1200, elapsed: 0.0004620552062988281
ell 1199, elapsed: 0.0004868507385253906
ell 1198, elapsed: 0.0005099773406982422
ell 1002, elapsed: 0.00962686538696289
ell 1001, elapsed: 0.00037407875061035156
ell 1000, elapsed: 0.00035119056701660156
ell 999, elapsed: 0.00035500526428222656
ell 998, elapsed: 0.00035381317138671875
ell 902, elapsed: 0.01654982566833496
ell 901, elapsed: 0.0003991127014160156
ell 900, elapsed: 0.0003571510314941406
ell 899, elapsed: 0.00035190582275390625
ell 898, elapsed: 0.00034999847412109375
ell 802, elapsed: 0.004911184310913086
ell 801, elapsed: 0.0003819465637207031
ell 800, elapsed: 0.0003509521484375
ell 799, elapsed: 0.00035309791564941406
ell 798, elapsed: 0.00034999847412109375
ell 702, elapsed: 0.017287015914916992
ell 701, elapsed: 0.00037479400634765625
ell 700, elapsed: 0.00035381317138671875
ell 699, elapsed: 0.00034689903259277344
ell 698, elapsed: 0.0003559589385986328
ell 602, elapsed: 0.00530695915222168
ell 601, elapsed: 0.0004792213439941406
ell 600, elapsed: 0.0005512237548828125
ell 599, elapsed: 0.0005578994750976562
ell 598, elapsed: 0.0005500316619873047
ell 502, elapsed: 0.005309104919433594
ell 501, elapsed: 0.0005218982696533203
ell 500, elapsed: 0.0005590915679931641
ell 499, elapsed: 0.0005528926849365234
ell 498, elapsed: 0.0005500316619873047
ell 402, elapsed: 0.0051479339599609375
ell 401, elapsed: 0.0003781318664550781
ell 400, elapsed: 0.00037789344787597656
ell 399, elapsed: 0.0003559589385986328
ell 398, elapsed: 0.00035119056701660156
ell 302, elapsed: 0.005184173583984375
ell 301, elapsed: 0.0004978179931640625
ell 300, elapsed: 0.0004799365997314453
ell 299, elapsed: 0.0003590583801269531
ell 298, elapsed: 0.0003571510314941406
ell 202, elapsed: 0.0050318241119384766
ell 201, elapsed: 0.00044918060302734375
ell 200, elapsed: 0.0005540847778320312
ell 199, elapsed: 0.0005519390106201172
ell 198, elapsed: 0.000553131103515625
ell 152, elapsed: 0.002788066864013672
ell 151, elapsed: 0.00036907196044921875
ell 150, elapsed: 0.0003528594970703125
ell 149, elapsed: 0.00041413307189941406
ell 148, elapsed: 0.0005459785461425781
ell 127, elapsed: 0.001603841781616211
ell 126, elapsed: 0.0005068778991699219
ell 125, elapsed: 0.0004630088806152344
ell 124, elapsed: 0.0005068778991699219
ell 123, elapsed: 0.0005319118499755859
ell 114, elapsed: 0.0008349418640136719
ell 113, elapsed: 0.0005059242248535156
ell 112, elapsed: 0.0004899501800537109
ell 111, elapsed: 0.00034999847412109375
ell 110, elapsed: 0.00035691261291503906
ell 102, elapsed: 0.0011060237884521484
ell 101, elapsed: 0.0005509853363037109
ell 100, elapsed: 0.0004589557647705078
ell 99, elapsed: 0.00035190582275390625
ell 98, elapsed: 0.00035309791564941406
ell 97, elapsed: 0.0003979206085205078
ell 96, elapsed: 0.0005230903625488281
ell 95, elapsed: 0.00039887428283691406
ell 94, elapsed: 0.0004980564117431641
ell 93, elapsed: 0.00039696693420410156
ell 92, elapsed: 0.0005040168762207031
ell 91, elapsed: 0.0003948211669921875
ell 90, elapsed: 0.0004820823669433594
ell 89, elapsed: 0.0004038810729980469
ell 88, elapsed: 0.0004761219024658203
ell 87, elapsed: 0.00038313865661621094
ell 86, elapsed: 0.00047898292541503906
ell 85, elapsed: 0.00039196014404296875
ell 84, elapsed: 0.0004899501800537109
ell 83, elapsed: 0.0003921985626220703
ell 82, elapsed: 0.0005831718444824219
ell 81, elapsed: 0.0005102157592773438
ell 80, elapsed: 0.00048279762268066406
ell 79, elapsed: 0.0003910064697265625
ell 78, elapsed: 0.0004918575286865234
ell 77, elapsed: 0.00039005279541015625
ell 76, elapsed: 0.0006170272827148438
ell 75, elapsed: 0.0004839897155761719
ell 74, elapsed: 0.0006818771362304688
ell 73, elapsed: 0.00043892860412597656
ell 72, elapsed: 0.0004918575286865234
ell 71, elapsed: 0.0003910064697265625
ell 70, elapsed: 0.0004730224609375
ell 69, elapsed: 0.0003910064697265625
ell 68, elapsed: 0.0006299018859863281
ell 67, elapsed: 0.0005218982696533203
ell 66, elapsed: 0.0005688667297363281
ell 65, elapsed: 0.0006051063537597656
ell 64, elapsed: 0.0007259845733642578
ell 63, elapsed: 0.000453948974609375
ell 62, elapsed: 0.0005021095275878906
ell 61, elapsed: 0.0004448890686035156
ell 60, elapsed: 0.0006649494171142578
ell 59, elapsed: 0.0004780292510986328
ell 58, elapsed: 0.0006589889526367188
ell 57, elapsed: 0.0005578994750976562
ell 56, elapsed: 0.0005829334259033203
ell 55, elapsed: 0.0005669593811035156
ell 54, elapsed: 0.0005738735198974609
ell 53, elapsed: 0.0005578994750976562
ell 52, elapsed: 0.000576019287109375
ell 51, elapsed: 0.0005388259887695312
ell 50, elapsed: 0.0006361007690429688
ell 49, elapsed: 0.0003979206085205078
ell 48, elapsed: 0.0004990100860595703
ell 47, elapsed: 0.0004990100860595703
ell 46, elapsed: 0.0006401538848876953
ell 45, elapsed: 0.0005679130554199219
ell 44, elapsed: 0.0005860328674316406
ell 43, elapsed: 0.00039505958557128906
ell 42, elapsed: 0.0006999969482421875
ell 41, elapsed: 0.00047206878662109375
ell 40, elapsed: 0.0005059242248535156
ell 39, elapsed: 0.0003898143768310547
ell 38, elapsed: 0.0006191730499267578
ell 37, elapsed: 0.0004851818084716797
ell 36, elapsed: 0.0005779266357421875
ell 35, elapsed: 0.0005290508270263672
ell 34, elapsed: 0.0007109642028808594
ell 33, elapsed: 0.00042700767517089844
ell 32, elapsed: 0.00048804283142089844
ell 31, elapsed: 0.0004010200500488281
ell 30, elapsed: 0.0004849433898925781
ell 29, elapsed: 0.0003960132598876953
ell 28, elapsed: 0.0004911422729492188
ell 27, elapsed: 0.00044608116149902344
ell 26, elapsed: 0.0004830360412597656
ell 25, elapsed: 0.0003981590270996094
ell 24, elapsed: 0.00047707557678222656
ell 23, elapsed: 0.0003948211669921875
ell 22, elapsed: 0.00048089027404785156
ell 21, elapsed: 0.0003991127014160156
ell 20, elapsed: 0.0004858970642089844
ell 19, elapsed: 0.00039315223693847656
ell 18, elapsed: 0.0006518363952636719
ell 17, elapsed: 0.0004961490631103516
ell 16, elapsed: 0.0004849433898925781
ell 15, elapsed: 0.0003941059112548828
ell 14, elapsed: 0.0004799365997314453
ell 13, elapsed: 0.00039315223693847656
ell 12, elapsed: 0.0004730224609375
ell 11, elapsed: 0.0003960132598876953
ell 10, elapsed: 0.0004999637603759766
ell 9, elapsed: 0.0005648136138916016
ell 8, elapsed: 0.0005898475646972656
ell 7, elapsed: 0.0004780292510986328
ell 6, elapsed: 0.0007569789886474609
ell 5, elapsed: 0.0006289482116699219
ell 4, elapsed: 0.0006620883941650391
ell 3, elapsed: 0.0003972053527832031
ell 2, elapsed: 0.0004830360412597656
ell 1, elapsed: 0.0005898475646972656
ell 0, elapsed: 0.0005550384521484375
  0.161085 seconds (10.83 k allocations: 697.938 KiB)
elapsed: 0.0004870891571044922
step:          0.068691 sec (0 allocations: 0 byte, 0.0% gc time)
swapping:      0.000598 sec (0 allocations: 0 byte, 0.0% gc time)
calc_Mellell!: 0.001613 sec (0 allocations: 0 byte, 0.0% gc time)
  t0 :  0.000484 sec (0 allocations: 0 byte, 0.0% gc time)
  tm2 : 0.014485 sec (0 allocations: 0 byte, 0.0% gc time)
  tm2s: 0.000388 sec (0 allocations: 0 byte, 0.0% gc time)
  tm4 : 0.050938 sec (0 allocations: 0 byte, 0.0% gc time)
  tp2 : 0.0 sec (0 allocations: 0 byte, 0.0% gc time)
  tp2s: 0.0 sec (0 allocations: 0 byte, 0.0% gc time)
  tp4 : 0.0 sec (0 allocations: 0 byte, 0.0% gc time)
calc_wtdll!:   0.066914 sec (1.344 k allocations: 147.0 KB, 0.0% gc time)
calc_wljj!:    0.004222 sec (6 allocations: 96 byte, 0.0% gc time)
mult_prefac!:  0.0 sec (0 allocations: 0 byte, 0.0% gc time)
convert:       0.0 sec (0 allocations: 0 byte, 0.0% gc time)
write:         0.006199 sec (0 allocations: 0 byte, 0.0% gc time)
test_rand_2f1: 0.0 sec (0 allocations: 0 byte, 0.0% gc time)
Closing outfile out/Ml21-cache.bin...   0.004281 seconds
  0.000254 seconds (52 allocations: 28.297 KiB)
make_phi():   0.002651 seconds (8.20 k allocations: 238.016 KiB)
  0.017025 seconds (12.10 k allocations: 322.000 KiB)
tskip:       2.4e-5 sec (0 allocations: 0 byte, 0.0% gc time)
tread:       0.002671 sec (19 allocations: 2.172 KB, 0.0% gc time)
tmultphi:    0.00124 sec (0 allocations: 0 byte, 0.0% gc time)
tbrfft:      0.004302 sec (896 allocations: 42.0 KB, 0.0% gc time)
tmultprefac: 0.003701 sec (0 allocations: 0 byte, 0.0% gc time)
toutfunc:    0.005102 sec (10.528 k allocations: 206.5 KB, 0.0% gc time)
Testing R=0.9 ... passed
Calculating fmax: 
  dlrec    = 4
  dlrecRg1 = -4
  q=1.1, R=0.8:	  0.369473 seconds (113.61 k allocations: 15.166 MiB)

  0.369732 seconds (113.65 k allocations: 15.200 MiB)
ℓ = 1202
Δℓ = 4
ΔℓRg1 = -4
N = 1600
q = 1.1
kmin = 1.0e-5
kmax = 100000.00000000004
χ0 = 0.023029999999999995
RR = RR.tsv
ℓmax = ℓmax.bin
f21 = f21.bin
kmin = 1.0e-5
kmax = 100000.0
dlrec    = 4
dlrecRg1 = -4
Output size: 5741568 bytes = 0.005347251892089844 GiB
Output size: 51264 bytes = 4.774332046508789e-5 GiB
Reading 'out/F21EllCache'...   0.001060 seconds (267 allocations: 84.656 KiB)
ellmax: 1202
lmaxcache: 1202
fell[:,1,1] = Complex{Float64}[7.519068145690986e-120 - 1.8416405474382574e-135im, 7.541664537386155e-120 - 1.847175067190611e-135im]
ell 1202, elapsed: 2.5987625122070312e-5
ell 1201, elapsed: 0.0004470348358154297
ell 1200, elapsed: 0.0003910064697265625
ell 1199, elapsed: 0.00039005279541015625
ell 1198, elapsed: 0.0003960132598876953
ell 1002, elapsed: 0.01005697250366211
ell 1001, elapsed: 0.00039005279541015625
ell 1000, elapsed: 0.0003559589385986328
ell 999, elapsed: 0.0003628730773925781
ell 998, elapsed: 0.0003509521484375
ell 902, elapsed: 0.005613803863525391
ell 901, elapsed: 0.0003681182861328125
ell 900, elapsed: 0.0006442070007324219
ell 899, elapsed: 0.0003590583801269531
ell 898, elapsed: 0.0003478527069091797
ell 802, elapsed: 0.006003856658935547
ell 801, elapsed: 0.0003941059112548828
ell 800, elapsed: 0.0004382133483886719
ell 799, elapsed: 0.00037384033203125
ell 798, elapsed: 0.0003631114959716797
ell 702, elapsed: 0.0054280757904052734
ell 701, elapsed: 0.0003819465637207031
ell 700, elapsed: 0.00036215782165527344
ell 699, elapsed: 0.00037288665771484375
ell 698, elapsed: 0.00045490264892578125
ell 602, elapsed: 0.005656003952026367
ell 601, elapsed: 0.0003809928894042969
ell 600, elapsed: 0.00034999847412109375
ell 599, elapsed: 0.0003490447998046875
ell 598, elapsed: 0.0003581047058105469
ell 502, elapsed: 0.005247831344604492
ell 501, elapsed: 0.0004911422729492188
ell 500, elapsed: 0.0004858970642089844
ell 499, elapsed: 0.0003509521484375
ell 498, elapsed: 0.0005040168762207031
ell 402, elapsed: 0.005586147308349609
ell 401, elapsed: 0.00038504600524902344
ell 400, elapsed: 0.0003559589385986328
ell 399, elapsed: 0.00034809112548828125
ell 398, elapsed: 0.0003571510314941406
ell 302, elapsed: 0.00527501106262207
ell 301, elapsed: 0.0004630088806152344
ell 300, elapsed: 0.0006759166717529297
ell 299, elapsed: 0.0005578994750976562
ell 298, elapsed: 0.0005559921264648438
ell 202, elapsed: 0.00553584098815918
ell 201, elapsed: 0.0003719329833984375
ell 200, elapsed: 0.00044608116149902344
ell 199, elapsed: 0.0003571510314941406
ell 198, elapsed: 0.00035190582275390625
ell 152, elapsed: 0.0026710033416748047
ell 151, elapsed: 0.0005850791931152344
ell 150, elapsed: 0.00044417381286621094
ell 149, elapsed: 0.00034809112548828125
ell 148, elapsed: 0.0004801750183105469
ell 127, elapsed: 0.0017740726470947266
ell 126, elapsed: 0.0005879402160644531
ell 125, elapsed: 0.0004360675811767578
ell 124, elapsed: 0.000347137451171875
ell 123, elapsed: 0.00034618377685546875
ell 114, elapsed: 0.0008020401000976562
ell 113, elapsed: 0.00035500526428222656
ell 112, elapsed: 0.0004379749298095703
ell 111, elapsed: 0.0005009174346923828
ell 110, elapsed: 0.0004391670227050781
ell 102, elapsed: 0.0008678436279296875
ell 101, elapsed: 0.00046706199645996094
ell 100, elapsed: 0.0005550384521484375
ell 99, elapsed: 0.0005388259887695312
ell 98, elapsed: 0.0004761219024658203
ell 97, elapsed: 0.00047397613525390625
ell 96, elapsed: 0.0008549690246582031
ell 95, elapsed: 0.0006291866302490234
ell 94, elapsed: 0.0006639957427978516
ell 93, elapsed: 0.0005619525909423828
ell 92, elapsed: 0.00074005126953125
ell 91, elapsed: 0.0007431507110595703
ell 90, elapsed: 0.0005900859832763672
ell 89, elapsed: 0.00038886070251464844
ell 88, elapsed: 0.00048804283142089844
ell 87, elapsed: 0.0003941059112548828
ell 86, elapsed: 0.0006809234619140625
ell 85, elapsed: 0.00061798095703125
ell 84, elapsed: 0.0008451938629150391
ell 83, elapsed: 0.0006148815155029297
ell 82, elapsed: 0.0005757808685302734
ell 81, elapsed: 0.0005228519439697266
ell 80, elapsed: 0.0007231235504150391
ell 79, elapsed: 0.0005469322204589844
ell 78, elapsed: 0.0006039142608642578
ell 77, elapsed: 0.00039505958557128906
ell 76, elapsed: 0.00048804283142089844
ell 75, elapsed: 0.0003941059112548828
ell 74, elapsed: 0.0004918575286865234
ell 73, elapsed: 0.000392913818359375
ell 72, elapsed: 0.0004940032958984375
ell 71, elapsed: 0.00038886070251464844
ell 70, elapsed: 0.0005390644073486328
ell 69, elapsed: 0.0004000663757324219
ell 68, elapsed: 0.00047588348388671875
ell 67, elapsed: 0.00038886070251464844
ell 66, elapsed: 0.0004949569702148438
ell 65, elapsed: 0.0003910064697265625
ell 64, elapsed: 0.0004858970642089844
ell 63, elapsed: 0.00039696693420410156
ell 62, elapsed: 0.0004830360412597656
ell 61, elapsed: 0.0004138946533203125
ell 60, elapsed: 0.0004918575286865234
ell 59, elapsed: 0.0003910064697265625
ell 58, elapsed: 0.0004980564117431641
ell 57, elapsed: 0.00039505958557128906
ell 56, elapsed: 0.0004870891571044922
ell 55, elapsed: 0.00039005279541015625
ell 54, elapsed: 0.0004899501800537109
ell 53, elapsed: 0.0004138946533203125
ell 52, elapsed: 0.0004851818084716797
ell 51, elapsed: 0.0004029273986816406
ell 50, elapsed: 0.0004780292510986328
ell 49, elapsed: 0.00039577484130859375
ell 48, elapsed: 0.0004918575286865234
ell 47, elapsed: 0.000392913818359375
ell 46, elapsed: 0.0004889965057373047
ell 45, elapsed: 0.0003979206085205078
ell 44, elapsed: 0.00047588348388671875
ell 43, elapsed: 0.0004048347473144531
ell 42, elapsed: 0.0004830360412597656
ell 41, elapsed: 0.00038814544677734375
ell 40, elapsed: 0.0004899501800537109
ell 39, elapsed: 0.00039505958557128906
ell 38, elapsed: 0.0004830360412597656
ell 37, elapsed: 0.0003941059112548828
ell 36, elapsed: 0.00048613548278808594
ell 35, elapsed: 0.0003960132598876953
ell 34, elapsed: 0.0004677772521972656
ell 33, elapsed: 0.00039505958557128906
ell 32, elapsed: 0.0004858970642089844
ell 31, elapsed: 0.0003898143768310547
ell 30, elapsed: 0.0004818439483642578
ell 29, elapsed: 0.0003960132598876953
ell 28, elapsed: 0.0005221366882324219
ell 27, elapsed: 0.0004050731658935547
ell 26, elapsed: 0.00047707557678222656
ell 25, elapsed: 0.0004019737243652344
ell 24, elapsed: 0.00048089027404785156
ell 23, elapsed: 0.000392913818359375
ell 22, elapsed: 0.00048613548278808594
ell 21, elapsed: 0.00039386749267578125
ell 20, elapsed: 0.000476837158203125
ell 19, elapsed: 0.0004439353942871094
ell 18, elapsed: 0.0004801750183105469
ell 17, elapsed: 0.00039887428283691406
ell 16, elapsed: 0.0004839897155761719
[...]
ell 788, elapsed: 0.001210927963256836
ell 782, elapsed: 0.0022912025451660156
ell 781, elapsed: 0.0011868476867675781
ell 780, elapsed: 0.0012722015380859375
ell 779, elapsed: 0.001238107681274414
ell 778, elapsed: 0.00119781494140625
ell 772, elapsed: 0.002440929412841797
ell 771, elapsed: 0.0012369155883789062
ell 770, elapsed: 0.0012049674987792969
ell 769, elapsed: 0.0012052059173583984
ell 768, elapsed: 0.0012280941009521484
ell 762, elapsed: 0.002179861068725586
ell 761, elapsed: 0.0011928081512451172
ell 760, elapsed: 0.0012700557708740234
ell 759, elapsed: 0.0013179779052734375
ell 758, elapsed: 0.0012848377227783203
ell 752, elapsed: 0.002190113067626953
ell 751, elapsed: 0.0012199878692626953
ell 750, elapsed: 0.0010399818420410156
ell 749, elapsed: 0.0007569789886474609
ell 748, elapsed: 0.0007770061492919922
ell 742, elapsed: 0.0014770030975341797
ell 741, elapsed: 0.0007550716400146484
ell 740, elapsed: 0.0007860660552978516
ell 739, elapsed: 0.0007998943328857422
ell 738, elapsed: 0.0008778572082519531
ell 732, elapsed: 0.0014319419860839844
ell 731, elapsed: 0.0007939338684082031
ell 730, elapsed: 0.0008101463317871094
ell 729, elapsed: 0.0008349418640136719
ell 728, elapsed: 0.0007779598236083984
ell 722, elapsed: 0.0014190673828125
ell 721, elapsed: 0.0007519721984863281
ell 720, elapsed: 0.0008051395416259766
ell 719, elapsed: 0.0007579326629638672
ell 718, elapsed: 0.0007781982421875
ell 712, elapsed: 0.0016829967498779297
ell 711, elapsed: 0.0007460117340087891
ell 710, elapsed: 0.0007879734039306641
ell 709, elapsed: 0.0007951259613037109
ell 708, elapsed: 0.0008058547973632812
ell 702, elapsed: 0.0014908313751220703
ell 701, elapsed: 0.0007948875427246094
ell 700, elapsed: 0.0007529258728027344
ell 699, elapsed: 0.0007557868957519531
ell 698, elapsed: 0.0008120536804199219
ell 692, elapsed: 0.0015838146209716797
ell 691, elapsed: 0.0007719993591308594
ell 690, elapsed: 0.0007460117340087891
ell 689, elapsed: 0.0007550716400146484
ell 688, elapsed: 0.0008108615875244141
ell 682, elapsed: 0.0016319751739501953
ell 681, elapsed: 0.0007090568542480469
ell 680, elapsed: 0.0008080005645751953
ell 679, elapsed: 0.0008330345153808594
ell 678, elapsed: 0.0008189678192138672
ell 672, elapsed: 0.0014948844909667969
ell 671, elapsed: 0.0007371902465820312
ell 670, elapsed: 0.0007688999176025391
ell 669, elapsed: 0.0007388591766357422
ell 668, elapsed: 0.0007901191711425781
ell 662, elapsed: 0.0016570091247558594
ell 661, elapsed: 0.0007741451263427734
ell 660, elapsed: 0.0007488727569580078
ell 659, elapsed: 0.0007619857788085938
ell 658, elapsed: 0.0007829666137695312
ell 652, elapsed: 0.0015430450439453125
ell 651, elapsed: 0.0007579326629638672
ell 650, elapsed: 0.0007441043853759766
ell 649, elapsed: 0.0007519721984863281
ell 648, elapsed: 0.0008139610290527344
ell 642, elapsed: 0.0017139911651611328
ell 641, elapsed: 0.0006887912750244141
ell 640, elapsed: 0.0007469654083251953
ell 639, elapsed: 0.0007429122924804688
ell 638, elapsed: 0.0008251667022705078
ell 632, elapsed: 0.0016961097717285156
ell 631, elapsed: 0.0007801055908203125
ell 630, elapsed: 0.0007929801940917969
ell 629, elapsed: 0.0007879734039306641
ell 628, elapsed: 0.0008020401000976562
ell 622, elapsed: 0.0015590190887451172
ell 621, elapsed: 0.0007960796356201172
ell 620, elapsed: 0.0007998943328857422
ell 619, elapsed: 0.0007610321044921875
ell 618, elapsed: 0.0007641315460205078
ell 612, elapsed: 0.0018019676208496094
ell 611, elapsed: 0.0007908344268798828
ell 610, elapsed: 0.0007658004760742188
ell 609, elapsed: 0.0007481575012207031
ell 608, elapsed: 0.0007731914520263672
ell 602, elapsed: 0.0048940181732177734
ell 601, elapsed: 0.0008130073547363281
ell 600, elapsed: 0.0007641315460205078
ell 599, elapsed: 0.0007379055023193359
ell 598, elapsed: 0.0007460117340087891
ell 592, elapsed: 0.0015869140625
ell 591, elapsed: 0.0007839202880859375
ell 590, elapsed: 0.0009758472442626953
ell 589, elapsed: 0.0010590553283691406
ell 588, elapsed: 0.0010440349578857422
ell 582, elapsed: 0.0015540122985839844
ell 581, elapsed: 0.000759124755859375
ell 580, elapsed: 0.0008699893951416016
ell 579, elapsed: 0.0011281967163085938
ell 578, elapsed: 0.0011410713195800781
ell 572, elapsed: 0.0015189647674560547
ell 571, elapsed: 0.0007789134979248047
ell 570, elapsed: 0.0008039474487304688
ell 569, elapsed: 0.0007741451263427734
ell 568, elapsed: 0.0010590553283691406
ell 562, elapsed: 0.0017199516296386719
ell 561, elapsed: 0.0014729499816894531
ell 560, elapsed: 0.0008919239044189453
ell 559, elapsed: 0.000946044921875
ell 558, elapsed: 0.0009589195251464844
ell 552, elapsed: 0.0018739700317382812
ell 551, elapsed: 0.0007698535919189453
ell 550, elapsed: 0.0008180141448974609
ell 549, elapsed: 0.0013010501861572266
ell 548, elapsed: 0.0009241104125976562
ell 542, elapsed: 0.0016939640045166016
ell 541, elapsed: 0.0009360313415527344
ell 540, elapsed: 0.0007979869842529297
ell 539, elapsed: 0.0008671283721923828
ell 538, elapsed: 0.00125885009765625
ell 532, elapsed: 0.0018758773803710938
ell 531, elapsed: 0.0007920265197753906
ell 530, elapsed: 0.0010859966278076172
ell 529, elapsed: 0.00074005126953125
ell 528, elapsed: 0.0007748603820800781
ell 522, elapsed: 0.0016260147094726562
ell 521, elapsed: 0.0012669563293457031
ell 520, elapsed: 0.0008080005645751953
ell 519, elapsed: 0.0008289813995361328
ell 518, elapsed: 0.0007870197296142578
ell 512, elapsed: 0.0015208721160888672
ell 511, elapsed: 0.0007550716400146484
ell 510, elapsed: 0.0008699893951416016
ell 509, elapsed: 0.001219034194946289
ell 508, elapsed: 0.001043081283569336
ell 502, elapsed: 0.002213001251220703
ell 501, elapsed: 0.0009579658508300781
ell 500, elapsed: 0.0010750293731689453
ell 499, elapsed: 0.0011439323425292969
ell 498, elapsed: 0.000982046127319336
ell 492, elapsed: 0.0018799304962158203
ell 491, elapsed: 0.0009491443634033203
ell 490, elapsed: 0.0007901191711425781
ell 489, elapsed: 0.0007951259613037109
ell 488, elapsed: 0.000946044921875
ell 482, elapsed: 0.0017371177673339844
ell 481, elapsed: 0.0008831024169921875
ell 480, elapsed: 0.0009551048278808594
ell 479, elapsed: 0.0009019374847412109
ell 478, elapsed: 0.0007710456848144531
ell 472, elapsed: 0.0016078948974609375
ell 471, elapsed: 0.0007431507110595703
ell 470, elapsed: 0.0009829998016357422
ell 469, elapsed: 0.0008189678192138672
ell 468, elapsed: 0.0007829666137695312
ell 462, elapsed: 0.0017430782318115234
ell 461, elapsed: 0.0007879734039306641
ell 460, elapsed: 0.0008389949798583984
ell 459, elapsed: 0.0007879734039306641
ell 458, elapsed: 0.0007688999176025391
ell 452, elapsed: 0.0014140605926513672
ell 451, elapsed: 0.0007970333099365234
ell 450, elapsed: 0.0007801055908203125
ell 449, elapsed: 0.0007350444793701172
ell 448, elapsed: 0.0012030601501464844
ell 442, elapsed: 0.0015070438385009766
ell 441, elapsed: 0.0007989406585693359
ell 440, elapsed: 0.0007379055023193359
ell 439, elapsed: 0.0007839202880859375
ell 438, elapsed: 0.0008051395416259766
ell 432, elapsed: 0.0014848709106445312
ell 431, elapsed: 0.0008029937744140625
ell 430, elapsed: 0.0007989406585693359
ell 429, elapsed: 0.0007929801940917969
ell 428, elapsed: 0.0007410049438476562
ell 422, elapsed: 0.0018339157104492188
ell 421, elapsed: 0.0008008480072021484
ell 420, elapsed: 0.0007908344268798828
ell 419, elapsed: 0.0007848739624023438
ell 418, elapsed: 0.0007450580596923828
ell 412, elapsed: 0.0017139911651611328
ell 411, elapsed: 0.000827789306640625
ell 410, elapsed: 0.0007920265197753906
ell 409, elapsed: 0.0007688999176025391
ell 408, elapsed: 0.0008141994476318359
ell 402, elapsed: 0.0015230178833007812
ell 401, elapsed: 0.0007960796356201172
ell 400, elapsed: 0.0011401176452636719
ell 399, elapsed: 0.0007901191711425781
ell 398, elapsed: 0.0007860660552978516
ell 392, elapsed: 0.0014758110046386719
ell 391, elapsed: 0.0007848739624023438
ell 390, elapsed: 0.0007600784301757812
ell 389, elapsed: 0.0007548332214355469
ell 388, elapsed: 0.0008077621459960938
ell 382, elapsed: 0.001577138900756836
ell 381, elapsed: 0.0008058547973632812
ell 380, elapsed: 0.0008001327514648438
ell 379, elapsed: 0.0007431507110595703
ell 378, elapsed: 0.0007469654083251953
ell 372, elapsed: 0.0014798641204833984
ell 371, elapsed: 0.0007879734039306641
ell 370, elapsed: 0.0007910728454589844
ell 369, elapsed: 0.0007700920104980469
ell 368, elapsed: 0.0007648468017578125
ell 362, elapsed: 0.0015799999237060547
ell 361, elapsed: 0.0008151531219482422
ell 360, elapsed: 0.0007710456848144531
ell 359, elapsed: 0.0007960796356201172
ell 358, elapsed: 0.0008230209350585938
ell 352, elapsed: 0.0017740726470947266
ell 351, elapsed: 0.0007510185241699219
ell 350, elapsed: 0.0007500648498535156
ell 349, elapsed: 0.0007529258728027344
ell 348, elapsed: 0.0008058547973632812
ell 342, elapsed: 0.001499176025390625
ell 341, elapsed: 0.001069784164428711
ell 340, elapsed: 0.0008060932159423828
ell 339, elapsed: 0.0008039474487304688
ell 338, elapsed: 0.0008199214935302734
ell 332, elapsed: 0.0014879703521728516
ell 331, elapsed: 0.0008931159973144531
ell 330, elapsed: 0.000762939453125
ell 329, elapsed: 0.0007560253143310547
ell 328, elapsed: 0.0008149147033691406
ell 322, elapsed: 0.0016429424285888672
ell 321, elapsed: 0.0007679462432861328
ell 320, elapsed: 0.0007369518280029297
ell 319, elapsed: 0.0007739067077636719
ell 318, elapsed: 0.0007810592651367188
ell 312, elapsed: 0.0014948844909667969
ell 311, elapsed: 0.0007989406585693359
ell 310, elapsed: 0.0008068084716796875
ell 309, elapsed: 0.0008161067962646484
ell 308, elapsed: 0.0008990764617919922
ell 302, elapsed: 0.001425027847290039
ell 301, elapsed: 0.0007550716400146484
ell 300, elapsed: 0.0007560253143310547
ell 299, elapsed: 0.0008440017700195312
ell 298, elapsed: 0.0007801055908203125
ell 292, elapsed: 0.0014829635620117188
ell 291, elapsed: 0.0007739067077636719
ell 290, elapsed: 0.0008349418640136719
ell 289, elapsed: 0.0008058547973632812
ell 288, elapsed: 0.0008149147033691406
ell 282, elapsed: 0.0014681816101074219
ell 281, elapsed: 0.0011169910430908203
ell 280, elapsed: 0.0007710456848144531
ell 279, elapsed: 0.0007679462432861328
ell 278, elapsed: 0.0007688999176025391
ell 272, elapsed: 0.0017559528350830078
ell 271, elapsed: 0.0007600784301757812
ell 270, elapsed: 0.0008358955383300781
ell 269, elapsed: 0.0009248256683349609
ell 268, elapsed: 0.0009639263153076172
ell 262, elapsed: 0.0017910003662109375
ell 261, elapsed: 0.0008940696716308594
ell 260, elapsed: 0.0009570121765136719
ell 259, elapsed: 0.0009648799896240234
ell 258, elapsed: 0.0008502006530761719
ell 252, elapsed: 0.0017740726470947266
ell 251, elapsed: 0.0007719993591308594
ell 250, elapsed: 0.0009300708770751953
ell 249, elapsed: 0.0009679794311523438
ell 248, elapsed: 0.0007970333099365234
ell 242, elapsed: 0.001802206039428711
ell 241, elapsed: 0.0008909702301025391
ell 240, elapsed: 0.0007529258728027344
ell 239, elapsed: 0.0007691383361816406
ell 238, elapsed: 0.0007889270782470703
ell 232, elapsed: 0.0014941692352294922
ell 231, elapsed: 0.0007951259613037109
ell 230, elapsed: 0.0008130073547363281
ell 229, elapsed: 0.0008029937744140625
ell 228, elapsed: 0.0008080005645751953
ell 222, elapsed: 0.0013248920440673828
ell 221, elapsed: 0.0007829666137695312
ell 220, elapsed: 0.0006930828094482422
ell 219, elapsed: 0.0007748603820800781
ell 218, elapsed: 0.0007650852203369141
ell 212, elapsed: 0.0014889240264892578
ell 211, elapsed: 0.0008089542388916016
ell 210, elapsed: 0.0009970664978027344
ell 209, elapsed: 0.0007359981536865234
ell 208, elapsed: 0.0007851123809814453
ell 202, elapsed: 0.0016980171203613281
ell 201, elapsed: 0.0009541511535644531
ell 200, elapsed: 0.0008690357208251953
ell 199, elapsed: 0.0009560585021972656
ell 198, elapsed: 0.0009729862213134766
ell 192, elapsed: 0.0017130374908447266
ell 191, elapsed: 0.0009598731994628906
ell 190, elapsed: 0.000843048095703125
ell 189, elapsed: 0.0008211135864257812
ell 188, elapsed: 0.0010600090026855469
ell 182, elapsed: 0.0022580623626708984
ell 181, elapsed: 0.0007829666137695312
ell 180, elapsed: 0.000804901123046875
ell 179, elapsed: 0.0007760524749755859
ell 178, elapsed: 0.0008409023284912109
ell 172, elapsed: 0.0015778541564941406
ell 171, elapsed: 0.0008139610290527344
ell 170, elapsed: 0.0008139610290527344
ell 169, elapsed: 0.0008289813995361328
ell 168, elapsed: 0.0007889270782470703
ell 162, elapsed: 0.0015780925750732422
ell 161, elapsed: 0.0007951259613037109
ell 160, elapsed: 0.0008330345153808594
ell 159, elapsed: 0.0008280277252197266
ell 158, elapsed: 0.0008158683776855469
ell 152, elapsed: 0.0015909671783447266
ell 151, elapsed: 0.0008161067962646484
ell 150, elapsed: 0.0008041858673095703
ell 149, elapsed: 0.0007829666137695312
ell 148, elapsed: 0.0008149147033691406
ell 142, elapsed: 0.0016200542449951172
ell 141, elapsed: 0.000762939453125
ell 140, elapsed: 0.0007951259613037109
ell 139, elapsed: 0.0008230209350585938
ell 138, elapsed: 0.0009031295776367188
ell 132, elapsed: 0.0017120838165283203
ell 131, elapsed: 0.0007579326629638672
ell 130, elapsed: 0.0007920265197753906
ell 129, elapsed: 0.0008480548858642578
ell 128, elapsed: 0.0007550716400146484
ell 122, elapsed: 0.0015180110931396484
ell 121, elapsed: 0.0008091926574707031
ell 120, elapsed: 0.0009109973907470703
ell 119, elapsed: 0.0008020401000976562
ell 118, elapsed: 0.0007879734039306641
ell 112, elapsed: 0.0014679431915283203
ell 111, elapsed: 0.0008699893951416016
ell 110, elapsed: 0.00080108642578125
ell 109, elapsed: 0.0007948875427246094
ell 108, elapsed: 0.0008041858673095703
ell 102, elapsed: 0.0015931129455566406
ell 101, elapsed: 0.0032088756561279297
ell 100, elapsed: 0.0033941268920898438
ell 99, elapsed: 0.0039179325103759766
ell 98, elapsed: 0.003471851348876953
ell 92, elapsed: 0.006648063659667969
ell 91, elapsed: 0.0036270618438720703
ell 90, elapsed: 0.003757953643798828
ell 89, elapsed: 0.0034301280975341797
ell 88, elapsed: 0.0035059452056884766
ell 82, elapsed: 0.006153106689453125
ell 81, elapsed: 0.0034749507904052734
ell 80, elapsed: 0.003451824188232422
ell 79, elapsed: 0.0033202171325683594
ell 78, elapsed: 0.003345012664794922
ell 72, elapsed: 0.006045103073120117
ell 71, elapsed: 0.003376007080078125
ell 70, elapsed: 0.0033121109008789062
ell 69, elapsed: 0.003359079360961914
ell 68, elapsed: 0.003134012222290039
ell 62, elapsed: 0.006003141403198242
ell 61, elapsed: 0.0035889148712158203
ell 60, elapsed: 0.0031499862670898438
ell 59, elapsed: 0.003287792205810547
ell 58, elapsed: 0.003125905990600586
ell 52, elapsed: 0.005909919738769531
ell 51, elapsed: 0.003225088119506836
ell 50, elapsed: 0.0031349658966064453
ell 49, elapsed: 0.0032799243927001953
ell 48, elapsed: 0.0032820701599121094
ell 42, elapsed: 0.006039857864379883
ell 41, elapsed: 0.003136157989501953
ell 40, elapsed: 0.0033240318298339844
ell 39, elapsed: 0.003155946731567383
ell 38, elapsed: 0.003325939178466797
ell 32, elapsed: 0.005897998809814453
ell 31, elapsed: 0.0035750865936279297
ell 30, elapsed: 0.0034720897674560547
ell 29, elapsed: 0.003451108932495117
ell 28, elapsed: 0.0034041404724121094
ell 22, elapsed: 0.005959987640380859
ell 21, elapsed: 0.003345012664794922
ell 20, elapsed: 0.003170013427734375
ell 19, elapsed: 0.003387928009033203
ell 18, elapsed: 0.003167867660522461
ell 12, elapsed: 0.006157875061035156
ell 11, elapsed: 0.0031311511993408203
ell 10, elapsed: 0.003381013870239258
ell 9, elapsed: 0.003164052963256836
ell 8, elapsed: 0.0032949447631835938
  0.773649 seconds (66.75 k allocations: 12.139 MiB)
elapsed: 0.004053831100463867
step:          0.068014 sec (0 allocations: 0 byte, 0.0% gc time)
swapping:      0.000746 sec (0 allocations: 0 byte, 0.0% gc time)
calc_Mellell!: 0.035754 sec (0 allocations: 0 byte, 0.0% gc time)
  t0 :  0.012039 sec (0 allocations: 0 byte, 0.0% gc time)
  tm2 : 0.070443 sec (0 allocations: 0 byte, 0.0% gc time)
  tm2s: 0.008949 sec (0 allocations: 0 byte, 0.0% gc time)
  tm4 : 0.174435 sec (0 allocations: 0 byte, 0.0% gc time)
  tp2 : 0.0 sec (0 allocations: 0 byte, 0.0% gc time)
  tp2s: 0.0 sec (0 allocations: 0 byte, 0.0% gc time)
  tp4 : 0.0 sec (0 allocations: 0 byte, 0.0% gc time)
calc_wtdll!:   0.541057 sec (49.2 k allocations: 11.133 MB, 0.0% gc time)
calc_wljj!:    0.040428 sec (69 allocations: 1.078 KB, 0.0% gc time)
mult_prefac!:  0.0 sec (0 allocations: 0 byte, 0.0% gc time)
convert:       0.0 sec (0 allocations: 0 byte, 0.0% gc time)
write:         0.039918 sec (0 allocations: 0 byte, 0.0% gc time)
test_rand_2f1: 0.0 sec (0 allocations: 0 byte, 0.0% gc time)
Closing outfile out/MlCache/MlCache.bin...   0.000012 seconds
xi, l=0, nu=0:   0.417265 seconds (551.85 k allocations: 26.842 MiB, 3.36% gc time)
xi, l=0, nu=-2:  0.002407 seconds (144 allocations: 149.562 KiB)
Created 'out/xi.tsv'.
  q=1.1, R=0.6:	  0.733369 seconds (291.08 k allocations: 38.895 MiB, 2.34% gc time)
  q=1.1, R=0.7:	  0.894184 seconds (304.75 k allocations: 40.996 MiB, 1.09% gc time)
  q=1.1, R=0.8:	  0.856609 seconds (299.14 k allocations: 40.132 MiB, 0.86% gc time)
  q=1.1, R=0.9:	  1.057163 seconds (293.57 k allocations: 39.286 MiB, 1.06% gc time)
  q=1.1, R=0.998:	 20.709521 seconds (10.67 M allocations: 823.453 MiB, 0.35% gc time)
  q=1.1, R=1.0:	  0.004268 seconds (10.24 k allocations: 768.375 KiB)

ℓ = 1000
Δℓ = 4
ΔℓRg1 = -4
N = 4096
q = 1.1
kmin = 1.0e-5
kmax = 1000.0
χ0 = 0.001
RR = RR.tsv
ℓmax = ℓmax.bin
f21 = f21.bin
kmin = 1.0e-5
kmax = 1000.0
dlrec    = 4
dlrecRg1 = -4
Output size: 1573632 bytes = 0.0014655590057373047 GiB
Output size: 786816 bytes = 0.0007327795028686523 GiB
Reading 'out/F21EllCache'...   0.001602 seconds (268 allocations: 533.531 KiB)
ellmax: 1002
lmaxcache: 1000
fell[:,1,1] = Complex{Float64}[1.7262928128202118e-224 - 4.2281979352226944e-240im, 1.7282693092099662e-224 - 4.233038955177176e-240im]
ell 1002, elapsed: 1.8835067749023438e-5
ell 1001, elapsed: 0.0013539791107177734
ell 1000, elapsed: 0.0011811256408691406
ell 999, elapsed: 0.007908105850219727
ell 998, elapsed: 0.007793903350830078
ell 44, elapsed: 0.6597869396209717
ell 43, elapsed: 0.005388021469116211
ell 42, elapsed: 0.005546092987060547
ell 41, elapsed: 0.005621910095214844
ell 40, elapsed: 0.005580902099609375
  0.707194 seconds (4.55 k allocations: 320.359 KiB)
elapsed: 0.0066950321197509766
step:          0.654725 sec (0 allocations: 0 byte, 0.0% gc time)
swapping:      0.000509 sec (0 allocations: 0 byte, 0.0% gc time)
calc_Mellell!: 0.001489 sec (0 allocations: 0 byte, 0.0% gc time)
  t0 :  0.00095 sec (0 allocations: 0 byte, 0.0% gc time)
  tm2 : 0.011178 sec (0 allocations: 0 byte, 0.0% gc time)
  tm2s: 0.000908 sec (0 allocations: 0 byte, 0.0% gc time)
  tm4 : 0.031865 sec (0 allocations: 0 byte, 0.0% gc time)
  tp2 : 0.0 sec (0 allocations: 0 byte, 0.0% gc time)
  tp2s: 0.0 sec (0 allocations: 0 byte, 0.0% gc time)
  tp4 : 0.0 sec (0 allocations: 0 byte, 0.0% gc time)
calc_wtdll!:   0.045076 sec (480 allocations: 52.5 KB, 0.0% gc time)
calc_wljj!:    0.00152 sec (1 allocations: 16 byte, 0.0% gc time)
mult_prefac!:  0.0 sec (0 allocations: 0 byte, 0.0% gc time)
convert:       0.0 sec (0 allocations: 0 byte, 0.0% gc time)
write:         0.000937 sec (0 allocations: 0 byte, 0.0% gc time)
test_rand_2f1: 0.0 sec (0 allocations: 0 byte, 0.0% gc time)
Closing outfile out/MlCache/MlCache.bin...   0.001567 seconds
  0.491906 seconds (54 allocations: 67.203 KiB)
make_phi():   0.009280 seconds (80 allocations: 276.297 KiB)
  0.003575 seconds (108 allocations: 5.812 KiB)
tskip:       1.0e-6 sec (0 allocations: 0 byte, 0.0% gc time)
tread:       0.000666 sec (19 allocations: 1.312 KB, 0.0% gc time)
tmultphi:    0.000314 sec (0 allocations: 0 byte, 0.0% gc time)
tbrfft:      0.001358 sec (96 allocations: 4.5 KB, 0.0% gc time)
tmultprefac: 0.001107 sec (0 allocations: 0 byte, 0.0% gc time)
toutfunc:    0.000246 sec (0 allocations: 0 byte, 0.0% gc time)
Created 'out/wl42_jj00.tsv'.
Created 'out/wl42_jj02.tsv'.
   Testing TwoFAST tests passed 
