Julia Version 1.6.0-DEV.952
Commit 4ef8313c94 (2020-09-17 11:39 UTC)
Platform Info:
  OS: Linux (x86_64-pc-linux-gnu)
  CPU: Intel(R) Xeon(R) Silver 4114 CPU @ 2.20GHz
  WORD_SIZE: 64
  LIBM: libopenlibm
  LLVM: libLLVM-9.0.1 (ORCJIT, skylake-avx512)
Environment:
  JULIA_DEPOT_PATH = ::/usr/local/share/julia
  JULIA_NUM_THREADS = 2

  Resolving package versions...
[ Info: LEGAL NOTICE: package operations send anonymous data about your system to https://pkg.julialang.org (your current package server), including the operating system and Julia versions you are using, and a random client UUID. Running `Pkg.telemetryinfo()` will show exactly what data is sent. See https://julialang.org/legal/data/ for more details about what this data is used for, how long it is retained, and how to opt out of sending it.
  Installed IntelOpenMP_jll ────────────── v2018.0.3+0
  Installed MKL_jll ────────────────────── v2020.2.254+0
  Installed BinaryProvider ─────────────── v0.5.10
  Installed Readables ──────────────────── v0.3.3
  Installed AbstractFFTs ───────────────── v0.5.0
  Installed GenericSVD ─────────────────── v0.3.0
  Installed GenericSchur ───────────────── v0.4.0
  Installed Reexport ───────────────────── v0.2.0
  Installed FFTW_jll ───────────────────── v3.3.9+5
  Installed FFTW ───────────────────────── v1.2.4
  Installed CompilerSupportLibraries_jll ─ v0.3.3+0
  Installed OpenSpecFun_jll ────────────── v0.5.3+3
  Installed SpecialFunctions ───────────── v0.10.3
  Installed TwoFAST ────────────────────── v0.1.3
  Installed ArbNumerics ────────────────── v1.2.1
Updating `~/.julia/environments/v1.6/Project.toml`
  [0dd23c3e] + TwoFAST v0.1.3
Updating `~/.julia/environments/v1.6/Manifest.toml`
  [621f4979] + AbstractFFTs v0.5.0
  [7e558dbc] + ArbNumerics v1.2.1
  [b99e7846] + BinaryProvider v0.5.10
  [e66e0078] + CompilerSupportLibraries_jll v0.3.3+0
  [7a1cc6ca] + FFTW v1.2.4
  [f5851436] + FFTW_jll v3.3.9+5
  [01680d73] + GenericSVD v0.3.0
  [c145ed77] + GenericSchur v0.4.0
  [1d5cc7b8] + IntelOpenMP_jll v2018.0.3+0
  [856f044c] + MKL_jll v2020.2.254+0
  [efe28fd5] + OpenSpecFun_jll v0.5.3+3
  [0d4725de] + Readables v0.3.3
  [189a3867] + Reexport v0.2.0
  [276daf66] + SpecialFunctions v0.10.3
  [0dd23c3e] + TwoFAST v0.1.3
  [2a0f44e3] + Base64
  [ade2ca70] + Dates
  [8bb1440f] + DelimitedFiles
  [8ba89e20] + Distributed
  [b77e0a4c] + InteractiveUtils
  [76f85450] + LibGit2
  [8f399da3] + Libdl
  [37e2e46d] + LinearAlgebra
  [56ddb016] + Logging
  [d6f4376e] + Markdown
  [a63ad114] + Mmap
  [44cfe95a] + Pkg
  [de0858da] + Printf
  [3fa0cd96] + REPL
  [9a3f8284] + Random
  [ea8e919c] + SHA
  [9e88b42a] + Serialization
  [6462fe0b] + Sockets
  [fa267f1f] + TOML
  [8dfed614] + Test
  [cf7118a7] + UUIDs
  [4ec0a83e] + Unicode
   Building FFTW ───────→ `~/.julia/packages/FFTW/DMUbN/deps/build.log`
   Building ArbNumerics → `~/.julia/packages/ArbNumerics/joGFm/deps/build.log`
    Testing TwoFAST
Status `/tmp/jl_M0CTHI/Project.toml`
  [7e558dbc] ArbNumerics v1.2.1
  [39dd38d3] Dierckx v0.5.0
  [7a1cc6ca] FFTW v1.2.4
  [276daf66] SpecialFunctions v0.10.3
  [0dd23c3e] TwoFAST v0.1.3
  [8bb1440f] DelimitedFiles
  [37e2e46d] LinearAlgebra
  [56ddb016] Logging
  [8dfed614] Test
Status `/tmp/jl_M0CTHI/Manifest.toml`
  [621f4979] AbstractFFTs v0.5.0
  [7e558dbc] ArbNumerics v1.2.1
  [b99e7846] BinaryProvider v0.5.10
  [e66e0078] CompilerSupportLibraries_jll v0.3.3+0
  [39dd38d3] Dierckx v0.5.0
  [cd4c43a9] Dierckx_jll v0.0.1+0
  [7a1cc6ca] FFTW v1.2.4
  [f5851436] FFTW_jll v3.3.9+5
  [01680d73] GenericSVD v0.3.0
  [c145ed77] GenericSchur v0.4.0
  [1d5cc7b8] IntelOpenMP_jll v2018.0.3+0
  [856f044c] MKL_jll v2020.2.254+0
  [efe28fd5] OpenSpecFun_jll v0.5.3+3
  [0d4725de] Readables v0.3.3
  [189a3867] Reexport v0.2.0
  [276daf66] SpecialFunctions v0.10.3
  [0dd23c3e] TwoFAST v0.1.3
  [2a0f44e3] Base64
  [ade2ca70] Dates
  [8bb1440f] DelimitedFiles
  [8ba89e20] Distributed
  [b77e0a4c] InteractiveUtils
  [76f85450] LibGit2
  [8f399da3] Libdl
  [37e2e46d] LinearAlgebra
  [56ddb016] Logging
  [d6f4376e] Markdown
  [a63ad114] Mmap
  [44cfe95a] Pkg
  [de0858da] Printf
  [3fa0cd96] REPL
  [9a3f8284] Random
  [ea8e919c] SHA
  [9e88b42a] Serialization
  [6462fe0b] Sockets
  [fa267f1f] TOML
  [8dfed614] Test
  [cf7118a7] UUIDs
  [4ec0a83e] Unicode
    Testing Running tests...
WARNING: could not import Printf.ini_hex into ArbNumerics
WARNING: could not import Printf.ini_HEX into ArbNumerics
t = 0.0 sec (0 allocations: 0 byte, 0.0% gc time)
typeof(t) = NamedTuple{(:value, :time, :bytes, :gctime, :gcstats), Tuple{DataType, Float64, Int64, Float64, Base.GC_Diff}}
TwoFAST.PerformanceStats.TimedType = Union{NamedTuple{(:value, :time, :bytes, :gctime, :gcstats), Tuple{T, Float64, Int64, Float64, Base.GC_Diff}}, Tuple{Any, Float64, Int64, Float64, Base.GC_Diff}} where T
t = 0.0 sec (0 allocations: 0 byte, 0.0% gc time)
t: 0.0 sec (0 allocations: 0 byte, 0.0% gc time)
Testing ξ(r), ℓ=0, ν=-1 ... passed
Testing ξ(r), ℓ=0, ν=0 ... passed
Testing ξ(r), ℓ=0, ν=1 ... passed
Testing ξ(r), ℓ=0, ν=2 ... passed
Testing ξ(r), ℓ=0, ν=3 ... passed
Testing ξ(r), ℓ=1, ν=0 ... passed
Testing ξ(r), ℓ=1, ν=1 ... passed
Testing ξ(r), ℓ=1, ν=2 ... passed
Testing ξ(r), ℓ=1, ν=3 ... passed
Testing ξ(r), ℓ=2, ν=-1 ... passed
Testing ξ(r), ℓ=2, ν=0 ... passed
Testing ξ(r), ℓ=2, ν=1 ... passed
Testing ξ(r), ℓ=2, ν=2 ... passed
Testing ξ(r), ℓ=2, ν=3 ... passed
Testing ξ(r), ℓ=3, ν=-1 ... passed
Testing ξ(r), ℓ=3, ν=0 ... passed
Testing ξ(r), ℓ=3, ν=1 ... passed
Testing ξ(r), ℓ=3, ν=2 ... passed
Testing ξ(r), ℓ=3, ν=3 ... passed
Testing ξ(r), ℓ=4, ν=-1 ... passed
Testing ξ(r), ℓ=4, ν=0 ... passed
Testing ξ(r), ℓ=4, ν=1 ... passed
Testing ξ(r), ℓ=4, ν=2 ... passed
Testing ξ(r), ℓ=4, ν=3 ... passed
Testing ξ(r) ... passed
Testing ξ′(r) ... passed
Testing ξ″(r) ... passed
Calculating fmax: 
  dlrec    = 4
  dlrecRg1 = -4
  q=1.1, R=1.1:	  4.028091 seconds (831.50 k allocations: 53.207 MiB, 1.27% gc time)

  4.042222 seconds (844.21 k allocations: 53.999 MiB, 1.27% gc time)
ℓ = 1202
Δℓ = 4
ΔℓRg1 = -4
N = 1600
q = 1.1
kmin = 1.0e-5
kmax = 100000.00000000004
χ0 = 0.023029999999999995
RR = RR.tsv
ℓmax = ℓmax.bin
f21 = f21.bin
kmin = 1.0e-5
kmax = 100000.0
dlrec    = 4
dlrecRg1 = -4
Output size: 5741568 bytes = 0.005347251892089844 GiB
Output size: 51264 bytes = 4.774332046508789e-5 GiB
Reading 'out/F21EllCache'...   0.753994 seconds (394.92 k allocations: 23.209 MiB)
ellmax: 1202
lmaxcache: 1202
fell[:,1,1] = ComplexF64[3.9583795592771634e-52 - 9.695233714158177e-68im, 3.990121772925759e-52 - 9.772979714843386e-68im]
ell 1202, elapsed: 4.1961669921875e-5
ell 1201, elapsed: 1.2549028396606445
ell 1200, elapsed: 0.0005459785461425781
ell 1199, elapsed: 0.0004940032958984375
ell 1198, elapsed: 0.0004820823669433594
ell 1002, elapsed: 0.01027989387512207
ell 1001, elapsed: 0.0005221366882324219
ell 1000, elapsed: 0.000492095947265625
ell 999, elapsed: 0.0004961490631103516
ell 998, elapsed: 0.0004990100860595703
ell 902, elapsed: 0.0052490234375
ell 901, elapsed: 0.0005118846893310547
ell 900, elapsed: 0.0004999637603759766
ell 899, elapsed: 0.0004980564117431641
ell 898, elapsed: 0.0004949569702148438
ell 802, elapsed: 0.0053250789642333984
ell 801, elapsed: 0.0005071163177490234
ell 800, elapsed: 0.0005040168762207031
ell 799, elapsed: 0.0005841255187988281
ell 798, elapsed: 0.0004889965057373047
ell 702, elapsed: 0.005326032638549805
ell 701, elapsed: 0.0005118846893310547
ell 700, elapsed: 0.0005030632019042969
ell 699, elapsed: 0.0005660057067871094
ell 698, elapsed: 0.0004971027374267578
ell 602, elapsed: 0.005221843719482422
ell 601, elapsed: 0.0005049705505371094
ell 600, elapsed: 0.0005030632019042969
ell 599, elapsed: 0.0005068778991699219
ell 598, elapsed: 0.0005800724029541016
ell 502, elapsed: 0.005262136459350586
ell 501, elapsed: 0.0004940032958984375
ell 500, elapsed: 0.0004820823669433594
ell 499, elapsed: 0.00048089027404785156
ell 498, elapsed: 0.0004878044128417969
ell 402, elapsed: 0.005261898040771484
ell 401, elapsed: 0.0005080699920654297
ell 400, elapsed: 0.0004968643188476562
ell 399, elapsed: 0.0004889965057373047
ell 398, elapsed: 0.00049591064453125
ell 302, elapsed: 0.005255937576293945
ell 301, elapsed: 0.0005099773406982422
ell 300, elapsed: 0.0004990100860595703
ell 299, elapsed: 0.0004949569702148438
ell 298, elapsed: 0.00049591064453125
ell 202, elapsed: 0.005288124084472656
ell 201, elapsed: 0.0005209445953369141
ell 200, elapsed: 0.0005028247833251953
ell 199, elapsed: 0.0005052089691162109
ell 198, elapsed: 0.0005018711090087891
ell 152, elapsed: 0.002897024154663086
ell 151, elapsed: 0.0004980564117431641
ell 150, elapsed: 0.0004980564117431641
ell 149, elapsed: 0.0004968643188476562
ell 148, elapsed: 0.0005040168762207031
ell 127, elapsed: 0.0015709400177001953
ell 126, elapsed: 0.0004930496215820312
ell 125, elapsed: 0.00049591064453125
ell 124, elapsed: 0.0004940032958984375
ell 123, elapsed: 0.0004870891571044922
ell 114, elapsed: 0.0009610652923583984
ell 113, elapsed: 0.0004980564117431641
ell 112, elapsed: 0.0005128383636474609
ell 111, elapsed: 0.0005581378936767578
ell 110, elapsed: 0.0004889965057373047
ell 102, elapsed: 0.0008990764617919922
ell 101, elapsed: 0.0005362033843994141
ell 100, elapsed: 0.0005030632019042969
ell 99, elapsed: 0.0004971027374267578
ell 98, elapsed: 0.0004968643188476562
ell 97, elapsed: 0.0005631446838378906
ell 96, elapsed: 0.0005562305450439453
ell 95, elapsed: 0.00057220458984375
ell 94, elapsed: 0.0005869865417480469
ell 93, elapsed: 0.0005609989166259766
ell 92, elapsed: 0.0005679130554199219
ell 91, elapsed: 0.0005600452423095703
ell 90, elapsed: 0.0005629062652587891
ell 89, elapsed: 0.0005600452423095703
ell 88, elapsed: 0.0006771087646484375
ell 87, elapsed: 0.0005540847778320312
ell 86, elapsed: 0.0005598068237304688
ell 85, elapsed: 0.0005469322204589844
ell 84, elapsed: 0.0005462169647216797
ell 83, elapsed: 0.0005450248718261719
ell 82, elapsed: 0.0005419254302978516
ell 81, elapsed: 0.0006430149078369141
ell 80, elapsed: 0.0005550384521484375
ell 79, elapsed: 0.0005631446838378906
ell 78, elapsed: 0.0005688667297363281
ell 77, elapsed: 0.0006220340728759766
ell 76, elapsed: 0.0005888938903808594
ell 75, elapsed: 0.0006439685821533203
ell 74, elapsed: 0.0005631446838378906
ell 73, elapsed: 0.0005609989166259766
ell 72, elapsed: 0.0005619525909423828
ell 71, elapsed: 0.0005948543548583984
ell 70, elapsed: 0.0006368160247802734
ell 69, elapsed: 0.0006649494171142578
ell 68, elapsed: 0.0005660057067871094
ell 67, elapsed: 0.0005559921264648438
ell 66, elapsed: 0.0005850791931152344
ell 65, elapsed: 0.0006248950958251953
ell 64, elapsed: 0.0005590915679931641
ell 63, elapsed: 0.0006392002105712891
ell 62, elapsed: 0.0005640983581542969
ell 61, elapsed: 0.0005590915679931641
ell 60, elapsed: 0.0005609989166259766
ell 59, elapsed: 0.0005638599395751953
ell 58, elapsed: 0.0005688667297363281
ell 57, elapsed: 0.0005629062652587891
ell 56, elapsed: 0.0006830692291259766
ell 55, elapsed: 0.0006320476531982422
ell 54, elapsed: 0.0005671977996826172
ell 53, elapsed: 0.0005669593811035156
ell 52, elapsed: 0.0005588531494140625
ell 51, elapsed: 0.0005700588226318359
ell 50, elapsed: 0.0006439685821533203
ell 49, elapsed: 0.0005710124969482422
ell 48, elapsed: 0.000579833984375
ell 47, elapsed: 0.0006310939788818359
ell 46, elapsed: 0.0005729198455810547
ell 45, elapsed: 0.0005660057067871094
ell 44, elapsed: 0.0006749629974365234
ell 43, elapsed: 0.0006201267242431641
ell 42, elapsed: 0.0005681514739990234
ell 41, elapsed: 0.0005640983581542969
ell 40, elapsed: 0.0005619525909423828
ell 39, elapsed: 0.0005619525909423828
ell 38, elapsed: 0.0007009506225585938
ell 37, elapsed: 0.0007269382476806641
ell 36, elapsed: 0.0006539821624755859
ell 35, elapsed: 0.0005619525909423828
ell 34, elapsed: 0.0005650520324707031
ell 33, elapsed: 0.0005559921264648438
ell 32, elapsed: 0.0006389617919921875
ell 31, elapsed: 0.0005679130554199219
ell 30, elapsed: 0.0005559921264648438
ell 29, elapsed: 0.0005719661712646484
ell 28, elapsed: 0.0005629062652587891
ell 27, elapsed: 0.0005807876586914062
ell 26, elapsed: 0.0007381439208984375
ell 25, elapsed: 0.0006458759307861328
ell 24, elapsed: 0.0006170272827148438
ell 23, elapsed: 0.0005800724029541016
ell 22, elapsed: 0.0006420612335205078
ell 21, elapsed: 0.0005691051483154297
ell 20, elapsed: 0.0006458759307861328
ell 19, elapsed: 0.0006129741668701172
ell 18, elapsed: 0.0005640983581542969
ell 17, elapsed: 0.0005638599395751953
ell 16, elapsed: 0.0005750656127929688
ell 15, elapsed: 0.0005650520324707031
ell 14, elapsed: 0.0005719661712646484
ell 13, elapsed: 0.0005750656127929688
ell 12, elapsed: 0.0005731582641601562
ell 11, elapsed: 0.0005800724029541016
ell 10, elapsed: 0.0005700588226318359
ell 9, elapsed: 0.0005879402160644531
ell 8, elapsed: 0.0005860328674316406
ell 7, elapsed: 0.0006608963012695312
ell 6, elapsed: 0.0006670951843261719
ell 5, elapsed: 0.0006639957427978516
ell 4, elapsed: 0.000637054443359375
ell 3, elapsed: 0.0005581378936767578
ell 2, elapsed: 0.0006251335144042969
ell 1, elapsed: 0.0005600452423095703
ell 0, elapsed: 0.0005650520324707031
  1.885368 seconds (1.26 M allocations: 69.539 MiB, 3.75% gc time)
elapsed: 0.0009310245513916016
step:          0.392312 sec (303.431 k allocations: 16.47 MB, 12.77% gc time)
swapping:      0.0005 sec (0 allocations: 0 byte, 0.0% gc time)
calc_Mellell!: 0.146043 sec (131.069 k allocations: 7.131 MB, 14.14% gc time)
  t0 :  0.0 sec (0 allocations: 0 byte, 0.0% gc time)
  tm2 : 0.0 sec (0 allocations: 0 byte, 0.0% gc time)
  tm2s: 0.0 sec (0 allocations: 0 byte, 0.0% gc time)
  tm4 : 0.0 sec (0 allocations: 0 byte, 0.0% gc time)
  tp2 : 0.0 sec (0 allocations: 0 byte, 0.0% gc time)
  tp2s: 0.0 sec (0 allocations: 0 byte, 0.0% gc time)
  tp4 : 0.0 sec (0 allocations: 0 byte, 0.0% gc time)
calc_wtdll!:   0.846596 sec (510.927 k allocations: 28.259 MB, 0.0% gc time)
calc_wljj!:    0.003652 sec (6 allocations: 96 byte, 0.0% gc time)
mult_prefac!:  0.0 sec (0 allocations: 0 byte, 0.0% gc time)
convert:       0.0 sec (0 allocations: 0 byte, 0.0% gc time)
write:         0.004429 sec (0 allocations: 0 byte, 0.0% gc time)
test_rand_2f1: 0.0 sec (0 allocations: 0 byte, 0.0% gc time)
Closing outfile out/Ml21-cache.bin...   0.000007 seconds
  1.325800 seconds (347.75 k allocations: 21.156 MiB)
make_phi():   0.013842 seconds (9.47 k allocations: 257.875 KiB)
  0.250994 seconds (87.73 k allocations: 4.754 MiB)
tskip:       2.6e-5 sec (0 allocations: 0 byte, 0.0% gc time)
tread:       0.004613 sec (17 allocations: 2.125 KB, 0.0% gc time)
tmultphi:    0.041561 sec (21.546 k allocations: 1.294 MB, 0.0% gc time)
tbrfft:      0.005272 sec (0 allocations: 0 byte, 0.0% gc time)
tmultprefac: 0.00514 sec (0 allocations: 0 byte, 0.0% gc time)
toutfunc:    0.149785 sec (64.521 k allocations: 3.329 MB, 0.0% gc time)
Testing R=1.1 ... passed
Calculating fmax: 
  dlrec    = 4
  dlrecRg1 = -4
  q=1.1, R=1.0:	  0.001726 seconds (3.20 k allocations: 275.344 KiB)

  0.001923 seconds (3.35 k allocations: 311.750 KiB)
ℓ = 1202
Δℓ = 4
ΔℓRg1 = -4
N = 1600
q = 1.1
kmin = 1.0e-5
kmax = 100000.00000000004
χ0 = 0.023029999999999995
RR = RR.tsv
ℓmax = ℓmax.bin
f21 = f21.bin
kmin = 1.0e-5
kmax = 100000.0
dlrec    = 4
dlrecRg1 = -4
Output size: 61465536 bytes = 0.05724424123764038 GiB
Output size: 51264 bytes = 4.774332046508789e-5 GiB
Reading 'out/F21EllCache'...   0.001059 seconds (197 allocations: 84.203 KiB)
ellmax: 1202
lmaxcache: 1202
fell[:,1,1] = ComplexF64[809.6031528389767 - 1.9829558194077161e-13im, 0.0 + 0.0im]
ell 1202, elapsed: 3.1948089599609375e-5
ell 1201, elapsed: 0.015505075454711914
ell 1200, elapsed: 0.015383005142211914
ell 1199, elapsed: 0.0007259845733642578
ell 1198, elapsed: 0.0006690025329589844
ell 1197, elapsed: 0.0006058216094970703
ell 1196, elapsed: 0.0005400180816650391
ell 1195, elapsed: 0.0005400180816650391
ell 1194, elapsed: 0.0004889965057373047
ell 1193, elapsed: 0.0005729198455810547
ell 1192, elapsed: 0.0005369186401367188
ell 1191, elapsed: 0.00045108795166015625
ell 1190, elapsed: 0.00043892860412597656
ell 1189, elapsed: 0.0005970001220703125
ell 1188, elapsed: 0.0005109310150146484
ell 1187, elapsed: 0.0007359981536865234
ell 1186, elapsed: 0.0006711483001708984
ell 1185, elapsed: 0.0006289482116699219
ell 1184, elapsed: 0.0005440711975097656
ell 1183, elapsed: 0.0006480216979980469
ell 1182, elapsed: 0.0005700588226318359
ell 1181, elapsed: 0.00044798851013183594
ell 1180, elapsed: 0.00043702125549316406
ell 1179, elapsed: 0.000453948974609375
ell 1178, elapsed: 0.0004360675811767578
ell 1177, elapsed: 0.0004429817199707031
ell 1176, elapsed: 0.0004379749298095703
ell 1175, elapsed: 0.0005729198455810547
ell 1174, elapsed: 0.0005390644073486328
ell 1173, elapsed: 0.0005381107330322266
ell 1172, elapsed: 0.0006799697875976562
ell 1171, elapsed: 0.0005450248718261719
ell 1170, elapsed: 0.0005288124084472656
ell 1169, elapsed: 0.0004899501800537109
ell 1168, elapsed: 0.0004420280456542969
ell 1167, elapsed: 0.0004432201385498047
ell 1166, elapsed: 0.00043201446533203125
ell 1165, elapsed: 0.0004448890686035156
ell 1164, elapsed: 0.0004360675811767578
ell 1163, elapsed: 0.0004458427429199219
ell 1162, elapsed: 0.0004439353942871094
ell 1161, elapsed: 0.0005788803100585938
ell 1160, elapsed: 0.0004999637603759766
ell 1159, elapsed: 0.0005288124084472656
ell 1158, elapsed: 0.0005319118499755859
ell 1157, elapsed: 0.0005280971527099609
ell 1156, elapsed: 0.0005288124084472656
ell 1155, elapsed: 0.0005049705505371094
ell 1154, elapsed: 0.00048804283142089844
ell 1153, elapsed: 0.00043892860412597656
ell 1152, elapsed: 0.0004451274871826172
ell 1151, elapsed: 0.00043392181396484375
ell 1150, elapsed: 0.00045108795166015625
ell 1149, elapsed: 0.0004410743713378906
ell 1148, elapsed: 0.0004398822784423828
ell 1147, elapsed: 0.0004379749298095703
ell 1146, elapsed: 0.0005860328674316406
ell 1145, elapsed: 0.0005350112915039062
ell 1144, elapsed: 0.0004930496215820312
ell 1143, elapsed: 0.0004990100860595703
ell 1142, elapsed: 0.0005068778991699219
ell 1141, elapsed: 0.0006241798400878906
ell 1140, elapsed: 0.0006170272827148438
ell 1139, elapsed: 0.0006990432739257812
ell 1138, elapsed: 0.0006651878356933594
ell 1137, elapsed: 0.0006868839263916016
ell 1136, elapsed: 0.0004971027374267578
ell 1135, elapsed: 0.0007419586181640625
ell 1134, elapsed: 0.00045800209045410156
ell 1133, elapsed: 0.0004470348358154297
ell 1132, elapsed: 0.0004410743713378906
ell 1131, elapsed: 0.0004451274871826172
ell 1130, elapsed: 0.0004379749298095703
ell 1129, elapsed: 0.0004489421844482422
ell 1128, elapsed: 0.00043892860412597656
ell 1127, elapsed: 0.0005600452423095703
ell 1126, elapsed: 0.00045800209045410156
ell 1125, elapsed: 0.0004448890686035156
ell 1124, elapsed: 0.0004439353942871094
ell 1123, elapsed: 0.00043487548828125
ell 1122, elapsed: 0.00043892860412597656
ell 1121, elapsed: 0.00043892860412597656
ell 1120, elapsed: 0.0004360675811767578
ell 1119, elapsed: 0.0005879402160644531
ell 1118, elapsed: 0.0005290508270263672
ell 1117, elapsed: 0.0004949569702148438
ell 1116, elapsed: 0.0005021095275878906
ell 1115, elapsed: 0.0004990100860595703
ell 1114, elapsed: 0.0005362033843994141
ell 1113, elapsed: 0.0004980564117431641
ell 1112, elapsed: 0.0005221366882324219
ell 1111, elapsed: 0.0004470348358154297
ell 1110, elapsed: 0.0004448890686035156
ell 1109, elapsed: 0.0004429817199707031
ell 1108, elapsed: 0.0004448890686035156
ell 1107, elapsed: 0.0004451274871826172
ell 1106, elapsed: 0.0005908012390136719
ell 1105, elapsed: 0.0006499290466308594
ell 1104, elapsed: 0.0005409717559814453
ell 1103, elapsed: 0.0005459785461425781
ell 1102, elapsed: 0.0004940032958984375
ell 1101, elapsed: 0.000492095947265625
ell 1100, elapsed: 0.0005269050598144531
ell 1099, elapsed: 0.0005080699920654297
ell 1098, elapsed: 0.0005230903625488281
ell 1097, elapsed: 0.0004410743713378906
ell 1096, elapsed: 0.0004379749298095703
ell 1095, elapsed: 0.0004470348358154297
ell 1094, elapsed: 0.0004279613494873047
ell 1093, elapsed: 0.0004448890686035156
ell 1092, elapsed: 0.0004439353942871094
ell 1091, elapsed: 0.0005669593811035156
ell 1090, elapsed: 0.0005090236663818359
ell 1089, elapsed: 0.0004990100860595703
ell 1088, elapsed: 0.0005061626434326172
ell 1087, elapsed: 0.0004949569702148438
ell 1086, elapsed: 0.0005400180816650391
ell 1085, elapsed: 0.0005011558532714844
ell 1084, elapsed: 0.0005269050598144531
ell 1083, elapsed: 0.0004401206970214844
ell 1082, elapsed: 0.0004532337188720703
ell 1081, elapsed: 0.0004470348358154297
ell 1080, elapsed: 0.0004429817199707031
ell 1079, elapsed: 0.00043702125549316406
ell 1078, elapsed: 0.0004417896270751953
ell 1077, elapsed: 0.000518798828125
ell 1076, elapsed: 0.0005390644073486328
ell 1075, elapsed: 0.00047588348388671875
ell 1074, elapsed: 0.00044989585876464844
ell 1073, elapsed: 0.00043702125549316406
ell 1072, elapsed: 0.0004429817199707031
ell 1071, elapsed: 0.00044798851013183594
ell 1070, elapsed: 0.00044798851013183594
ell 1069, elapsed: 0.0005688667297363281
ell 1068, elapsed: 0.0004451274871826172
ell 1067, elapsed: 0.0004448890686035156
ell 1066, elapsed: 0.00045609474182128906
ell 1065, elapsed: 0.0004329681396484375
ell 1064, elapsed: 0.0004458427429199219
ell 1063, elapsed: 0.0004429817199707031
ell 1062, elapsed: 0.0004429817199707031
ell 1061, elapsed: 0.0005850791931152344
ell 1060, elapsed: 0.0005109310150146484
ell 1059, elapsed: 0.0005829334259033203
ell 1058, elapsed: 0.0005731582641601562
ell 1057, elapsed: 0.0005350112915039062
ell 1056, elapsed: 0.00049591064453125
ell 1055, elapsed: 0.0005469322204589844
ell 1054, elapsed: 0.0005018711090087891
ell 1053, elapsed: 0.0005350112915039062
ell 1052, elapsed: 0.0004961490631103516
ell 1051, elapsed: 0.0005350112915039062
ell 1050, elapsed: 0.0004949569702148438
ell 1049, elapsed: 0.0005030632019042969
ell 1048, elapsed: 0.0005009174346923828
ell 1047, elapsed: 0.0005559921264648438
ell 1046, elapsed: 0.0005450248718261719
ell 1045, elapsed: 0.0004990100860595703
ell 1044, elapsed: 0.0006940364837646484
ell 1043, elapsed: 0.0005419254302978516
ell 1042, elapsed: 0.0005288124084472656
ell 1041, elapsed: 0.0005321502685546875
ell 1040, elapsed: 0.0005340576171875
ell 1039, elapsed: 0.0005350112915039062
ell 1038, elapsed: 0.0005049705505371094
ell 1037, elapsed: 0.0005381107330322266
ell 1036, elapsed: 0.0005259513854980469
ell 1035, elapsed: 0.00055694580078125
ell 1034, elapsed: 0.0005328655242919922
ell 1033, elapsed: 0.0005059242248535156
ell 1032, elapsed: 0.0005319118499755859
ell 1031, elapsed: 0.0005350112915039062
ell 1030, elapsed: 0.000476837158203125
ell 1029, elapsed: 0.0004448890686035156
ell 1028, elapsed: 0.0004448890686035156
ell 1027, elapsed: 0.0004439353942871094
ell 1026, elapsed: 0.00044608116149902344
ell 1025, elapsed: 0.0004439353942871094
ell 1024, elapsed: 0.0004410743713378906
ell 1023, elapsed: 0.0005848407745361328
ell 1022, elapsed: 0.0006210803985595703
ell 1021, elapsed: 0.0004401206970214844
ell 1020, elapsed: 0.0004410743713378906
ell 1019, elapsed: 0.0004420280456542969
ell 1018, elapsed: 0.0004398822784423828
ell 1017, elapsed: 0.00044417381286621094
ell 1016, elapsed: 0.0004398822784423828
ell 1015, elapsed: 0.0006489753723144531
ell 1014, elapsed: 0.0005290508270263672
ell 1013, elapsed: 0.0004410743713378906
ell 1012, elapsed: 0.0004401206970214844
ell 1011, elapsed: 0.0004429817199707031
ell 1010, elapsed: 0.0004420280456542969
ell 1009, elapsed: 0.0004420280456542969
ell 1008, elapsed: 0.0004379749298095703
ell 1007, elapsed: 0.0005269050598144531
ell 1006, elapsed: 0.0004470348358154297
ell 1005, elapsed: 0.0004329681396484375
ell 1004, elapsed: 0.0004470348358154297
ell 1003, elapsed: 0.0004360675811767578
ell 1002, elapsed: 0.00043702125549316406
ell 1001, elapsed: 0.0004451274871826172
ell 1000, elapsed: 0.00043392181396484375
ell 999, elapsed: 0.0005178451538085938
ell 998, elapsed: 0.0004439353942871094
ell 997, elapsed: 0.0004410743713378906
ell 996, elapsed: 0.0004420280456542969
ell 995, elapsed: 0.00043487548828125
ell 994, elapsed: 0.0004420280456542969
ell 993, elapsed: 0.00044417381286621094
ell 992, elapsed: 0.00043702125549316406
ell 991, elapsed: 0.0005350112915039062
ell 990, elapsed: 0.0004401206970214844
ell 989, elapsed: 0.00043892860412597656
ell 988, elapsed: 0.0004401206970214844
ell 987, elapsed: 0.0004398822784423828
ell 986, elapsed: 0.0004329681396484375
ell 985, elapsed: 0.0004448890686035156
ell 984, elapsed: 0.00043511390686035156
ell 983, elapsed: 0.0005199909210205078
ell 982, elapsed: 0.0004420280456542969
ell 981, elapsed: 0.0004360675811767578
ell 980, elapsed: 0.0004439353942871094
ell 979, elapsed: 0.00043511390686035156
ell 978, elapsed: 0.0004401206970214844
ell 977, elapsed: 0.0004410743713378906
ell 976, elapsed: 0.0004329681396484375
ell 975, elapsed: 0.0005319118499755859
ell 974, elapsed: 0.0004420280456542969
ell 973, elapsed: 0.0004470348358154297
ell 972, elapsed: 0.00043582916259765625
ell 971, elapsed: 0.0004379749298095703
ell 970, elapsed: 0.0004429817199707031
ell 969, elapsed: 0.00043892860412597656
ell 968, elapsed: 0.00043702125549316406
ell 967, elapsed: 0.0005099773406982422
ell 966, elapsed: 0.0004448890686035156
ell 965, elapsed: 0.0004458427429199219
ell 964, elapsed: 0.00044083595275878906
ell 963, elapsed: 0.00043892860412597656
ell 962, elapsed: 0.0004448890686035156
ell 961, elapsed: 0.0004398822784423828
ell 960, elapsed: 0.0004410743713378906
ell 959, elapsed: 0.00043702125549316406
ell 958, elapsed: 0.00045299530029296875
ell 957, elapsed: 0.00045490264892578125
ell 956, elapsed: 0.00044083595275878906
ell 955, elapsed: 0.00043582916259765625
ell 954, elapsed: 0.0004429817199707031
ell 953, elapsed: 0.00043892860412597656
ell 952, elapsed: 0.0004451274871826172
ell 951, elapsed: 0.0004439353942871094
ell 950, elapsed: 0.0004482269287109375
ell 949, elapsed: 0.00045013427734375
ell 948, elapsed: 0.0004379749298095703
ell 947, elapsed: 0.0004391670227050781
ell 946, elapsed: 0.00044417381286621094
ell 945, elapsed: 0.00043201446533203125
ell 944, elapsed: 0.0004470348358154297
ell 943, elapsed: 0.00043702125549316406
ell 942, elapsed: 0.00045299530029296875
ell 941, elapsed: 0.00044798851013183594
ell 940, elapsed: 0.0004379749298095703
ell 939, elapsed: 0.0004429817199707031
ell 938, elapsed: 0.0004401206970214844
ell 937, elapsed: 0.00044798851013183594
ell 936, elapsed: 0.0004470348358154297
ell 935, elapsed: 0.00043702125549316406
ell 934, elapsed: 0.0004558563232421875
ell 933, elapsed: 0.0004398822784423828
ell 932, elapsed: 0.0004467964172363281
ell 931, elapsed: 0.0005078315734863281
ell 930, elapsed: 0.0006148815155029297
ell 929, elapsed: 0.0004508495330810547
ell 928, elapsed: 0.0004401206970214844
ell 927, elapsed: 0.000537872314453125
ell 926, elapsed: 0.0004470348358154297
ell 925, elapsed: 0.0004470348358154297
ell 924, elapsed: 0.00044918060302734375
ell 923, elapsed: 0.00044608116149902344
ell 922, elapsed: 0.0004401206970214844
ell 921, elapsed: 0.00043702125549316406
ell 920, elapsed: 0.0004417896270751953
ell 919, elapsed: 0.0005190372467041016
ell 918, elapsed: 0.0004401206970214844
ell 917, elapsed: 0.00044989585876464844
ell 916, elapsed: 0.00043892860412597656
ell 915, elapsed: 0.00044798851013183594
ell 914, elapsed: 0.00043511390686035156
ell 913, elapsed: 0.0004458427429199219
ell 912, elapsed: 0.00043892860412597656
ell 911, elapsed: 0.0005240440368652344
ell 910, elapsed: 0.0004489421844482422
ell 909, elapsed: 0.0004401206970214844
ell 908, elapsed: 0.0004439353942871094
ell 907, elapsed: 0.0004420280456542969
ell 906, elapsed: 0.0004379749298095703
ell 905, elapsed: 0.00044417381286621094
ell 904, elapsed: 0.00044083595275878906
ell 903, elapsed: 0.0005309581756591797
ell 902, elapsed: 0.0005300045013427734
ell 901, elapsed: 0.0006000995635986328
ell 900, elapsed: 0.0006198883056640625
ell 899, elapsed: 0.0005009174346923828
ell 898, elapsed: 0.0006320476531982422
ell 897, elapsed: 0.000659942626953125
ell 896, elapsed: 0.0005681514739990234
ell 895, elapsed: 0.0006401538848876953
ell 894, elapsed: 0.0004839897155761719
ell 893, elapsed: 0.0004839897155761719
ell 892, elapsed: 0.0004818439483642578
ell 891, elapsed: 0.0005998611450195312
ell 890, elapsed: 0.0006389617919921875
ell 889, elapsed: 0.0004811286926269531
ell 888, elapsed: 0.000453948974609375
ell 887, elapsed: 0.000453948974609375
ell 886, elapsed: 0.0004620552062988281
ell 885, elapsed: 0.00044798851013183594
ell 884, elapsed: 0.00046181678771972656
ell 883, elapsed: 0.0005381107330322266
ell 882, elapsed: 0.0004401206970214844
ell 881, elapsed: 0.0004420280456542969
ell 880, elapsed: 0.00042510032653808594
ell 879, elapsed: 0.00042700767517089844
ell 878, elapsed: 0.00041604042053222656
ell 877, elapsed: 0.0004150867462158203
ell 876, elapsed: 0.00043201446533203125
ell 875, elapsed: 0.0004928112030029297
ell 874, elapsed: 0.00043010711669921875
ell 873, elapsed: 0.0004889965057373047
ell 872, elapsed: 0.0006089210510253906
ell 871, elapsed: 0.0004241466522216797
ell 870, elapsed: 0.0004189014434814453
ell 869, elapsed: 0.0004191398620605469
ell 868, elapsed: 0.0004210472106933594
ell 867, elapsed: 0.0005390644073486328
ell 866, elapsed: 0.00043487548828125
ell 865, elapsed: 0.0004258155822753906
ell 864, elapsed: 0.00041794776916503906
ell 863, elapsed: 0.0004258155822753906
ell 862, elapsed: 0.0004258155822753906
ell 861, elapsed: 0.00043392181396484375
ell 860, elapsed: 0.00043702125549316406
ell 859, elapsed: 0.0005409717559814453
ell 858, elapsed: 0.0004382133483886719
ell 857, elapsed: 0.0004360675811767578
ell 856, elapsed: 0.00044798851013183594
ell 855, elapsed: 0.0004639625549316406
ell 854, elapsed: 0.0004520416259765625
ell 853, elapsed: 0.00045680999755859375
ell 852, elapsed: 0.0004420280456542969
ell 851, elapsed: 0.0006251335144042969
ell 850, elapsed: 0.0006020069122314453
ell 849, elapsed: 0.0004398822784423828
ell 848, elapsed: 0.00043582916259765625
ell 847, elapsed: 0.00043511390686035156
ell 846, elapsed: 0.0004258155822753906
ell 845, elapsed: 0.0004329681396484375
ell 844, elapsed: 0.00043892860412597656
ell 843, elapsed: 0.0005078315734863281
ell 842, elapsed: 0.00042891502380371094
ell 841, elapsed: 0.0004241466522216797
ell 840, elapsed: 0.00042700767517089844
ell 839, elapsed: 0.00043201446533203125
ell 838, elapsed: 0.0004279613494873047
ell 837, elapsed: 0.0004360675811767578
ell 836, elapsed: 0.0005218982696533203
ell 835, elapsed: 0.0006999969482421875
ell 834, elapsed: 0.0006639957427978516
ell 833, elapsed: 0.000720977783203125
ell 832, elapsed: 0.0007331371307373047
ell 831, elapsed: 0.0007359981536865234
ell 830, elapsed: 0.0008521080017089844
ell 829, elapsed: 0.0007450580596923828
ell 828, elapsed: 0.0007219314575195312
ell 827, elapsed: 0.0005581378936767578
ell 826, elapsed: 0.0005340576171875
ell 825, elapsed: 0.0006730556488037109
ell 824, elapsed: 0.000476837158203125
ell 823, elapsed: 0.00045180320739746094
ell 822, elapsed: 0.0004589557647705078
ell 821, elapsed: 0.0004489421844482422
ell 820, elapsed: 0.0004379749298095703
ell 819, elapsed: 0.00044417381286621094
ell 818, elapsed: 0.0004391670227050781
ell 817, elapsed: 0.0005540847778320312
ell 816, elapsed: 0.00047397613525390625
ell 815, elapsed: 0.0004630088806152344
ell 814, elapsed: 0.0004668235778808594
ell 813, elapsed: 0.00045800209045410156
ell 812, elapsed: 0.0004589557647705078
ell 811, elapsed: 0.0004570484161376953
ell 810, elapsed: 0.0005428791046142578
ell 809, elapsed: 0.00045108795166015625
ell 808, elapsed: 0.00045299530029296875
ell 807, elapsed: 0.0004489421844482422
ell 806, elapsed: 0.000453948974609375
ell 805, elapsed: 0.0004379749298095703
ell 804, elapsed: 0.0004401206970214844
ell 803, elapsed: 0.0004429817199707031
ell 802, elapsed: 0.0005519390106201172
ell 801, elapsed: 0.00043082237243652344
ell 800, elapsed: 0.00043010711669921875
ell 799, elapsed: 0.0004448890686035156
ell 798, elapsed: 0.0004601478576660156
ell 797, elapsed: 0.0004649162292480469
ell 796, elapsed: 0.0005331039428710938
ell 795, elapsed: 0.0007159709930419922
ell 794, elapsed: 0.00045299530029296875
ell 793, elapsed: 0.00047397613525390625
ell 792, elapsed: 0.0004630088806152344
ell 791, elapsed: 0.00046706199645996094
ell 790, elapsed: 0.0004620552062988281
ell 789, elapsed: 0.00045609474182128906
ell 788, elapsed: 0.0004570484161376953
ell 787, elapsed: 0.0005469322204589844
ell 786, elapsed: 0.000453948974609375
ell 785, elapsed: 0.000453948974609375
ell 784, elapsed: 0.0004429817199707031
ell 783, elapsed: 0.0004458427429199219
ell 782, elapsed: 0.00043010711669921875
ell 781, elapsed: 0.0004467964172363281
ell 780, elapsed: 0.0004451274871826172
ell 779, elapsed: 0.0005669593811035156
ell 778, elapsed: 0.00047898292541503906
ell 777, elapsed: 0.0004749298095703125
ell 776, elapsed: 0.0005371570587158203
ell 775, elapsed: 0.0006339550018310547
ell 774, elapsed: 0.0004761219024658203
ell 773, elapsed: 0.0004649162292480469
ell 772, elapsed: 0.0004711151123046875
ell 771, elapsed: 0.0004680156707763672
ell 770, elapsed: 0.0004620552062988281
ell 769, elapsed: 0.0004639625549316406
ell 768, elapsed: 0.0004677772521972656
ell 767, elapsed: 0.0004680156707763672
ell 766, elapsed: 0.0005371570587158203
ell 765, elapsed: 0.0006811618804931641
ell 764, elapsed: 0.0004820823669433594
ell 763, elapsed: 0.0005290508270263672
ell 762, elapsed: 0.0006301403045654297
ell 761, elapsed: 0.0004661083221435547
ell 760, elapsed: 0.0004630088806152344
ell 759, elapsed: 0.0004649162292480469
ell 758, elapsed: 0.0005261898040771484
ell 757, elapsed: 0.0006628036499023438
ell 756, elapsed: 0.0006570816040039062
ell 755, elapsed: 0.0005590915679931641
ell 754, elapsed: 0.0004410743713378906
ell 753, elapsed: 0.0005869865417480469
ell 752, elapsed: 0.0006258487701416016
ell 751, elapsed: 0.00046896934509277344
ell 750, elapsed: 0.0004630088806152344
ell 749, elapsed: 0.0004608631134033203
ell 748, elapsed: 0.0004749298095703125
ell 747, elapsed: 0.0004661083221435547
ell 746, elapsed: 0.0004489421844482422
ell 745, elapsed: 0.0005469322204589844
ell 744, elapsed: 0.0004439353942871094
ell 743, elapsed: 0.00044798851013183594
ell 742, elapsed: 0.00043702125549316406
ell 741, elapsed: 0.0004458427429199219
ell 740, elapsed: 0.0004429817199707031
ell 739, elapsed: 0.0004417896270751953
ell 738, elapsed: 0.0004520416259765625
ell 737, elapsed: 0.0005230903625488281
ell 736, elapsed: 0.0005369186401367188
ell 735, elapsed: 0.0005559921264648438
ell 734, elapsed: 0.000431060791015625
ell 733, elapsed: 0.00045180320739746094
ell 732, elapsed: 0.00043487548828125
ell 731, elapsed: 0.0004410743713378906
ell 730, elapsed: 0.0005359649658203125
ell 729, elapsed: 0.00043892860412597656
ell 728, elapsed: 0.00043392181396484375
ell 727, elapsed: 0.0004448890686035156
ell 726, elapsed: 0.0006039142608642578
ell 725, elapsed: 0.0005161762237548828
ell 724, elapsed: 0.00043892860412597656
ell 723, elapsed: 0.0004401206970214844
ell 722, elapsed: 0.0005350112915039062
ell 721, elapsed: 0.0004489421844482422
ell 720, elapsed: 0.0004429817199707031
ell 719, elapsed: 0.0006098747253417969
ell 718, elapsed: 0.0005490779876708984
ell 717, elapsed: 0.0006310939788818359
ell 716, elapsed: 0.0005888938903808594
ell 715, elapsed: 0.0004410743713378906
ell 714, elapsed: 0.0004420280456542969
ell 713, elapsed: 0.00043392181396484375
ell 712, elapsed: 0.0005850791931152344
ell 711, elapsed: 0.0005419254302978516
ell 710, elapsed: 0.0004410743713378906
ell 709, elapsed: 0.0004420280456542969
ell 708, elapsed: 0.0005290508270263672
ell 707, elapsed: 0.0005919933319091797
ell 706, elapsed: 0.0004410743713378906
ell 705, elapsed: 0.00043010711669921875
ell 704, elapsed: 0.00043892860412597656
ell 703, elapsed: 0.00043201446533203125
ell 702, elapsed: 0.0004432201385498047
ell 701, elapsed: 0.0005421638488769531
ell 700, elapsed: 0.0004451274871826172
ell 699, elapsed: 0.00043702125549316406
ell 698, elapsed: 0.00043892860412597656
ell 697, elapsed: 0.00043892860412597656
ell 696, elapsed: 0.0004379749298095703
ell 695, elapsed: 0.0004439353942871094
ell 694, elapsed: 0.0004448890686035156
ell 693, elapsed: 0.0005228519439697266
ell 692, elapsed: 0.0004429817199707031
ell 691, elapsed: 0.00044798851013183594
ell 690, elapsed: 0.0004429817199707031
ell 689, elapsed: 0.0004401206970214844
ell 688, elapsed: 0.0004458427429199219
ell 687, elapsed: 0.000621795654296875
ell 686, elapsed: 0.0006101131439208984
ell 685, elapsed: 0.0005359649658203125
ell 684, elapsed: 0.0005679130554199219
ell 683, elapsed: 0.0006120204925537109
ell 682, elapsed: 0.0004961490631103516
ell 681, elapsed: 0.0006470680236816406
ell 680, elapsed: 0.0006170272827148438
ell 679, elapsed: 0.0004439353942871094
ell 678, elapsed: 0.00045990943908691406
ell 677, elapsed: 0.0004367828369140625
ell 676, elapsed: 0.0004410743713378906
ell 675, elapsed: 0.0004360675811767578
ell 674, elapsed: 0.00043201446533203125
ell 673, elapsed: 0.0004470348358154297
ell 672, elapsed: 0.0005440711975097656
ell 671, elapsed: 0.0004420280456542969
ell 670, elapsed: 0.0004439353942871094
ell 669, elapsed: 0.0006351470947265625
ell 668, elapsed: 0.0006198883056640625
ell 667, elapsed: 0.0005190372467041016
ell 666, elapsed: 0.0004429817199707031
ell 665, elapsed: 0.0005230903625488281
ell 664, elapsed: 0.0004420280456542969
ell 663, elapsed: 0.0004379749298095703
ell 662, elapsed: 0.00044417381286621094
ell 661, elapsed: 0.0004410743713378906
ell 660, elapsed: 0.00045013427734375
ell 659, elapsed: 0.00044608116149902344
ell 658, elapsed: 0.0004229545593261719
ell 657, elapsed: 0.0005538463592529297
ell 656, elapsed: 0.0004367828369140625
ell 655, elapsed: 0.0004420280456542969
ell 654, elapsed: 0.0004448890686035156
ell 653, elapsed: 0.00043392181396484375
ell 652, elapsed: 0.00044608116149902344
ell 651, elapsed: 0.0004360675811767578
ell 650, elapsed: 0.00043010711669921875
ell 649, elapsed: 0.0004410743713378906
ell 648, elapsed: 0.0005390644073486328
ell 647, elapsed: 0.0005640983581542969
ell 646, elapsed: 0.00044608116149902344
ell 645, elapsed: 0.00043511390686035156
ell 644, elapsed: 0.00043582916259765625
ell 643, elapsed: 0.00042819976806640625
ell 642, elapsed: 0.0005400180816650391
ell 641, elapsed: 0.0006198883056640625
ell 640, elapsed: 0.0004949569702148438
ell 639, elapsed: 0.0004401206970214844
ell 638, elapsed: 0.00043702125549316406
ell 637, elapsed: 0.0004341602325439453
ell 636, elapsed: 0.00043392181396484375
ell 635, elapsed: 0.0005230903625488281
ell 634, elapsed: 0.0006082057952880859
ell 633, elapsed: 0.0005049705505371094
ell 632, elapsed: 0.0005619525909423828
ell 631, elapsed: 0.0005481243133544922
ell 630, elapsed: 0.0005030632019042969
ell 629, elapsed: 0.0006749629974365234
ell 628, elapsed: 0.0006580352783203125
ell 627, elapsed: 0.0005960464477539062
ell 626, elapsed: 0.0005631446838378906
ell 625, elapsed: 0.0006089210510253906
ell 624, elapsed: 0.000453948974609375
ell 623, elapsed: 0.0004429817199707031
ell 622, elapsed: 0.0005190372467041016
ell 621, elapsed: 0.00044798851013183594
ell 620, elapsed: 0.00044083595275878906
ell 619, elapsed: 0.0004420280456542969
ell 618, elapsed: 0.0004448890686035156
ell 617, elapsed: 0.0004382133483886719
ell 616, elapsed: 0.00044608116149902344
ell 615, elapsed: 0.00044989585876464844
ell 614, elapsed: 0.0005538463592529297
ell 613, elapsed: 0.00044798851013183594
ell 612, elapsed: 0.0004448890686035156
ell 611, elapsed: 0.0004849433898925781
ell 610, elapsed: 0.0006248950958251953
ell 609, elapsed: 0.0004420280456542969
ell 608, elapsed: 0.0004448890686035156
ell 607, elapsed: 0.0004398822784423828
ell 606, elapsed: 0.0005171298980712891
ell 605, elapsed: 0.0004451274871826172
ell 604, elapsed: 0.0004432201385498047
ell 603, elapsed: 0.0004420280456542969
ell 602, elapsed: 0.0004439353942871094
ell 601, elapsed: 0.00043892860412597656
ell 600, elapsed: 0.0004458427429199219
ell 599, elapsed: 0.0004420280456542969
ell 598, elapsed: 0.000453948974609375
ell 597, elapsed: 0.0004448890686035156
ell 596, elapsed: 0.0004360675811767578
ell 595, elapsed: 0.00044417381286621094
ell 594, elapsed: 0.0004410743713378906
ell 593, elapsed: 0.00043702125549316406
ell 592, elapsed: 0.00044608116149902344
ell 591, elapsed: 0.0004429817199707031
ell 590, elapsed: 0.0004508495330810547
ell 589, elapsed: 0.0004451274871826172
ell 588, elapsed: 0.0004401206970214844
ell 587, elapsed: 0.00044798851013183594
ell 586, elapsed: 0.00043892860412597656
ell 585, elapsed: 0.00045299530029296875
ell 584, elapsed: 0.0004448890686035156
ell 583, elapsed: 0.00045800209045410156
ell 582, elapsed: 0.00047397613525390625
ell 581, elapsed: 0.0006098747253417969
ell 580, elapsed: 0.0005500316619873047
ell 579, elapsed: 0.0006160736083984375
ell 578, elapsed: 0.0006849765777587891
ell 577, elapsed: 0.0006771087646484375
ell 576, elapsed: 0.0005371570587158203
ell 575, elapsed: 0.00044798851013183594
ell 574, elapsed: 0.00044798851013183594
ell 573, elapsed: 0.00044608116149902344
ell 572, elapsed: 0.00044608116149902344
ell 571, elapsed: 0.00045299530029296875
ell 570, elapsed: 0.0004448890686035156
ell 569, elapsed: 0.00044918060302734375
ell 568, elapsed: 0.0004649162292480469
ell 567, elapsed: 0.00044798851013183594
ell 566, elapsed: 0.00044798851013183594
ell 565, elapsed: 0.00043702125549316406
ell 564, elapsed: 0.00046515464782714844
ell 563, elapsed: 0.0004429817199707031
ell 562, elapsed: 0.0004420280456542969
ell 561, elapsed: 0.0004470348358154297
ell 560, elapsed: 0.00045680999755859375
ell 559, elapsed: 0.0004429817199707031
ell 558, elapsed: 0.0004429817199707031
ell 557, elapsed: 0.0004448890686035156
ell 556, elapsed: 0.0004410743713378906
ell 555, elapsed: 0.0004451274871826172
ell 554, elapsed: 0.0004489421844482422
ell 553, elapsed: 0.0004470348358154297
ell 552, elapsed: 0.00045609474182128906
ell 551, elapsed: 0.00045490264892578125
ell 550, elapsed: 0.0004489421844482422
ell 549, elapsed: 0.00043892860412597656
ell 548, elapsed: 0.0004448890686035156
ell 547, elapsed: 0.0004470348358154297
ell 546, elapsed: 0.0004401206970214844
ell 545, elapsed: 0.0004601478576660156
ell 544, elapsed: 0.0004608631134033203
ell 543, elapsed: 0.00045013427734375
ell 542, elapsed: 0.0004429817199707031
ell 541, elapsed: 0.0004451274871826172
ell 540, elapsed: 0.0004608631134033203
ell 539, elapsed: 0.00043892860412597656
ell 538, elapsed: 0.0004360675811767578
ell 537, elapsed: 0.0004429817199707031
ell 536, elapsed: 0.0004620552062988281
ell 535, elapsed: 0.0006568431854248047
ell 534, elapsed: 0.0007050037384033203
ell 533, elapsed: 0.0007178783416748047
ell 532, elapsed: 0.0006968975067138672
ell 531, elapsed: 0.0008149147033691406
ell 530, elapsed: 0.0006799697875976562
ell 529, elapsed: 0.0005960464477539062
ell 528, elapsed: 0.0005009174346923828
ell 527, elapsed: 0.0006749629974365234
ell 526, elapsed: 0.0006361007690429688
ell 525, elapsed: 0.0008029937744140625
ell 524, elapsed: 0.00046706199645996094
ell 523, elapsed: 0.0004420280456542969
ell 522, elapsed: 0.00044417381286621094
ell 521, elapsed: 0.0004429817199707031
ell 520, elapsed: 0.0004379749298095703
ell 519, elapsed: 0.0004439353942871094
ell 518, elapsed: 0.0004410743713378906
ell 517, elapsed: 0.00045013427734375
ell 516, elapsed: 0.0004470348358154297
ell 515, elapsed: 0.00043702125549316406
ell 514, elapsed: 0.0004470348358154297
ell 513, elapsed: 0.00043702125549316406
ell 512, elapsed: 0.0004398822784423828
ell 511, elapsed: 0.00044608116149902344
ell 510, elapsed: 0.0004420280456542969
ell 509, elapsed: 0.00045299530029296875
ell 508, elapsed: 0.0004467964172363281
ell 507, elapsed: 0.00044083595275878906
ell 506, elapsed: 0.00044608116149902344
ell 505, elapsed: 0.0004401206970214844
ell 504, elapsed: 0.0004451274871826172
ell 503, elapsed: 0.0004439353942871094
ell 502, elapsed: 0.0004470348358154297
ell 501, elapsed: 0.0004451274871826172
ell 500, elapsed: 0.0004401206970214844
ell 499, elapsed: 0.0004420280456542969
ell 498, elapsed: 0.0004429817199707031
ell 497, elapsed: 0.0004420280456542969
ell 496, elapsed: 0.00043892860412597656
ell 495, elapsed: 0.0004439353942871094
ell 494, elapsed: 0.0004398822784423828
ell 493, elapsed: 0.0004680156707763672
ell 492, elapsed: 0.0004470348358154297
ell 491, elapsed: 0.00043487548828125
ell 490, elapsed: 0.00045108795166015625
ell 489, elapsed: 0.0004410743713378906
ell 488, elapsed: 0.00044798851013183594
ell 487, elapsed: 0.0004489421844482422
ell 486, elapsed: 0.000453948974609375
ell 485, elapsed: 0.0004630088806152344
ell 484, elapsed: 0.00043892860412597656
ell 483, elapsed: 0.0004398822784423828
ell 482, elapsed: 0.0004398822784423828
ell 481, elapsed: 0.00043892860412597656
ell 480, elapsed: 0.0004451274871826172
ell 479, elapsed: 0.0004420280456542969
ell 478, elapsed: 0.0004420280456542969
ell 477, elapsed: 0.0006089210510253906
ell 476, elapsed: 0.0007200241088867188
ell 475, elapsed: 0.0007121562957763672
ell 474, elapsed: 0.000701904296875
ell 473, elapsed: 0.0006990432739257812
ell 472, elapsed: 0.0007328987121582031
ell 471, elapsed: 0.00047588348388671875
ell 470, elapsed: 0.0004420280456542969
ell 469, elapsed: 0.0004470348358154297
ell 468, elapsed: 0.00044083595275878906
ell 467, elapsed: 0.0004298686981201172
ell 466, elapsed: 0.00044798851013183594
ell 465, elapsed: 0.0004439353942871094
ell 464, elapsed: 0.0004661083221435547
ell 463, elapsed: 0.0004417896270751953
ell 462, elapsed: 0.0004458427429199219
ell 461, elapsed: 0.0004520416259765625
ell 460, elapsed: 0.0004420280456542969
ell 459, elapsed: 0.00045013427734375
ell 458, elapsed: 0.0004398822784423828
ell 457, elapsed: 0.000469207763671875
ell 456, elapsed: 0.00045490264892578125
ell 455, elapsed: 0.0004379749298095703
ell 454, elapsed: 0.00044798851013183594
ell 453, elapsed: 0.00044083595275878906
ell 452, elapsed: 0.00043511390686035156
ell 451, elapsed: 0.00044989585876464844
ell 450, elapsed: 0.00043392181396484375
ell 449, elapsed: 0.0004649162292480469
ell 448, elapsed: 0.0004401206970214844
ell 447, elapsed: 0.0004429817199707031
ell 446, elapsed: 0.00043702125549316406
ell 445, elapsed: 0.00043082237243652344
ell 444, elapsed: 0.0004329681396484375
ell 443, elapsed: 0.0004391670227050781
ell 442, elapsed: 0.0004448890686035156
ell 441, elapsed: 0.000659942626953125
ell 440, elapsed: 0.0005860328674316406
ell 439, elapsed: 0.0004341602325439453
ell 438, elapsed: 0.0005939006805419922
ell 437, elapsed: 0.0005788803100585938
ell 436, elapsed: 0.0006890296936035156
ell 435, elapsed: 0.0005269050598144531
ell 434, elapsed: 0.0004429817199707031
ell 433, elapsed: 0.0004520416259765625
ell 432, elapsed: 0.0004432201385498047
ell 431, elapsed: 0.00043702125549316406
ell 430, elapsed: 0.0004470348358154297
ell 429, elapsed: 0.0004329681396484375
ell 428, elapsed: 0.0004439353942871094
ell 427, elapsed: 0.0004639625549316406
ell 426, elapsed: 0.0004589557647705078
ell 425, elapsed: 0.00045299530029296875
ell 424, elapsed: 0.0004470348358154297
ell 423, elapsed: 0.0004467964172363281
ell 422, elapsed: 0.0004417896270751953
ell 421, elapsed: 0.0004382133483886719
ell 420, elapsed: 0.00045299530029296875
ell 419, elapsed: 0.0006320476531982422
ell 418, elapsed: 0.0005021095275878906
ell 417, elapsed: 0.0004379749298095703
ell 416, elapsed: 0.0004417896270751953
ell 415, elapsed: 0.0004398822784423828
ell 414, elapsed: 0.0004360675811767578
ell 413, elapsed: 0.0006308555603027344
ell 412, elapsed: 0.0004990100860595703
ell 411, elapsed: 0.00044083595275878906
ell 410, elapsed: 0.0004401206970214844
ell 409, elapsed: 0.0006480216979980469
ell 408, elapsed: 0.0006859302520751953
ell 407, elapsed: 0.0006899833679199219
ell 406, elapsed: 0.0005779266357421875
ell 405, elapsed: 0.00045609474182128906
ell 404, elapsed: 0.0005888938903808594
ell 403, elapsed: 0.0005691051483154297
ell 402, elapsed: 0.0006248950958251953
ell 401, elapsed: 0.0006749629974365234
ell 400, elapsed: 0.0007379055023193359
ell 399, elapsed: 0.0005509853363037109
ell 398, elapsed: 0.00042891502380371094
ell 397, elapsed: 0.0005848407745361328
ell 396, elapsed: 0.00055694580078125
ell 395, elapsed: 0.00043392181396484375
ell 394, elapsed: 0.0006320476531982422
ell 393, elapsed: 0.004693031311035156
ell 392, elapsed: 0.000640869140625
ell 391, elapsed: 0.0006499290466308594
ell 390, elapsed: 0.0006830692291259766
ell 389, elapsed: 0.0005898475646972656
ell 388, elapsed: 0.0006270408630371094
ell 387, elapsed: 0.0005629062652587891
ell 386, elapsed: 0.0004558563232421875
ell 385, elapsed: 0.0006210803985595703
ell 384, elapsed: 0.0005738735198974609
ell 383, elapsed: 0.0004489421844482422
ell 382, elapsed: 0.0004298686981201172
ell 381, elapsed: 0.00046706199645996094
ell 380, elapsed: 0.0004451274871826172
ell 379, elapsed: 0.0004379749298095703
ell 378, elapsed: 0.0005359649658203125
ell 377, elapsed: 0.0005669593811035156
ell 376, elapsed: 0.00043392181396484375
ell 375, elapsed: 0.0004279613494873047
ell 374, elapsed: 0.0004248619079589844
ell 373, elapsed: 0.0006558895111083984
ell 372, elapsed: 0.0005300045013427734
ell 371, elapsed: 0.0006349086761474609
ell 370, elapsed: 0.0005218982696533203
ell 369, elapsed: 0.0006139278411865234
ell 368, elapsed: 0.0006990432739257812
ell 367, elapsed: 0.0007262229919433594
ell 366, elapsed: 0.0006649494171142578
ell 365, elapsed: 0.0006070137023925781
ell 364, elapsed: 0.0006818771362304688
ell 363, elapsed: 0.0006861686706542969
ell 362, elapsed: 0.0007159709930419922
ell 361, elapsed: 0.0006730556488037109
ell 360, elapsed: 0.0006818771362304688
ell 359, elapsed: 0.0005109310150146484
ell 358, elapsed: 0.0005431175231933594
ell 357, elapsed: 0.0006818771362304688
ell 356, elapsed: 0.0005960464477539062
ell 355, elapsed: 0.0004439353942871094
ell 354, elapsed: 0.00043201446533203125
ell 353, elapsed: 0.0005221366882324219
ell 352, elapsed: 0.0005779266357421875
ell 351, elapsed: 0.0004429817199707031
ell 350, elapsed: 0.0006041526794433594
ell 349, elapsed: 0.0045740604400634766
ell 348, elapsed: 0.0004639625549316406
ell 347, elapsed: 0.0004649162292480469
ell 346, elapsed: 0.0006477832794189453
ell 345, elapsed: 0.0004780292510986328
ell 344, elapsed: 0.0006310939788818359
ell 343, elapsed: 0.0005362033843994141
ell 342, elapsed: 0.0004532337188720703
ell 341, elapsed: 0.0004458427429199219
ell 340, elapsed: 0.0006070137023925781
ell 339, elapsed: 0.0005230903625488281
ell 338, elapsed: 0.0004429817199707031
ell 337, elapsed: 0.0004508495330810547
ell 336, elapsed: 0.0006330013275146484
ell 335, elapsed: 0.0005338191986083984
ell 334, elapsed: 0.0004551410675048828
ell 333, elapsed: 0.0005788803100585938
ell 332, elapsed: 0.0005910396575927734
ell 331, elapsed: 0.00045108795166015625
ell 330, elapsed: 0.0004317760467529297
ell 329, elapsed: 0.0004439353942871094
ell 328, elapsed: 0.0005180835723876953
ell 327, elapsed: 0.0005929470062255859
ell 326, elapsed: 0.0004470348358154297
ell 325, elapsed: 0.0004458427429199219
ell 324, elapsed: 0.0004451274871826172
ell 323, elapsed: 0.00044989585876464844
ell 322, elapsed: 0.0004508495330810547
ell 321, elapsed: 0.0004649162292480469
ell 320, elapsed: 0.00043892860412597656
ell 319, elapsed: 0.0004341602325439453
ell 318, elapsed: 0.0006039142608642578
ell 317, elapsed: 0.00055694580078125
ell 316, elapsed: 0.0004520416259765625
ell 315, elapsed: 0.00044083595275878906
ell 314, elapsed: 0.0006392002105712891
ell 313, elapsed: 0.00048804283142089844
ell 312, elapsed: 0.0004420280456542969
ell 311, elapsed: 0.0005781650543212891
ell 310, elapsed: 0.0005440711975097656
ell 309, elapsed: 0.0004410743713378906
ell 308, elapsed: 0.0004520416259765625
ell 307, elapsed: 0.00046515464782714844
ell 306, elapsed: 0.0004439353942871094
ell 305, elapsed: 0.00043511390686035156
ell 304, elapsed: 0.00043082237243652344
ell 303, elapsed: 0.0004467964172363281
ell 302, elapsed: 0.0004401206970214844
ell 301, elapsed: 0.00043511390686035156
ell 300, elapsed: 0.0004470348358154297
ell 299, elapsed: 0.0004911422729492188
ell 298, elapsed: 0.00045490264892578125
ell 297, elapsed: 0.0004470348358154297
ell 296, elapsed: 0.00043892860412597656
ell 295, elapsed: 0.0004360675811767578
ell 294, elapsed: 0.0004279613494873047
ell 293, elapsed: 0.0005741119384765625
ell 292, elapsed: 0.0005199909210205078
ell 291, elapsed: 0.000637054443359375
ell 290, elapsed: 0.0005099773406982422
ell 289, elapsed: 0.0004391670227050781
ell 288, elapsed: 0.0005509853363037109
ell 287, elapsed: 0.0005748271942138672
ell 286, elapsed: 0.0006029605865478516
ell 285, elapsed: 0.004670143127441406
ell 284, elapsed: 0.0005669593811035156
ell 283, elapsed: 0.00045990943908691406
ell 282, elapsed: 0.0004639625549316406
ell 281, elapsed: 0.0004508495330810547
ell 280, elapsed: 0.00044989585876464844
ell 279, elapsed: 0.00044989585876464844
ell 278, elapsed: 0.0004639625549316406
ell 277, elapsed: 0.00045800209045410156
ell 276, elapsed: 0.0004570484161376953
ell 275, elapsed: 0.00045299530029296875
ell 274, elapsed: 0.00045299530029296875
ell 273, elapsed: 0.00044798851013183594
ell 272, elapsed: 0.00044918060302734375
ell 271, elapsed: 0.00045609474182128906
ell 270, elapsed: 0.0004658699035644531
ell 269, elapsed: 0.0004508495330810547
ell 268, elapsed: 0.000598907470703125
ell 267, elapsed: 0.0006248950958251953
ell 266, elapsed: 0.0006937980651855469
ell 265, elapsed: 0.0006990432739257812
ell 264, elapsed: 0.0005481243133544922
ell 263, elapsed: 0.0004649162292480469
ell 262, elapsed: 0.00045013427734375
ell 261, elapsed: 0.0004699230194091797
ell 260, elapsed: 0.0005309581756591797
ell 259, elapsed: 0.0006520748138427734
ell 258, elapsed: 0.0006358623504638672
ell 257, elapsed: 0.00045609474182128906
ell 256, elapsed: 0.00045418739318847656
ell 255, elapsed: 0.0005810260772705078
ell 254, elapsed: 0.0006990432739257812
ell 253, elapsed: 0.0006940364837646484
ell 252, elapsed: 0.0005559921264648438
ell 251, elapsed: 0.00044798851013183594
ell 250, elapsed: 0.0005161762237548828
ell 249, elapsed: 0.0006918907165527344
ell 248, elapsed: 0.0006990432739257812
ell 247, elapsed: 0.000698089599609375
ell 246, elapsed: 0.0006031990051269531
ell 245, elapsed: 0.00045418739318847656
ell 244, elapsed: 0.0004520416259765625
ell 243, elapsed: 0.0004570484161376953
ell 242, elapsed: 0.0005691051483154297
ell 241, elapsed: 0.0005609989166259766
ell 240, elapsed: 0.00045990943908691406
ell 239, elapsed: 0.00044798851013183594
ell 238, elapsed: 0.0004818439483642578
ell 237, elapsed: 0.0004661083221435547
ell 236, elapsed: 0.0004589557647705078
ell 235, elapsed: 0.00047087669372558594
ell 234, elapsed: 0.0004398822784423828
ell 233, elapsed: 0.000579833984375
ell 232, elapsed: 0.0007028579711914062
ell 231, elapsed: 0.0006911754608154297
ell 230, elapsed: 0.0006940364837646484
ell 229, elapsed: 0.0007190704345703125
ell 228, elapsed: 0.0005137920379638672
ell 227, elapsed: 0.0006439685821533203
ell 226, elapsed: 0.0006699562072753906
ell 225, elapsed: 0.0006921291351318359
ell 224, elapsed: 0.0006940364837646484
ell 223, elapsed: 0.0007059574127197266
ell 222, elapsed: 0.0005939006805419922
ell 221, elapsed: 0.00045013427734375
ell 220, elapsed: 0.0005850791931152344
ell 219, elapsed: 0.0006840229034423828
ell 218, elapsed: 0.0007140636444091797
ell 217, elapsed: 0.0006968975067138672
ell 216, elapsed: 0.0006940364837646484
ell 215, elapsed: 0.0007069110870361328
ell 214, elapsed: 0.0006880760192871094
ell 213, elapsed: 0.0007040500640869141
ell 212, elapsed: 0.0006718635559082031
ell 211, elapsed: 0.0007078647613525391
ell 210, elapsed: 0.0006740093231201172
ell 209, elapsed: 0.0005741119384765625
ell 208, elapsed: 0.0006320476531982422
ell 207, elapsed: 0.0007240772247314453
ell 206, elapsed: 0.00055694580078125
ell 205, elapsed: 0.0007228851318359375
ell 204, elapsed: 0.0006489753723144531
ell 203, elapsed: 0.0008471012115478516
ell 202, elapsed: 0.004630088806152344
ell 201, elapsed: 0.0006480216979980469
ell 200, elapsed: 0.0005328655242919922
ell 199, elapsed: 0.0004448890686035156
ell 198, elapsed: 0.00044918060302734375
ell 197, elapsed: 0.0004448890686035156
ell 196, elapsed: 0.00045108795166015625
ell 195, elapsed: 0.00047898292541503906
ell 194, elapsed: 0.00044798851013183594
ell 193, elapsed: 0.00045180320739746094
ell 192, elapsed: 0.0004448890686035156
ell 191, elapsed: 0.0005941390991210938
ell 190, elapsed: 0.0005409717559814453
ell 189, elapsed: 0.0005869865417480469
ell 188, elapsed: 0.0004630088806152344
ell 187, elapsed: 0.0004429817199707031
ell 186, elapsed: 0.0004401206970214844
ell 185, elapsed: 0.0004439353942871094
ell 184, elapsed: 0.00055694580078125
ell 183, elapsed: 0.0006129741668701172
ell 182, elapsed: 0.0006039142608642578
ell 181, elapsed: 0.00051116943359375
ell 180, elapsed: 0.0005719661712646484
ell 179, elapsed: 0.0006761550903320312
ell 178, elapsed: 0.0004980564117431641
ell 177, elapsed: 0.0005421638488769531
ell 176, elapsed: 0.0006799697875976562
ell 175, elapsed: 0.0006639957427978516
ell 174, elapsed: 0.0004391670227050781
ell 173, elapsed: 0.0008780956268310547
ell 172, elapsed: 0.00047397613525390625
ell 171, elapsed: 0.0004980564117431641
ell 170, elapsed: 0.0004429817199707031
ell 169, elapsed: 0.0005788803100585938
ell 168, elapsed: 0.0005099773406982422
ell 167, elapsed: 0.000782012939453125
ell 166, elapsed: 0.0006289482116699219
ell 165, elapsed: 0.0005440711975097656
ell 164, elapsed: 0.0006048679351806641
ell 163, elapsed: 0.0005719661712646484
ell 162, elapsed: 0.0005960464477539062
ell 161, elapsed: 0.0005278587341308594
ell 160, elapsed: 0.0006279945373535156
ell 159, elapsed: 0.0006930828094482422
ell 158, elapsed: 0.0005931854248046875
ell 157, elapsed: 0.0005450248718261719
ell 156, elapsed: 0.0004420280456542969
ell 155, elapsed: 0.0006158351898193359
ell 154, elapsed: 0.0005428791046142578
ell 153, elapsed: 0.0006210803985595703
ell 152, elapsed: 0.0006690025329589844
ell 151, elapsed: 0.0006921291351318359
ell 150, elapsed: 0.00043201446533203125
ell 149, elapsed: 0.0006289482116699219
ell 148, elapsed: 0.0005190372467041016
ell 147, elapsed: 0.0004439353942871094
ell 146, elapsed: 0.0004448890686035156
ell 145, elapsed: 0.00044608116149902344
ell 144, elapsed: 0.0006880760192871094
ell 143, elapsed: 0.0005590915679931641
ell 142, elapsed: 0.0004448890686035156
ell 141, elapsed: 0.0005350112915039062
ell 140, elapsed: 0.0005779266357421875
ell 139, elapsed: 0.000576019287109375
ell 138, elapsed: 0.0006458759307861328
ell 137, elapsed: 0.00044798851013183594
ell 136, elapsed: 0.0004489421844482422
ell 135, elapsed: 0.0006511211395263672
ell 134, elapsed: 0.0005800724029541016
ell 133, elapsed: 0.0004589557647705078
ell 132, elapsed: 0.0004398822784423828
ell 131, elapsed: 0.0007169246673583984
ell 130, elapsed: 0.0006389617919921875
ell 129, elapsed: 0.00067901611328125
ell 128, elapsed: 0.0005199909210205078
ell 127, elapsed: 0.0004429817199707031
ell 126, elapsed: 0.000640869140625
ell 125, elapsed: 0.0006809234619140625
ell 124, elapsed: 0.0005230903625488281
ell 123, elapsed: 0.0006129741668701172
ell 122, elapsed: 0.0005679130554199219
ell 121, elapsed: 0.00045490264892578125
ell 120, elapsed: 0.0004439353942871094
ell 119, elapsed: 0.00045680999755859375
ell 118, elapsed: 0.0005669593811035156
ell 117, elapsed: 0.0005218982696533203
ell 116, elapsed: 0.0007038116455078125
ell 115, elapsed: 0.0005309581756591797
ell 114, elapsed: 0.00043010711669921875
ell 113, elapsed: 0.00043010711669921875
ell 112, elapsed: 0.0004410743713378906
ell 111, elapsed: 0.0005710124969482422
ell 110, elapsed: 0.0005850791931152344
ell 109, elapsed: 0.0005340576171875
ell 108, elapsed: 0.00043702125549316406
ell 107, elapsed: 0.00044989585876464844
ell 106, elapsed: 0.0004489421844482422
ell 105, elapsed: 0.0004398822784423828
ell 104, elapsed: 0.0005419254302978516
ell 103, elapsed: 0.00043201446533203125
ell 102, elapsed: 0.0004489421844482422
ell 101, elapsed: 0.0005500316619873047
ell 100, elapsed: 0.0005619525909423828
ell 99, elapsed: 0.0004429817199707031
ell 98, elapsed: 0.0004329681396484375
ell 97, elapsed: 0.0005550384521484375
ell 96, elapsed: 0.0004429817199707031
ell 95, elapsed: 0.0004458427429199219
ell 94, elapsed: 0.000453948974609375
ell 93, elapsed: 0.00044918060302734375
ell 92, elapsed: 0.00045609474182128906
ell 91, elapsed: 0.00045299530029296875
ell 90, elapsed: 0.0004420280456542969
ell 89, elapsed: 0.0005369186401367188
ell 88, elapsed: 0.0004439353942871094
ell 87, elapsed: 0.00045108795166015625
ell 86, elapsed: 0.00045490264892578125
ell 85, elapsed: 0.0004439353942871094
ell 84, elapsed: 0.0004489421844482422
ell 83, elapsed: 0.0004451274871826172
ell 82, elapsed: 0.00043511390686035156
ell 81, elapsed: 0.0005578994750976562
ell 80, elapsed: 0.0004448890686035156
ell 79, elapsed: 0.0004379749298095703
ell 78, elapsed: 0.00044608116149902344
ell 77, elapsed: 0.00045299530029296875
ell 76, elapsed: 0.0006389617919921875
ell 75, elapsed: 0.0005118846893310547
ell 74, elapsed: 0.0005350112915039062
ell 73, elapsed: 0.0004420280456542969
ell 72, elapsed: 0.00042700767517089844
ell 71, elapsed: 0.0004360675811767578
ell 70, elapsed: 0.0004382133483886719
ell 69, elapsed: 0.0004391670227050781
ell 68, elapsed: 0.0005991458892822266
ell 67, elapsed: 0.0006108283996582031
ell 66, elapsed: 0.0005218982696533203
ell 65, elapsed: 0.0006000995635986328
ell 64, elapsed: 0.00043320655822753906
ell 63, elapsed: 0.00044798851013183594
ell 62, elapsed: 0.0004451274871826172
ell 61, elapsed: 0.0004410743713378906
ell 60, elapsed: 0.0004429817199707031
ell 59, elapsed: 0.0005340576171875
ell 58, elapsed: 0.00043702125549316406
ell 57, elapsed: 0.00043392181396484375
ell 56, elapsed: 0.00043511390686035156
ell 55, elapsed: 0.0004360675811767578
ell 54, elapsed: 0.0004398822784423828
ell 53, elapsed: 0.0004341602325439453
ell 52, elapsed: 0.0004391670227050781
ell 51, elapsed: 0.0005619525909423828
ell 50, elapsed: 0.00045490264892578125
ell 49, elapsed: 0.0004410743713378906
ell 48, elapsed: 0.00045013427734375
ell 47, elapsed: 0.0004489421844482422
ell 46, elapsed: 0.0006220340728759766
ell 45, elapsed: 0.0005090236663818359
ell 44, elapsed: 0.0006887912750244141
ell 43, elapsed: 0.0004940032958984375
ell 42, elapsed: 0.0004508495330810547
ell 41, elapsed: 0.0004341602325439453
ell 40, elapsed: 0.0006208419799804688
ell 39, elapsed: 0.0004990100860595703
ell 38, elapsed: 0.0004470348358154297
ell 37, elapsed: 0.0005412101745605469
ell 36, elapsed: 0.00044798851013183594
ell 35, elapsed: 0.0004470348358154297
ell 34, elapsed: 0.0005731582641601562
ell 33, elapsed: 0.0005400180816650391
ell 32, elapsed: 0.0004448890686035156
ell 31, elapsed: 0.00043392181396484375
ell 30, elapsed: 0.0005431175231933594
ell 29, elapsed: 0.00043892860412597656
ell 28, elapsed: 0.0004420280456542969
ell 27, elapsed: 0.00044083595275878906
ell 26, elapsed: 0.0004329681396484375
ell 25, elapsed: 0.0004630088806152344
ell 24, elapsed: 0.0004801750183105469
ell 23, elapsed: 0.0007059574127197266
ell 22, elapsed: 0.00044798851013183594
ell 21, elapsed: 0.00045418739318847656
ell 20, elapsed: 0.0004420280456542969
ell 19, elapsed: 0.0005369186401367188
ell 18, elapsed: 0.0005688667297363281
ell 17, elapsed: 0.00044798851013183594
ell 16, elapsed: 0.0006639957427978516
ell 15, elapsed: 0.0004451274871826172
ell 14, elapsed: 0.00045490264892578125
ell 13, elapsed: 0.0005397796630859375
ell 12, elapsed: 0.0005779266357421875
ell 11, elapsed: 0.0004611015319824219
ell 10, elapsed: 0.0006468296051025391
ell 9, elapsed: 0.0006239414215087891
ell 8, elapsed: 0.0005431175231933594
ell 7, elapsed: 0.00044083595275878906
ell 6, elapsed: 0.00044083595275878906
ell 5, elapsed: 0.0004508495330810547
ell 4, elapsed: 0.0004439353942871094
ell 3, elapsed: 0.0006489753723144531
ell 2, elapsed: 0.0007719993591308594
ell 1, elapsed: 0.0004980564117431641
ell 0, elapsed: 0.0006279945373535156
  0.729500 seconds (103.68 k allocations: 3.971 MiB)
elapsed: 0.0005669593811035156
step:          0.073046 sec (0 allocations: 0 byte, 0.0% gc time)
swapping:      0.000819 sec (0 allocations: 0 byte, 0.0% gc time)
calc_Mellell!: 0.010948 sec (0 allocations: 0 byte, 0.0% gc time)
  t0 :  0.002379 sec (0 allocations: 0 byte, 0.0% gc time)
  tm2 : 0.110426 sec (0 allocations: 0 byte, 0.0% gc time)
  tm2s: 0.001592 sec (0 allocations: 0 byte, 0.0% gc time)
  tm4 : 0.290457 sec (0 allocations: 0 byte, 0.0% gc time)
  tp2 : 0.0 sec (0 allocations: 0 byte, 0.0% gc time)
  tp2s: 0.0 sec (0 allocations: 0 byte, 0.0% gc time)
  tp4 : 0.0 sec (0 allocations: 0 byte, 0.0% gc time)
calc_wtdll!:   0.440411 sec (9.9 k allocations: 1.047 MB, 0.0% gc time)
calc_wljj!:    0.046588 sec (689 allocations: 10.766 KB, 0.0% gc time)
mult_prefac!:  0.0 sec (0 allocations: 0 byte, 0.0% gc time)
convert:       0.0 sec (0 allocations: 0 byte, 0.0% gc time)
write:         0.044881 sec (0 allocations: 0 byte, 0.0% gc time)
test_rand_2f1: 0.0 sec (0 allocations: 0 byte, 0.0% gc time)
Closing outfile out/Ml21-cache.bin...   0.000007 seconds
  0.000620 seconds (36 allocations: 27.953 KiB)
make_phi():   0.002964 seconds (9.47 k allocations: 257.875 KiB)
  0.289600 seconds (141.90 k allocations: 3.483 MiB)
tskip:       0.005413 sec (0 allocations: 0 byte, 0.0% gc time)
tread:       0.035966 sec (17 allocations: 10.641 KB, 0.0% gc time)
tmultphi:    0.018618 sec (0 allocations: 0 byte, 0.0% gc time)
tbrfft:      0.06848 sec (0 allocations: 0 byte, 0.0% gc time)
tmultprefac: 0.061515 sec (0 allocations: 0 byte, 0.0% gc time)
toutfunc:    0.092623 sec (127.507 k allocations: 2.312 MB, 0.0% gc time)
Testing R=1.0 ... passed
Calculating fmax: 
  dlrec    = 4
  dlrecRg1 = -4
  q=1.1, R=0.9:	  0.490818 seconds (105.76 k allocations: 15.287 MiB, 3.79% gc time)

  0.491214 seconds (105.99 k allocations: 15.324 MiB, 3.79% gc time)
ℓ = 1202
Δℓ = 4
ΔℓRg1 = -4
N = 1600
q = 1.1
kmin = 1.0e-5
kmax = 100000.00000000004
χ0 = 0.023029999999999995
RR = RR.tsv
ℓmax = ℓmax.bin
f21 = f21.bin
kmin = 1.0e-5
kmax = 100000.0
dlrec    = 4
dlrecRg1 = -4
Output size: 5741568 bytes = 0.005347251892089844 GiB
Output size: 51264 bytes = 4.774332046508789e-5 GiB
Reading 'out/F21EllCache'...   0.001107 seconds (197 allocations: 84.203 KiB)
ellmax: 1202
lmaxcache: 1202
fell[:,1,1] = ComplexF64[1.3482014726274674e-57 - 3.302141236118086e-73im, 1.357860004724329e-57 - 3.3257978169518355e-73im]
ell 1202, elapsed: 2.5033950805664062e-5
ell 1201, elapsed: 0.00041413307189941406
ell 1200, elapsed: 0.0003781318664550781
ell 1199, elapsed: 0.0003809928894042969
ell 1198, elapsed: 0.0003809928894042969
ell 1002, elapsed: 0.010162830352783203
ell 1001, elapsed: 0.0004138946533203125
ell 1000, elapsed: 0.0003800392150878906
ell 999, elapsed: 0.0003769397735595703
ell 998, elapsed: 0.0003781318664550781
ell 902, elapsed: 0.005761146545410156
ell 901, elapsed: 0.00040221214294433594
ell 900, elapsed: 0.0003790855407714844
ell 899, elapsed: 0.00044989585876464844
ell 898, elapsed: 0.0005478858947753906
ell 802, elapsed: 0.005788087844848633
ell 801, elapsed: 0.0005099773406982422
ell 800, elapsed: 0.0005900859832763672
ell 799, elapsed: 0.0005121231079101562
ell 798, elapsed: 0.00051116943359375
ell 702, elapsed: 0.0055391788482666016
ell 701, elapsed: 0.000408172607421875
ell 700, elapsed: 0.00038313865661621094
ell 699, elapsed: 0.0003809928894042969
ell 698, elapsed: 0.0003790855407714844
ell 602, elapsed: 0.005755901336669922
ell 601, elapsed: 0.0005459785461425781
ell 600, elapsed: 0.0005590915679931641
ell 599, elapsed: 0.0005388259887695312
ell 598, elapsed: 0.0005788803100585938
ell 502, elapsed: 0.006234884262084961
ell 501, elapsed: 0.0003879070281982422
ell 500, elapsed: 0.00037598609924316406
ell 499, elapsed: 0.0005178451538085938
ell 498, elapsed: 0.00047016143798828125
ell 402, elapsed: 0.005753993988037109
ell 401, elapsed: 0.0004029273986816406
ell 400, elapsed: 0.0003829002380371094
ell 399, elapsed: 0.00037789344787597656
ell 398, elapsed: 0.0003809928894042969
ell 302, elapsed: 0.005218029022216797
ell 301, elapsed: 0.00042700767517089844
ell 300, elapsed: 0.0003809928894042969
ell 299, elapsed: 0.00037598609924316406
ell 298, elapsed: 0.00045299530029296875
ell 202, elapsed: 0.005313873291015625
ell 201, elapsed: 0.0004050731658935547
ell 200, elapsed: 0.00037598609924316406
ell 199, elapsed: 0.0003991127014160156
ell 198, elapsed: 0.00037217140197753906
ell 152, elapsed: 0.002988100051879883
ell 151, elapsed: 0.000514984130859375
ell 150, elapsed: 0.00037407875061035156
ell 149, elapsed: 0.00037407875061035156
ell 148, elapsed: 0.00037217140197753906
ell 127, elapsed: 0.0015671253204345703
ell 126, elapsed: 0.00037789344787597656
ell 125, elapsed: 0.000492095947265625
ell 124, elapsed: 0.0004658699035644531
ell 123, elapsed: 0.0004909038543701172
ell 114, elapsed: 0.0011038780212402344
ell 113, elapsed: 0.0004100799560546875
ell 112, elapsed: 0.00047516822814941406
ell 111, elapsed: 0.0005388259887695312
ell 110, elapsed: 0.00047779083251953125
ell 102, elapsed: 0.0011129379272460938
ell 101, elapsed: 0.0005121231079101562
ell 100, elapsed: 0.0004971027374267578
ell 99, elapsed: 0.0003910064697265625
ell 98, elapsed: 0.0004298686981201172
ell 97, elapsed: 0.0004951953887939453
ell 96, elapsed: 0.0004649162292480469
ell 95, elapsed: 0.0004839897155761719
ell 94, elapsed: 0.0006301403045654297
ell 93, elapsed: 0.0006289482116699219
ell 92, elapsed: 0.0006330013275146484
ell 91, elapsed: 0.0006241798400878906
ell 90, elapsed: 0.0004851818084716797
ell 89, elapsed: 0.0005829334259033203
ell 88, elapsed: 0.0005779266357421875
ell 87, elapsed: 0.0005950927734375
ell 86, elapsed: 0.0005781650543212891
ell 85, elapsed: 0.0006160736083984375
ell 84, elapsed: 0.0005800724029541016
ell 83, elapsed: 0.0005841255187988281
ell 82, elapsed: 0.0005829334259033203
ell 81, elapsed: 0.0005970001220703125
ell 80, elapsed: 0.0005791187286376953
ell 79, elapsed: 0.0005779266357421875
ell 78, elapsed: 0.0008628368377685547
ell 77, elapsed: 0.0008211135864257812
ell 76, elapsed: 0.0005941390991210938
ell 75, elapsed: 0.0007328987121582031
ell 74, elapsed: 0.0006051063537597656
ell 73, elapsed: 0.0008020401000976562
ell 72, elapsed: 0.0007278919219970703
ell 71, elapsed: 0.0006480216979980469
ell 70, elapsed: 0.0006289482116699219
ell 69, elapsed: 0.0007460117340087891
ell 68, elapsed: 0.0008428096771240234
ell 67, elapsed: 0.0006129741668701172
ell 66, elapsed: 0.0008449554443359375
ell 65, elapsed: 0.0007789134979248047
ell 64, elapsed: 0.0005278587341308594
ell 63, elapsed: 0.0005528926849365234
ell 62, elapsed: 0.0006208419799804688
ell 61, elapsed: 0.0005538463592529297
ell 60, elapsed: 0.00061798095703125
ell 59, elapsed: 0.00067901611328125
ell 58, elapsed: 0.0006270408630371094
ell 57, elapsed: 0.00067901611328125
ell 56, elapsed: 0.0006229877471923828
ell 55, elapsed: 0.0005638599395751953
ell 54, elapsed: 0.0006198883056640625
ell 53, elapsed: 0.0006339550018310547
ell 52, elapsed: 0.0006201267242431641
ell 51, elapsed: 0.0005669593811035156
ell 50, elapsed: 0.0006358623504638672
ell 49, elapsed: 0.0006260871887207031
ell 48, elapsed: 0.0006399154663085938
ell 47, elapsed: 0.0006351470947265625
ell 46, elapsed: 0.0006189346313476562
ell 45, elapsed: 0.0006439685821533203
ell 44, elapsed: 0.0006270408630371094
ell 43, elapsed: 0.0006451606750488281
ell 42, elapsed: 0.0006361007690429688
ell 41, elapsed: 0.0006361007690429688
ell 40, elapsed: 0.0006301403045654297
ell 39, elapsed: 0.0006220340728759766
ell 38, elapsed: 0.0008630752563476562
ell 37, elapsed: 0.0006420612335205078
ell 36, elapsed: 0.0005810260772705078
ell 35, elapsed: 0.0006229877471923828
ell 34, elapsed: 0.0006239414215087891
ell 33, elapsed: 0.0006258487701416016
ell 32, elapsed: 0.0009410381317138672
ell 31, elapsed: 0.0006480216979980469
ell 30, elapsed: 0.0006299018859863281
ell 29, elapsed: 0.0006308555603027344
ell 28, elapsed: 0.0006189346313476562
ell 27, elapsed: 0.0005609989166259766
ell 26, elapsed: 0.0005810260772705078
ell 25, elapsed: 0.0005741119384765625
ell 24, elapsed: 0.0005290508270263672
ell 23, elapsed: 0.0005059242248535156
ell 22, elapsed: 0.0005419254302978516
ell 21, elapsed: 0.0005021095275878906
ell 20, elapsed: 0.0005190372467041016
ell 19, elapsed: 0.0004978179931640625
ell 18, elapsed: 0.0005159378051757812
ell 17, elapsed: 0.0005078315734863281
ell 16, elapsed: 0.0005059242248535156
ell 15, elapsed: 0.0005099773406982422
ell 14, elapsed: 0.0004990100860595703
ell 13, elapsed: 0.0006151199340820312
ell 12, elapsed: 0.0005919933319091797
ell 11, elapsed: 0.0005278587341308594
ell 10, elapsed: 0.0005059242248535156
ell 9, elapsed: 0.0004990100860595703
ell 8, elapsed: 0.00045990943908691406
ell 7, elapsed: 0.00045013427734375
ell 6, elapsed: 0.0004639625549316406
ell 5, elapsed: 0.0005919933319091797
ell 4, elapsed: 0.0005199909210205078
ell 3, elapsed: 0.000453948974609375
ell 2, elapsed: 0.00044798851013183594
ell 1, elapsed: 0.00044798851013183594
ell 0, elapsed: 0.0004601478576660156
  0.187674 seconds (19.62 k allocations: 846.438 KiB)
elapsed: 0.0005860328674316406
step:          0.062904 sec (0 allocations: 0 byte, 0.0% gc time)
swapping:      0.000519 sec (0 allocations: 0 byte, 0.0% gc time)
calc_Mellell!: 0.002007 sec (0 allocations: 0 byte, 0.0% gc time)
  t0 :  0.000403 sec (0 allocations: 0 byte, 0.0% gc time)
  tm2 : 0.015256 sec (0 allocations: 0 byte, 0.0% gc time)
  tm2s: 0.000295 sec (0 allocations: 0 byte, 0.0% gc time)
  tm4 : 0.037241 sec (0 allocations: 0 byte, 0.0% gc time)
  tp2 : 0.0 sec (0 allocations: 0 byte, 0.0% gc time)
  tp2s: 0.0 sec (0 allocations: 0 byte, 0.0% gc time)
  tp4 : 0.0 sec (0 allocations: 0 byte, 0.0% gc time)
calc_wtdll!:   0.054083 sec (1.344 k allocations: 147.0 KB, 0.0% gc time)
calc_wljj!:    0.004435 sec (6 allocations: 96 byte, 0.0% gc time)
mult_prefac!:  0.0 sec (0 allocations: 0 byte, 0.0% gc time)
convert:       0.0 sec (0 allocations: 0 byte, 0.0% gc time)
write:         0.004798 sec (0 allocations: 0 byte, 0.0% gc time)
test_rand_2f1: 0.0 sec (0 allocations: 0 byte, 0.0% gc time)
Closing outfile out/Ml21-cache.bin...   0.000007 seconds
  0.000610 seconds (36 allocations: 27.953 KiB)
make_phi():   0.002852 seconds (9.47 k allocations: 257.875 KiB)
  0.023864 seconds (11.65 k allocations: 308.688 KiB)
tskip:       3.0e-5 sec (0 allocations: 0 byte, 0.0% gc time)
tread:       0.003174 sec (17 allocations: 2.125 KB, 0.0% gc time)
tmultphi:    0.001633 sec (0 allocations: 0 byte, 0.0% gc time)
tbrfft:      0.00555 sec (0 allocations: 0 byte, 0.0% gc time)
tmultprefac: 0.005224 sec (0 allocations: 0 byte, 0.0% gc time)
toutfunc:    0.007772 sec (10.304 k allocations: 196.0 KB, 0.0% gc time)
Testing R=0.9 ... passed
Calculating fmax: 
  dlrec    = 4
  dlrecRg1 = -4
  q=1.1, R=0.8:	  0.347295 seconds (103.25 k allocations: 14.856 MiB)

  0.348571 seconds (103.48 k allocations: 14.893 MiB)
ℓ = 1202
Δℓ = 4
ΔℓRg1 = -4
N = 1600
q = 1.1
kmin = 1.0e-5
kmax = 100000.00000000004
χ0 = 0.023029999999999995
RR = RR.tsv
ℓmax = ℓmax.bin
f21 = f21.bin
kmin = 1.0e-5
kmax = 100000.0
dlrec    = 4
dlrecRg1 = -4
Output size: 5741568 bytes = 0.005347251892089844 GiB
Output size: 51264 bytes = 4.774332046508789e-5 GiB
Reading 'out/F21EllCache'...   0.001150 seconds (197 allocations: 84.203 KiB)
ellmax: 1202
lmaxcache: 1202
fell[:,1,1] = ComplexF64[7.519068145690986e-120 - 1.8416405474382574e-135im, 7.541664537386155e-120 - 1.847175067190611e-135im]
ell 1202, elapsed: 6.890296936035156e-5
ell 1201, elapsed: 0.0005471706390380859
ell 1200, elapsed: 0.0005009174346923828
ell 1199, elapsed: 0.00074005126953125
ell 1198, elapsed: 0.0007300376892089844
ell 1002, elapsed: 0.010452032089233398
ell 1001, elapsed: 0.0005068778991699219
ell 1000, elapsed: 0.0004858970642089844
ell 999, elapsed: 0.0004711151123046875
ell 998, elapsed: 0.00047016143798828125
ell 902, elapsed: 0.005930185317993164
ell 901, elapsed: 0.0005311965942382812
ell 900, elapsed: 0.0006089210510253906
ell 899, elapsed: 0.0006558895111083984
ell 898, elapsed: 0.0004780292510986328
ell 802, elapsed: 0.006094932556152344
ell 801, elapsed: 0.0007579326629638672
ell 800, elapsed: 0.0006568431854248047
ell 799, elapsed: 0.0006949901580810547
ell 798, elapsed: 0.0006480216979980469
ell 702, elapsed: 0.01957392692565918
ell 701, elapsed: 0.0005249977111816406
ell 700, elapsed: 0.00046896934509277344
ell 699, elapsed: 0.0004611015319824219
ell 698, elapsed: 0.00047516822814941406
ell 602, elapsed: 0.0053861141204833984
ell 601, elapsed: 0.0004889965057373047
ell 600, elapsed: 0.0004878044128417969
ell 599, elapsed: 0.0004830360412597656
ell 598, elapsed: 0.0004951953887939453
ell 502, elapsed: 0.005880117416381836
ell 501, elapsed: 0.005480051040649414
ell 500, elapsed: 0.0005309581756591797
ell 499, elapsed: 0.0004889965057373047
ell 498, elapsed: 0.0004799365997314453
ell 402, elapsed: 0.005496025085449219
ell 401, elapsed: 0.0004589557647705078
ell 400, elapsed: 0.00046181678771972656
ell 399, elapsed: 0.0005350112915039062
ell 398, elapsed: 0.0004868507385253906
ell 302, elapsed: 0.0054149627685546875
ell 301, elapsed: 0.0004761219024658203
ell 300, elapsed: 0.0006020069122314453
ell 299, elapsed: 0.0004849433898925781
ell 298, elapsed: 0.00049591064453125
ell 202, elapsed: 0.0058939456939697266
ell 201, elapsed: 0.000637054443359375
ell 200, elapsed: 0.0007181167602539062
ell 199, elapsed: 0.0007050037384033203
ell 198, elapsed: 0.0005030632019042969
ell 152, elapsed: 0.0031261444091796875
ell 151, elapsed: 0.0004680156707763672
ell 150, elapsed: 0.0004761219024658203
ell 149, elapsed: 0.0004711151123046875
ell 148, elapsed: 0.00045299530029296875
ell 127, elapsed: 0.001605987548828125
ell 126, elapsed: 0.0004470348358154297
ell 125, elapsed: 0.0004680156707763672
ell 124, elapsed: 0.0004379749298095703
ell 123, elapsed: 0.0007100105285644531
ell 114, elapsed: 0.001322031021118164
ell 113, elapsed: 0.0006699562072753906
ell 112, elapsed: 0.0006260871887207031
ell 111, elapsed: 0.0007188320159912109
ell 110, elapsed: 0.0007300376892089844
ell 102, elapsed: 0.0012700557708740234
ell 101, elapsed: 0.0006051063537597656
ell 100, elapsed: 0.00047397613525390625
ell 99, elapsed: 0.0006098747253417969
ell 98, elapsed: 0.000720977783203125
ell 97, elapsed: 0.0008451938629150391
ell 96, elapsed: 0.0005269050598144531
ell 95, elapsed: 0.0005521774291992188
ell 94, elapsed: 0.0007739067077636719
ell 93, elapsed: 0.0005459785461425781
ell 92, elapsed: 0.0005528926849365234
ell 91, elapsed: 0.0005128383636474609
ell 90, elapsed: 0.0005350112915039062
ell 89, elapsed: 0.0005500316619873047
ell 88, elapsed: 0.000514984130859375
ell 87, elapsed: 0.0005321502685546875
ell 86, elapsed: 0.0005850791931152344
ell 85, elapsed: 0.0005249977111816406
ell 84, elapsed: 0.0005359649658203125
ell 83, elapsed: 0.0005319118499755859
ell 82, elapsed: 0.0005209445953369141
ell 81, elapsed: 0.0005180835723876953
ell 80, elapsed: 0.0005180835723876953
ell 79, elapsed: 0.0005159378051757812
ell 78, elapsed: 0.0005130767822265625
ell 77, elapsed: 0.0005130767822265625
ell 76, elapsed: 0.0005209445953369141
ell 75, elapsed: 0.0005900859832763672
ell 74, elapsed: 0.004160881042480469
ell 73, elapsed: 0.000576019287109375
ell 72, elapsed: 0.0005691051483154297
ell 71, elapsed: 0.0005550384521484375
ell 70, elapsed: 0.0005500316619873047
ell 69, elapsed: 0.0005509853363037109
ell 68, elapsed: 0.0005178451538085938
ell 67, elapsed: 0.0007269382476806641
ell 66, elapsed: 0.0007331371307373047
ell 65, elapsed: 0.012645959854125977
ell 64, elapsed: 0.0006570816040039062
ell 63, elapsed: 0.0006990432739257812
ell 62, elapsed: 0.0006990432739257812
ell 61, elapsed: 0.0006310939788818359
ell 60, elapsed: 0.0006840229034423828
ell 59, elapsed: 0.0006499290466308594
ell 58, elapsed: 0.0006918907165527344
ell 57, elapsed: 0.0007100105285644531
ell 56, elapsed: 0.0006129741668701172
ell 55, elapsed: 0.0006489753723144531
ell 54, elapsed: 0.0006368160247802734
[...]
ell 789, elapsed: 0.0008571147918701172
ell 788, elapsed: 0.0008270740509033203
ell 782, elapsed: 0.0017590522766113281
ell 781, elapsed: 0.0009279251098632812
ell 780, elapsed: 0.0009720325469970703
ell 779, elapsed: 0.0009140968322753906
ell 778, elapsed: 0.0009200572967529297
ell 772, elapsed: 0.0018229484558105469
ell 771, elapsed: 0.0009388923645019531
ell 770, elapsed: 0.0009291172027587891
ell 769, elapsed: 0.0008909702301025391
ell 768, elapsed: 0.0008778572082519531
ell 762, elapsed: 0.0016210079193115234
ell 761, elapsed: 0.0008990764617919922
ell 760, elapsed: 0.0008749961853027344
ell 759, elapsed: 0.0008690357208251953
ell 758, elapsed: 0.0008718967437744141
ell 752, elapsed: 0.001619100570678711
ell 751, elapsed: 0.0009109973907470703
ell 750, elapsed: 0.0009098052978515625
ell 749, elapsed: 0.0009219646453857422
ell 748, elapsed: 0.0009138584136962891
ell 742, elapsed: 0.0015289783477783203
ell 741, elapsed: 0.0009357929229736328
ell 740, elapsed: 0.0009479522705078125
ell 739, elapsed: 0.0008728504180908203
ell 738, elapsed: 0.0008709430694580078
ell 732, elapsed: 0.0017361640930175781
ell 731, elapsed: 0.0007700920104980469
ell 730, elapsed: 0.0008339881896972656
ell 729, elapsed: 0.0008101463317871094
ell 728, elapsed: 0.0007979869842529297
ell 722, elapsed: 0.0015020370483398438
ell 721, elapsed: 0.0008978843688964844
ell 720, elapsed: 0.0008971691131591797
ell 719, elapsed: 0.0008308887481689453
ell 718, elapsed: 0.0008771419525146484
ell 712, elapsed: 0.0018570423126220703
ell 711, elapsed: 0.0008289813995361328
ell 710, elapsed: 0.0008740425109863281
ell 709, elapsed: 0.0009310245513916016
ell 708, elapsed: 0.0008800029754638672
ell 702, elapsed: 0.0015940666198730469
ell 701, elapsed: 0.0008969306945800781
ell 700, elapsed: 0.0008649826049804688
ell 699, elapsed: 0.0008628368377685547
ell 698, elapsed: 0.0008637905120849609
ell 692, elapsed: 0.0018439292907714844
ell 691, elapsed: 0.0007941722869873047
ell 690, elapsed: 0.0008709430694580078
ell 689, elapsed: 0.0008778572082519531
ell 688, elapsed: 0.0008478164672851562
ell 682, elapsed: 0.0018320083618164062
ell 681, elapsed: 0.0008471012115478516
ell 680, elapsed: 0.0008530616760253906
ell 679, elapsed: 0.0008428096771240234
ell 678, elapsed: 0.0008630752563476562
ell 672, elapsed: 0.0018579959869384766
ell 671, elapsed: 0.0007250308990478516
ell 670, elapsed: 0.0007300376892089844
ell 669, elapsed: 0.0007231235504150391
ell 668, elapsed: 0.0008440017700195312
ell 662, elapsed: 0.0012660026550292969
ell 661, elapsed: 0.0007240772247314453
ell 660, elapsed: 0.0008709430694580078
ell 659, elapsed: 0.0008409023284912109
ell 658, elapsed: 0.000782012939453125
ell 652, elapsed: 0.0012450218200683594
ell 651, elapsed: 0.0009109973907470703
ell 650, elapsed: 0.0007920265197753906
ell 649, elapsed: 0.0007882118225097656
ell 648, elapsed: 0.00078582763671875
ell 642, elapsed: 0.001600027084350586
ell 641, elapsed: 0.0008039474487304688
ell 640, elapsed: 0.0007779598236083984
ell 639, elapsed: 0.0007719993591308594
ell 638, elapsed: 0.0009031295776367188
ell 632, elapsed: 0.0014531612396240234
ell 631, elapsed: 0.0007789134979248047
ell 630, elapsed: 0.0010809898376464844
ell 629, elapsed: 0.0007929801940917969
ell 628, elapsed: 0.000762939453125
ell 622, elapsed: 0.0014159679412841797
ell 621, elapsed: 0.0013158321380615234
ell 620, elapsed: 0.0008540153503417969
ell 619, elapsed: 0.0008149147033691406
ell 618, elapsed: 0.0008339881896972656
ell 612, elapsed: 0.001756906509399414
ell 611, elapsed: 0.000823974609375
ell 610, elapsed: 0.0008208751678466797
ell 609, elapsed: 0.0010330677032470703
ell 608, elapsed: 0.0007979869842529297
ell 602, elapsed: 0.001483917236328125
ell 601, elapsed: 0.0007941722869873047
ell 600, elapsed: 0.0009870529174804688
ell 599, elapsed: 0.0008168220520019531
ell 598, elapsed: 0.0008141994476318359
ell 592, elapsed: 0.001748800277709961
ell 591, elapsed: 0.0008220672607421875
ell 590, elapsed: 0.0008218288421630859
ell 589, elapsed: 0.0008039474487304688
ell 588, elapsed: 0.0012650489807128906
ell 582, elapsed: 0.0018188953399658203
ell 581, elapsed: 0.0007917881011962891
ell 580, elapsed: 0.001007080078125
ell 579, elapsed: 0.0009639263153076172
ell 578, elapsed: 0.001252889633178711
ell 572, elapsed: 0.0015959739685058594
ell 571, elapsed: 0.0009400844573974609
ell 570, elapsed: 0.0009050369262695312
ell 569, elapsed: 0.0011358261108398438
ell 568, elapsed: 0.0008528232574462891
ell 562, elapsed: 0.001725912094116211
ell 561, elapsed: 0.0009448528289794922
ell 560, elapsed: 0.0008671283721923828
ell 559, elapsed: 0.0008897781372070312
ell 558, elapsed: 0.0009348392486572266
ell 552, elapsed: 0.0015377998352050781
ell 551, elapsed: 0.0009400844573974609
ell 550, elapsed: 0.0008800029754638672
ell 549, elapsed: 0.0008299350738525391
ell 548, elapsed: 0.0008401870727539062
ell 542, elapsed: 0.0017669200897216797
ell 541, elapsed: 0.0008060932159423828
ell 540, elapsed: 0.0012538433074951172
ell 539, elapsed: 0.0009548664093017578
ell 538, elapsed: 0.000946044921875
ell 532, elapsed: 0.0019659996032714844
ell 531, elapsed: 0.0008869171142578125
ell 530, elapsed: 0.0009381771087646484
ell 529, elapsed: 0.0009400844573974609
ell 528, elapsed: 0.001188039779663086
ell 522, elapsed: 0.0017659664154052734
ell 521, elapsed: 0.0008587837219238281
ell 520, elapsed: 0.0009679794311523438
ell 519, elapsed: 0.00121307373046875
ell 518, elapsed: 0.0009319782257080078
ell 512, elapsed: 0.0018661022186279297
ell 511, elapsed: 0.0009329319000244141
ell 510, elapsed: 0.0009400844573974609
ell 509, elapsed: 0.0009410381317138672
ell 508, elapsed: 0.0009398460388183594
ell 502, elapsed: 0.0019431114196777344
ell 501, elapsed: 0.0009171962738037109
ell 500, elapsed: 0.00090789794921875
ell 499, elapsed: 0.0009009838104248047
ell 498, elapsed: 0.0009100437164306641
ell 492, elapsed: 0.0018029212951660156
ell 491, elapsed: 0.0009629726409912109
ell 490, elapsed: 0.0009088516235351562
ell 489, elapsed: 0.0009200572967529297
ell 488, elapsed: 0.0009021759033203125
ell 482, elapsed: 0.0015790462493896484
ell 481, elapsed: 0.0009059906005859375
ell 480, elapsed: 0.001190185546875
ell 479, elapsed: 0.0008270740509033203
ell 478, elapsed: 0.000926971435546875
ell 472, elapsed: 0.0018470287322998047
ell 471, elapsed: 0.0009150505065917969
ell 470, elapsed: 0.0012290477752685547
ell 469, elapsed: 0.0009660720825195312
ell 468, elapsed: 0.0009210109710693359
ell 462, elapsed: 0.0016210079193115234
ell 461, elapsed: 0.0009510517120361328
ell 460, elapsed: 0.0009219646453857422
ell 459, elapsed: 0.0009119510650634766
ell 458, elapsed: 0.000762939453125
ell 452, elapsed: 0.0013661384582519531
ell 451, elapsed: 0.0007610321044921875
ell 450, elapsed: 0.0007770061492919922
ell 449, elapsed: 0.0008370876312255859
ell 448, elapsed: 0.000827789306640625
ell 442, elapsed: 0.0018091201782226562
ell 441, elapsed: 0.0008690357208251953
ell 440, elapsed: 0.0009148120880126953
ell 439, elapsed: 0.0008380413055419922
ell 438, elapsed: 0.0008530616760253906
ell 432, elapsed: 0.0016160011291503906
ell 431, elapsed: 0.0008339881896972656
ell 430, elapsed: 0.0009169578552246094
ell 429, elapsed: 0.0009198188781738281
ell 428, elapsed: 0.0009179115295410156
ell 422, elapsed: 0.0016109943389892578
ell 421, elapsed: 0.0007588863372802734
ell 420, elapsed: 0.0007281303405761719
ell 419, elapsed: 0.0007200241088867188
ell 418, elapsed: 0.0007119178771972656
ell 412, elapsed: 0.00427699089050293
ell 411, elapsed: 0.0007140636444091797
ell 410, elapsed: 0.000720977783203125
ell 409, elapsed: 0.0007090568542480469
ell 408, elapsed: 0.0007081031799316406
ell 402, elapsed: 0.006578922271728516
ell 401, elapsed: 0.0007250308990478516
ell 400, elapsed: 0.0007159709930419922
ell 399, elapsed: 0.0042078495025634766
ell 398, elapsed: 0.0007340908050537109
ell 392, elapsed: 0.0012650489807128906
ell 391, elapsed: 0.0007119178771972656
ell 390, elapsed: 0.0007131099700927734
ell 389, elapsed: 0.004905223846435547
ell 388, elapsed: 0.000843048095703125
ell 382, elapsed: 0.0015811920166015625
ell 381, elapsed: 0.0008258819580078125
ell 380, elapsed: 0.0008330345153808594
ell 379, elapsed: 0.0008211135864257812
ell 378, elapsed: 0.0008280277252197266
ell 372, elapsed: 0.0015859603881835938
ell 371, elapsed: 0.0008311271667480469
ell 370, elapsed: 0.0008268356323242188
ell 369, elapsed: 0.0008208751678466797
ell 368, elapsed: 0.0008261203765869141
ell 362, elapsed: 0.0015730857849121094
ell 361, elapsed: 0.0008208751678466797
ell 360, elapsed: 0.0008270740509033203
ell 359, elapsed: 0.0008370876312255859
ell 358, elapsed: 0.000827789306640625
ell 352, elapsed: 0.0015339851379394531
ell 351, elapsed: 0.0008230209350585938
ell 350, elapsed: 0.000843048095703125
ell 349, elapsed: 0.0008199214935302734
ell 348, elapsed: 0.0008280277252197266
ell 342, elapsed: 0.0015370845794677734
ell 341, elapsed: 0.0009419918060302734
ell 340, elapsed: 0.0009388923645019531
ell 339, elapsed: 0.0009131431579589844
ell 338, elapsed: 0.0009238719940185547
ell 332, elapsed: 0.0016980171203613281
ell 331, elapsed: 0.0009291172027587891
ell 330, elapsed: 0.0009050369262695312
ell 329, elapsed: 0.0017719268798828125
ell 328, elapsed: 0.0009109973907470703
ell 322, elapsed: 0.0016450881958007812
ell 321, elapsed: 0.0009059906005859375
ell 320, elapsed: 0.0009191036224365234
ell 319, elapsed: 0.0009088516235351562
ell 318, elapsed: 0.0009100437164306641
ell 312, elapsed: 0.0016820430755615234
ell 311, elapsed: 0.0009059906005859375
ell 310, elapsed: 0.0009088516235351562
ell 309, elapsed: 0.001322031021118164
ell 308, elapsed: 0.0009169578552246094
ell 302, elapsed: 0.0016660690307617188
ell 301, elapsed: 0.0011301040649414062
ell 300, elapsed: 0.0009119510650634766
ell 299, elapsed: 0.0011239051818847656
ell 298, elapsed: 0.0009350776672363281
ell 292, elapsed: 0.0017871856689453125
ell 291, elapsed: 0.0009100437164306641
ell 290, elapsed: 0.0009479522705078125
ell 289, elapsed: 0.0009028911590576172
ell 288, elapsed: 0.0008990764617919922
ell 282, elapsed: 0.0016999244689941406
ell 281, elapsed: 0.0009090900421142578
ell 280, elapsed: 0.0009081363677978516
ell 279, elapsed: 0.0010929107666015625
ell 278, elapsed: 0.0009222030639648438
ell 272, elapsed: 0.0016438961029052734
ell 271, elapsed: 0.0009119510650634766
ell 270, elapsed: 0.0009090900421142578
ell 269, elapsed: 0.0009038448333740234
ell 268, elapsed: 0.0011179447174072266
ell 262, elapsed: 0.001706838607788086
ell 261, elapsed: 0.0009059906005859375
ell 260, elapsed: 0.0013539791107177734
ell 259, elapsed: 0.0009038448333740234
ell 258, elapsed: 0.0010268688201904297
ell 252, elapsed: 0.0016930103302001953
ell 251, elapsed: 0.0009071826934814453
ell 250, elapsed: 0.0009090900421142578
ell 249, elapsed: 0.0009000301361083984
ell 248, elapsed: 0.0012290477752685547
ell 242, elapsed: 0.0019159317016601562
ell 241, elapsed: 0.0009410381317138672
ell 240, elapsed: 0.0009500980377197266
ell 239, elapsed: 0.0009160041809082031
ell 238, elapsed: 0.0009288787841796875
ell 232, elapsed: 0.0016570091247558594
ell 231, elapsed: 0.0011420249938964844
ell 230, elapsed: 0.0009598731994628906
ell 229, elapsed: 0.0009019374847412109
ell 228, elapsed: 0.0009090900421142578
ell 222, elapsed: 0.001990795135498047
ell 221, elapsed: 0.0012409687042236328
ell 220, elapsed: 0.0009090900421142578
ell 219, elapsed: 0.0013020038604736328
ell 218, elapsed: 0.0008599758148193359
ell 212, elapsed: 0.0015778541564941406
ell 211, elapsed: 0.0008409023284912109
ell 210, elapsed: 0.000823974609375
ell 209, elapsed: 0.0008220672607421875
ell 208, elapsed: 0.0008251667022705078
ell 202, elapsed: 0.001569986343383789
ell 201, elapsed: 0.0008258819580078125
ell 200, elapsed: 0.0008249282836914062
ell 199, elapsed: 0.0008862018585205078
ell 198, elapsed: 0.0009570121765136719
ell 192, elapsed: 0.0017080307006835938
ell 191, elapsed: 0.0009720325469970703
ell 190, elapsed: 0.0009658336639404297
ell 189, elapsed: 0.0009598731994628906
ell 188, elapsed: 0.0009770393371582031
ell 182, elapsed: 0.001703023910522461
ell 181, elapsed: 0.0009698867797851562
ell 180, elapsed: 0.0009009838104248047
ell 179, elapsed: 0.0009181499481201172
ell 178, elapsed: 0.0009241104125976562
ell 172, elapsed: 0.001692056655883789
ell 171, elapsed: 0.0009348392486572266
ell 170, elapsed: 0.0008881092071533203
ell 169, elapsed: 0.0009119510650634766
ell 168, elapsed: 0.0009410381317138672
ell 162, elapsed: 0.0016999244689941406
ell 161, elapsed: 0.0009768009185791016
ell 160, elapsed: 0.0009169578552246094
ell 159, elapsed: 0.0009031295776367188
ell 158, elapsed: 0.0009829998016357422
ell 152, elapsed: 0.0015909671783447266
ell 151, elapsed: 0.0008378028869628906
ell 150, elapsed: 0.0008399486541748047
ell 149, elapsed: 0.0008180141448974609
ell 148, elapsed: 0.0008490085601806641
ell 142, elapsed: 0.001558065414428711
ell 141, elapsed: 0.0008459091186523438
ell 140, elapsed: 0.0029799938201904297
ell 139, elapsed: 0.0009610652923583984
ell 138, elapsed: 0.0008270740509033203
ell 132, elapsed: 0.0022690296173095703
ell 131, elapsed: 0.0007848739624023438
ell 130, elapsed: 0.0008289813995361328
ell 129, elapsed: 0.0008208751678466797
ell 128, elapsed: 0.0008249282836914062
ell 122, elapsed: 0.001661062240600586
ell 121, elapsed: 0.0008289813995361328
ell 120, elapsed: 0.000993967056274414
ell 119, elapsed: 0.0008380413055419922
ell 118, elapsed: 0.0008258819580078125
ell 112, elapsed: 0.0015521049499511719
ell 111, elapsed: 0.0009009838104248047
ell 110, elapsed: 0.0009090900421142578
ell 109, elapsed: 0.0009028911590576172
ell 108, elapsed: 0.0009100437164306641
ell 102, elapsed: 0.0016551017761230469
ell 101, elapsed: 0.0034291744232177734
ell 100, elapsed: 0.0034520626068115234
ell 99, elapsed: 0.0034182071685791016
ell 98, elapsed: 0.003571033477783203
ell 92, elapsed: 0.006193876266479492
ell 91, elapsed: 0.0033130645751953125
ell 90, elapsed: 0.003340005874633789
ell 89, elapsed: 0.0033349990844726562
ell 88, elapsed: 0.0033371448516845703
ell 82, elapsed: 0.0061190128326416016
ell 81, elapsed: 0.0033330917358398438
ell 80, elapsed: 0.0033609867095947266
ell 79, elapsed: 0.003537893295288086
ell 78, elapsed: 0.003538846969604492
ell 72, elapsed: 0.006321907043457031
ell 71, elapsed: 0.003520965576171875
ell 70, elapsed: 0.0035581588745117188
ell 69, elapsed: 0.003559112548828125
ell 68, elapsed: 0.0035429000854492188
ell 62, elapsed: 0.00616002082824707
ell 61, elapsed: 0.003361940383911133
ell 60, elapsed: 0.00339508056640625
ell 59, elapsed: 0.00341796875
ell 58, elapsed: 0.0034220218658447266
ell 52, elapsed: 0.006268978118896484
ell 51, elapsed: 0.0035059452056884766
ell 50, elapsed: 0.003529071807861328
ell 49, elapsed: 0.003513813018798828
ell 48, elapsed: 0.0035161972045898438
ell 42, elapsed: 0.007354021072387695
ell 41, elapsed: 0.003525972366333008
ell 40, elapsed: 0.004923820495605469
ell 39, elapsed: 0.0035538673400878906
ell 38, elapsed: 0.003470182418823242
ell 32, elapsed: 0.0061299800872802734
ell 31, elapsed: 0.0040988922119140625
ell 30, elapsed: 0.004202842712402344
ell 29, elapsed: 0.004158973693847656
ell 28, elapsed: 0.0038831233978271484
ell 22, elapsed: 0.006262063980102539
ell 21, elapsed: 0.0034160614013671875
ell 20, elapsed: 0.003400087356567383
ell 19, elapsed: 0.003422975540161133
ell 18, elapsed: 0.003412008285522461
ell 12, elapsed: 0.006152153015136719
ell 11, elapsed: 0.003350973129272461
ell 10, elapsed: 0.0033750534057617188
ell 9, elapsed: 0.0033600330352783203
ell 8, elapsed: 0.0037288665771484375
  0.926375 seconds (97.30 k allocations: 12.615 MiB)
elapsed: 0.004394054412841797
step:          0.069214 sec (0 allocations: 0 byte, 0.0% gc time)
swapping:      0.000725 sec (0 allocations: 0 byte, 0.0% gc time)
calc_Mellell!: 0.040797 sec (0 allocations: 0 byte, 0.0% gc time)
  t0 :  0.009724 sec (0 allocations: 0 byte, 0.0% gc time)
  tm2 : 0.078161 sec (0 allocations: 0 byte, 0.0% gc time)
  tm2s: 0.007684 sec (0 allocations: 0 byte, 0.0% gc time)
  tm4 : 0.184214 sec (0 allocations: 0 byte, 0.0% gc time)
  tp2 : 0.0 sec (0 allocations: 0 byte, 0.0% gc time)
  tp2s: 0.0 sec (0 allocations: 0 byte, 0.0% gc time)
  tp4 : 0.0 sec (0 allocations: 0 byte, 0.0% gc time)
calc_wtdll!:   0.558853 sec (48.6 k allocations: 11.096 MB, 0.0% gc time)
calc_wljj!:    0.046634 sec (69 allocations: 1.078 KB, 0.0% gc time)
mult_prefac!:  0.0 sec (0 allocations: 0 byte, 0.0% gc time)
convert:       0.0 sec (0 allocations: 0 byte, 0.0% gc time)
write:         0.03511 sec (0 allocations: 0 byte, 0.0% gc time)
test_rand_2f1: 0.0 sec (0 allocations: 0 byte, 0.0% gc time)
Closing outfile out/MlCache/MlCache.bin...   0.000008 seconds
xi, l=0, nu=0:   0.387739 seconds (598.88 k allocations: 32.681 MiB)
xi, l=0, nu=-2:  0.002562 seconds (1.14 k allocations: 164.984 KiB)
Created 'out/xi.tsv'.
  q=1.1, R=0.6:	  0.743286 seconds (264.52 k allocations: 38.099 MiB)
  q=1.1, R=0.7:	  0.890123 seconds (276.46 k allocations: 40.114 MiB, 1.42% gc time)
  q=1.1, R=0.8:	  0.962198 seconds (271.68 k allocations: 39.302 MiB, 1.19% gc time)
  q=1.1, R=0.9:	  1.150070 seconds (266.62 k allocations: 38.459 MiB, 0.62% gc time)
  q=1.1, R=0.998:	 22.340806 seconds (114.96 k allocations: 7.588 MiB)
  q=1.1, R=1.0:	  0.003954 seconds (8.20 k allocations: 704.344 KiB)

ℓ = 1000
Δℓ = 4
ΔℓRg1 = -4
N = 4096
q = 1.1
kmin = 1.0e-5
kmax = 1000.0
χ0 = 0.001
RR = RR.tsv
ℓmax = ℓmax.bin
f21 = f21.bin
kmin = 1.0e-5
kmax = 1000.0
dlrec    = 4
dlrecRg1 = -4
Output size: 1573632 bytes = 0.0014655590057373047 GiB
Output size: 786816 bytes = 0.0007327795028686523 GiB
Reading 'out/F21EllCache'...   0.001398 seconds (198 allocations: 533.078 KiB)
ellmax: 1002
lmaxcache: 1000
fell[:,1,1] = ComplexF64[1.7262928128202118e-224 - 4.2281979352226944e-240im, 1.7282693092099662e-224 - 4.233038955177176e-240im]
ell 1002, elapsed: 4.00543212890625e-5
ell 1001, elapsed: 0.0007660388946533203
ell 1000, elapsed: 0.0018279552459716797
ell 999, elapsed: 0.006628990173339844
ell 998, elapsed: 0.008555889129638672
ell 44, elapsed: 0.8875250816345215
ell 43, elapsed: 0.00831913948059082
ell 42, elapsed: 0.0060272216796875
ell 41, elapsed: 0.005717039108276367
ell 40, elapsed: 0.017108917236328125
  0.952865 seconds (15.97 k allocations: 1023.557 KiB, 2.32% gc time)
elapsed: 0.009559154510498047
step:          0.820005 sec (0 allocations: 0 byte, 0.0% gc time)
swapping:      0.000555 sec (0 allocations: 0 byte, 0.0% gc time)
calc_Mellell!: 0.001187 sec (0 allocations: 0 byte, 0.0% gc time)
  t0 :  0.000914 sec (0 allocations: 0 byte, 0.0% gc time)
  tm2 : 0.022862 sec (0 allocations: 0 byte, 0.0% gc time)
  tm2s: 0.000652 sec (0 allocations: 0 byte, 0.0% gc time)
  tm4 : 0.035547 sec (0 allocations: 0 byte, 0.0% gc time)
  tp2 : 0.0 sec (0 allocations: 0 byte, 0.0% gc time)
  tp2s: 0.0 sec (0 allocations: 0 byte, 0.0% gc time)
  tp4 : 0.0 sec (0 allocations: 0 byte, 0.0% gc time)
calc_wtdll!:   0.060212 sec (480 allocations: 52.5 KB, 0.0% gc time)
calc_wljj!:    0.001489 sec (1 allocations: 16 byte, 0.0% gc time)
mult_prefac!:  0.0 sec (0 allocations: 0 byte, 0.0% gc time)
convert:       0.0 sec (0 allocations: 0 byte, 0.0% gc time)
write:         0.001086 sec (0 allocations: 0 byte, 0.0% gc time)
test_rand_2f1: 0.0 sec (0 allocations: 0 byte, 0.0% gc time)
Closing outfile out/MlCache/MlCache.bin...   0.000007 seconds
  0.538956 seconds (38 allocations: 66.859 KiB)
make_phi():   0.009690 seconds (4.16 k allocations: 339.984 KiB)
  0.051447 seconds (11.47 k allocations: 714.788 KiB)
tskip:       1.0e-6 sec (0 allocations: 0 byte, 0.0% gc time)
tread:       0.000846 sec (17 allocations: 1.266 KB, 0.0% gc time)
tmultphi:    0.000354 sec (0 allocations: 0 byte, 0.0% gc time)
tbrfft:      0.002251 sec (0 allocations: 0 byte, 0.0% gc time)
tmultprefac: 0.001905 sec (0 allocations: 0 byte, 0.0% gc time)
toutfunc:    0.00019 sec (0 allocations: 0 byte, 0.0% gc time)
Created 'out/wl42_jj00.tsv'.
Created 'out/wl42_jj02.tsv'.
    Testing TwoFAST tests passed 
