Julia Version 1.6.0-DEV.929
Commit a7ce2a2de7 (2020-09-16 16:46 UTC)
Platform Info:
  OS: Linux (x86_64-pc-linux-gnu)
  CPU: Intel(R) Xeon(R) Silver 4114 CPU @ 2.20GHz
  WORD_SIZE: 64
  LIBM: libopenlibm
  LLVM: libLLVM-9.0.1 (ORCJIT, skylake-avx512)
Environment:
  JULIA_DEPOT_PATH = ::/usr/local/share/julia
  JULIA_NUM_THREADS = 2

  Resolving package versions...
[ Info: LEGAL NOTICE: package operations send anonymous data about your system to https://pkg.julialang.org (your current package server), including the operating system and Julia versions you are using, and a random client UUID. Running `Pkg.telemetryinfo()` will show exactly what data is sent. See https://julialang.org/legal/data/ for more details about what this data is used for, how long it is retained, and how to opt out of sending it.
  Installed Reexport ───────────────────── v0.2.0
  Installed MKL_jll ────────────────────── v2020.2.254+0
  Installed Readables ──────────────────── v0.3.3
  Installed OpenSpecFun_jll ────────────── v0.5.3+3
  Installed GenericSVD ─────────────────── v0.3.0
  Installed BinaryProvider ─────────────── v0.5.10
  Installed FFTW ───────────────────────── v1.2.4
  Installed FFTW_jll ───────────────────── v3.3.9+5
  Installed IntelOpenMP_jll ────────────── v2018.0.3+0
  Installed CompilerSupportLibraries_jll ─ v0.3.3+0
  Installed AbstractFFTs ───────────────── v0.5.0
  Installed SpecialFunctions ───────────── v0.10.3
  Installed GenericSchur ───────────────── v0.4.0
  Installed TwoFAST ────────────────────── v0.1.3
  Installed ArbNumerics ────────────────── v1.2.1
Updating `~/.julia/environments/v1.6/Project.toml`
  [0dd23c3e] + TwoFAST v0.1.3
Updating `~/.julia/environments/v1.6/Manifest.toml`
  [621f4979] + AbstractFFTs v0.5.0
  [7e558dbc] + ArbNumerics v1.2.1
  [b99e7846] + BinaryProvider v0.5.10
  [e66e0078] + CompilerSupportLibraries_jll v0.3.3+0
  [7a1cc6ca] + FFTW v1.2.4
  [f5851436] + FFTW_jll v3.3.9+5
  [01680d73] + GenericSVD v0.3.0
  [c145ed77] + GenericSchur v0.4.0
  [1d5cc7b8] + IntelOpenMP_jll v2018.0.3+0
  [856f044c] + MKL_jll v2020.2.254+0
  [efe28fd5] + OpenSpecFun_jll v0.5.3+3
  [0d4725de] + Readables v0.3.3
  [189a3867] + Reexport v0.2.0
  [276daf66] + SpecialFunctions v0.10.3
  [0dd23c3e] + TwoFAST v0.1.3
  [2a0f44e3] + Base64
  [ade2ca70] + Dates
  [8bb1440f] + DelimitedFiles
  [8ba89e20] + Distributed
  [b77e0a4c] + InteractiveUtils
  [76f85450] + LibGit2
  [8f399da3] + Libdl
  [37e2e46d] + LinearAlgebra
  [56ddb016] + Logging
  [d6f4376e] + Markdown
  [a63ad114] + Mmap
  [44cfe95a] + Pkg
  [de0858da] + Printf
  [3fa0cd96] + REPL
  [9a3f8284] + Random
  [ea8e919c] + SHA
  [9e88b42a] + Serialization
  [6462fe0b] + Sockets
  [fa267f1f] + TOML
  [8dfed614] + Test
  [cf7118a7] + UUIDs
  [4ec0a83e] + Unicode
   Building FFTW ───────→ `~/.julia/packages/FFTW/DMUbN/deps/build.log`
   Building ArbNumerics → `~/.julia/packages/ArbNumerics/joGFm/deps/build.log`
    Testing TwoFAST
Status `/tmp/jl_UXp2mh/Project.toml`
  [7e558dbc] ArbNumerics v1.2.1
  [39dd38d3] Dierckx v0.5.0
  [7a1cc6ca] FFTW v1.2.4
  [276daf66] SpecialFunctions v0.10.3
  [0dd23c3e] TwoFAST v0.1.3
  [8bb1440f] DelimitedFiles
  [37e2e46d] LinearAlgebra
  [56ddb016] Logging
  [8dfed614] Test
Status `/tmp/jl_UXp2mh/Manifest.toml`
  [621f4979] AbstractFFTs v0.5.0
  [7e558dbc] ArbNumerics v1.2.1
  [b99e7846] BinaryProvider v0.5.10
  [e66e0078] CompilerSupportLibraries_jll v0.3.3+0
  [39dd38d3] Dierckx v0.5.0
  [cd4c43a9] Dierckx_jll v0.0.1+0
  [7a1cc6ca] FFTW v1.2.4
  [f5851436] FFTW_jll v3.3.9+5
  [01680d73] GenericSVD v0.3.0
  [c145ed77] GenericSchur v0.4.0
  [1d5cc7b8] IntelOpenMP_jll v2018.0.3+0
  [856f044c] MKL_jll v2020.2.254+0
  [efe28fd5] OpenSpecFun_jll v0.5.3+3
  [0d4725de] Readables v0.3.3
  [189a3867] Reexport v0.2.0
  [276daf66] SpecialFunctions v0.10.3
  [0dd23c3e] TwoFAST v0.1.3
  [2a0f44e3] Base64
  [ade2ca70] Dates
  [8bb1440f] DelimitedFiles
  [8ba89e20] Distributed
  [b77e0a4c] InteractiveUtils
  [76f85450] LibGit2
  [8f399da3] Libdl
  [37e2e46d] LinearAlgebra
  [56ddb016] Logging
  [d6f4376e] Markdown
  [a63ad114] Mmap
  [44cfe95a] Pkg
  [de0858da] Printf
  [3fa0cd96] REPL
  [9a3f8284] Random
  [ea8e919c] SHA
  [9e88b42a] Serialization
  [6462fe0b] Sockets
  [fa267f1f] TOML
  [8dfed614] Test
  [cf7118a7] UUIDs
  [4ec0a83e] Unicode
    Testing Running tests...
WARNING: could not import Printf.ini_hex into ArbNumerics
WARNING: could not import Printf.ini_HEX into ArbNumerics
t = 0.0 sec (0 allocations: 0 byte, 0.0% gc time)
typeof(t) = NamedTuple{(:value, :time, :bytes, :gctime, :gcstats), Tuple{DataType, Float64, Int64, Float64, Base.GC_Diff}}
TwoFAST.PerformanceStats.TimedType = Union{NamedTuple{(:value, :time, :bytes, :gctime, :gcstats), Tuple{T, Float64, Int64, Float64, Base.GC_Diff}}, Tuple{Any, Float64, Int64, Float64, Base.GC_Diff}} where T
t = 1.0e-6 sec (0 allocations: 0 byte, 0.0% gc time)
t: 1.0e-6 sec (0 allocations: 0 byte, 0.0% gc time)
Testing ξ(r), ℓ=0, ν=-1 ... passed
Testing ξ(r), ℓ=0, ν=0 ... passed
Testing ξ(r), ℓ=0, ν=1 ... passed
Testing ξ(r), ℓ=0, ν=2 ... passed
Testing ξ(r), ℓ=0, ν=3 ... passed
Testing ξ(r), ℓ=1, ν=0 ... passed
Testing ξ(r), ℓ=1, ν=1 ... passed
Testing ξ(r), ℓ=1, ν=2 ... passed
Testing ξ(r), ℓ=1, ν=3 ... passed
Testing ξ(r), ℓ=2, ν=-1 ... passed
Testing ξ(r), ℓ=2, ν=0 ... passed
Testing ξ(r), ℓ=2, ν=1 ... passed
Testing ξ(r), ℓ=2, ν=2 ... passed
Testing ξ(r), ℓ=2, ν=3 ... passed
Testing ξ(r), ℓ=3, ν=-1 ... passed
Testing ξ(r), ℓ=3, ν=0 ... passed
Testing ξ(r), ℓ=3, ν=1 ... passed
Testing ξ(r), ℓ=3, ν=2 ... passed
Testing ξ(r), ℓ=3, ν=3 ... passed
Testing ξ(r), ℓ=4, ν=-1 ... passed
Testing ξ(r), ℓ=4, ν=0 ... passed
Testing ξ(r), ℓ=4, ν=1 ... passed
Testing ξ(r), ℓ=4, ν=2 ... passed
Testing ξ(r), ℓ=4, ν=3 ... passed
Testing ξ(r) ... passed
Testing ξ′(r) ... passed
Testing ξ″(r) ... passed
Calculating fmax: 
  dlrec    = 4
  dlrecRg1 = -4
  q=1.1, R=1.1:	  4.290305 seconds (831.28 k allocations: 53.198 MiB, 2.06% gc time)

  4.317727 seconds (843.99 k allocations: 53.989 MiB, 2.05% gc time)
ℓ = 1202
Δℓ = 4
ΔℓRg1 = -4
N = 1600
q = 1.1
kmin = 1.0e-5
kmax = 100000.00000000004
χ0 = 0.023029999999999995
RR = RR.tsv
ℓmax = ℓmax.bin
f21 = f21.bin
kmin = 1.0e-5
kmax = 100000.0
dlrec    = 4
dlrecRg1 = -4
Output size: 5741568 bytes = 0.005347251892089844 GiB
Output size: 51264 bytes = 4.774332046508789e-5 GiB
Reading 'out/F21EllCache'...   0.615271 seconds (394.91 k allocations: 23.204 MiB)
ellmax: 1202
lmaxcache: 1202
fell[:,1,1] = ComplexF64[3.9583795592771634e-52 - 9.695233714158177e-68im, 3.990121772925759e-52 - 9.772979714843386e-68im]
ell 1202, elapsed: 3.910064697265625e-5
ell 1201, elapsed: 1.2097280025482178
ell 1200, elapsed: 0.0006110668182373047
ell 1199, elapsed: 0.0005459785461425781
ell 1198, elapsed: 0.0005419254302978516
ell 1002, elapsed: 0.010137081146240234
ell 1001, elapsed: 0.0005941390991210938
ell 1000, elapsed: 0.0008389949798583984
ell 999, elapsed: 0.0006389617919921875
ell 998, elapsed: 0.0006480216979980469
ell 902, elapsed: 0.005305051803588867
ell 901, elapsed: 0.0006620883941650391
ell 900, elapsed: 0.0006480216979980469
ell 899, elapsed: 0.0006411075592041016
ell 898, elapsed: 0.0006401538848876953
ell 802, elapsed: 0.005527973175048828
ell 801, elapsed: 0.0006158351898193359
ell 800, elapsed: 0.0006151199340820312
ell 799, elapsed: 0.0006170272827148438
ell 798, elapsed: 0.0006170272827148438
ell 702, elapsed: 0.0053730010986328125
ell 701, elapsed: 0.0006239414215087891
ell 700, elapsed: 0.0006139278411865234
ell 699, elapsed: 0.0006239414215087891
ell 698, elapsed: 0.000621795654296875
ell 602, elapsed: 0.005378007888793945
ell 601, elapsed: 0.000614166259765625
ell 600, elapsed: 0.0006208419799804688
ell 599, elapsed: 0.0006320476531982422
ell 598, elapsed: 0.0006191730499267578
ell 502, elapsed: 0.005384206771850586
ell 501, elapsed: 0.0006160736083984375
ell 500, elapsed: 0.0006139278411865234
ell 499, elapsed: 0.0006120204925537109
ell 498, elapsed: 0.0006089210510253906
ell 402, elapsed: 0.00538182258605957
ell 401, elapsed: 0.000614166259765625
ell 400, elapsed: 0.0006129741668701172
ell 399, elapsed: 0.0006229877471923828
ell 398, elapsed: 0.0006351470947265625
ell 302, elapsed: 0.005455970764160156
ell 301, elapsed: 0.0005359649658203125
ell 300, elapsed: 0.0005309581756591797
ell 299, elapsed: 0.0005218982696533203
ell 298, elapsed: 0.0005338191986083984
ell 202, elapsed: 0.005229949951171875
ell 201, elapsed: 0.0005481243133544922
ell 200, elapsed: 0.0005049705505371094
ell 199, elapsed: 0.0005030632019042969
ell 198, elapsed: 0.00048804283142089844
ell 152, elapsed: 0.0028162002563476562
ell 151, elapsed: 0.0005240440368652344
ell 150, elapsed: 0.0005409717559814453
ell 149, elapsed: 0.0005369186401367188
ell 148, elapsed: 0.0005359649658203125
ell 127, elapsed: 0.0015871524810791016
ell 126, elapsed: 0.0005278587341308594
ell 125, elapsed: 0.0005340576171875
ell 124, elapsed: 0.000537872314453125
ell 123, elapsed: 0.0005249977111816406
ell 114, elapsed: 0.000993967056274414
ell 113, elapsed: 0.0005331039428710938
ell 112, elapsed: 0.0005359649658203125
ell 111, elapsed: 0.0005359649658203125
ell 110, elapsed: 0.0005340576171875
ell 102, elapsed: 0.0009400844573974609
ell 101, elapsed: 0.0005271434783935547
ell 100, elapsed: 0.0005261898040771484
ell 99, elapsed: 0.0005388259887695312
ell 98, elapsed: 0.0005369186401367188
ell 97, elapsed: 0.0006010532379150391
ell 96, elapsed: 0.0006020069122314453
ell 95, elapsed: 0.0006020069122314453
ell 94, elapsed: 0.0006079673767089844
ell 93, elapsed: 0.0006129741668701172
ell 92, elapsed: 0.0005939006805419922
ell 91, elapsed: 0.0005898475646972656
ell 90, elapsed: 0.0005960464477539062
ell 89, elapsed: 0.0005908012390136719
ell 88, elapsed: 0.0006120204925537109
ell 87, elapsed: 0.0005841255187988281
ell 86, elapsed: 0.0006000995635986328
ell 85, elapsed: 0.0005929470062255859
ell 84, elapsed: 0.0006349086761474609
ell 83, elapsed: 0.0006241798400878906
ell 82, elapsed: 0.0006041526794433594
ell 81, elapsed: 0.0006020069122314453
ell 80, elapsed: 0.0006120204925537109
ell 79, elapsed: 0.0006029605865478516
ell 78, elapsed: 0.00061798095703125
ell 77, elapsed: 0.0006008148193359375
ell 76, elapsed: 0.0005900859832763672
ell 75, elapsed: 0.0005888938903808594
ell 74, elapsed: 0.0005848407745361328
ell 73, elapsed: 0.0006082057952880859
ell 72, elapsed: 0.0005929470062255859
ell 71, elapsed: 0.000598907470703125
ell 70, elapsed: 0.0005970001220703125
ell 69, elapsed: 0.0005872249603271484
ell 68, elapsed: 0.0006170272827148438
ell 67, elapsed: 0.0005970001220703125
ell 66, elapsed: 0.0006039142608642578
ell 65, elapsed: 0.0006010532379150391
ell 64, elapsed: 0.0006000995635986328
ell 63, elapsed: 0.0006139278411865234
ell 62, elapsed: 0.0006008148193359375
ell 61, elapsed: 0.0006039142608642578
ell 60, elapsed: 0.0006070137023925781
ell 59, elapsed: 0.0006010532379150391
ell 58, elapsed: 0.0006151199340820312
ell 57, elapsed: 0.0006051063537597656
ell 56, elapsed: 0.0006089210510253906
ell 55, elapsed: 0.0006070137023925781
ell 54, elapsed: 0.0006020069122314453
ell 53, elapsed: 0.0006070137023925781
ell 52, elapsed: 0.000598907470703125
ell 51, elapsed: 0.0005998611450195312
ell 50, elapsed: 0.0006070137023925781
ell 49, elapsed: 0.0006020069122314453
ell 48, elapsed: 0.0006029605865478516
ell 47, elapsed: 0.0006000995635986328
ell 46, elapsed: 0.0005910396575927734
ell 45, elapsed: 0.0006070137023925781
ell 44, elapsed: 0.0006041526794433594
ell 43, elapsed: 0.0006020069122314453
ell 42, elapsed: 0.0006110668182373047
ell 41, elapsed: 0.0006060600280761719
ell 40, elapsed: 0.0005979537963867188
ell 39, elapsed: 0.0006020069122314453
ell 38, elapsed: 0.0005950927734375
ell 37, elapsed: 0.0006251335144042969
ell 36, elapsed: 0.0006079673767089844
ell 35, elapsed: 0.0006029605865478516
ell 34, elapsed: 0.0006039142608642578
ell 33, elapsed: 0.0006120204925537109
ell 32, elapsed: 0.0006101131439208984
ell 31, elapsed: 0.0006070137023925781
ell 30, elapsed: 0.0006070137023925781
ell 29, elapsed: 0.0006020069122314453
ell 28, elapsed: 0.0006070137023925781
ell 27, elapsed: 0.0006079673767089844
ell 26, elapsed: 0.0006539821624755859
ell 25, elapsed: 0.0007050037384033203
ell 24, elapsed: 0.0006868839263916016
ell 23, elapsed: 0.0006620883941650391
ell 22, elapsed: 0.0006260871887207031
ell 21, elapsed: 0.0006051063537597656
ell 20, elapsed: 0.0005571842193603516
ell 19, elapsed: 0.0005419254302978516
ell 18, elapsed: 0.0005450248718261719
ell 17, elapsed: 0.0005400180816650391
ell 16, elapsed: 0.000576019287109375
ell 15, elapsed: 0.0005419254302978516
ell 14, elapsed: 0.0005459785461425781
ell 13, elapsed: 0.0005450248718261719
ell 12, elapsed: 0.0005850791931152344
ell 11, elapsed: 0.0005910396575927734
ell 10, elapsed: 0.0006029605865478516
ell 9, elapsed: 0.0005800724029541016
ell 8, elapsed: 0.0005950927734375
ell 7, elapsed: 0.0006070137023925781
ell 6, elapsed: 0.0006508827209472656
ell 5, elapsed: 0.0006139278411865234
ell 4, elapsed: 0.0005950927734375
ell 3, elapsed: 0.0006058216094970703
ell 2, elapsed: 0.0005891323089599609
ell 1, elapsed: 0.0005578994750976562
ell 0, elapsed: 0.0005412101745605469
  1.905244 seconds (1.26 M allocations: 69.538 MiB, 2.33% gc time)
elapsed: 0.0010530948638916016
step:          0.324928 sec (303.431 k allocations: 16.47 MB, 6.59% gc time)
swapping:      0.000517 sec (0 allocations: 0 byte, 0.0% gc time)
calc_Mellell!: 0.166844 sec (131.069 k allocations: 7.131 MB, 13.75% gc time)
  t0 :  0.0 sec (0 allocations: 0 byte, 0.0% gc time)
  tm2 : 0.0 sec (0 allocations: 0 byte, 0.0% gc time)
  tm2s: 0.0 sec (0 allocations: 0 byte, 0.0% gc time)
  tm4 : 0.0 sec (0 allocations: 0 byte, 0.0% gc time)
  tp2 : 0.0 sec (0 allocations: 0 byte, 0.0% gc time)
  tp2s: 0.0 sec (0 allocations: 0 byte, 0.0% gc time)
  tp4 : 0.0 sec (0 allocations: 0 byte, 0.0% gc time)
calc_wtdll!:   0.846243 sec (510.93 k allocations: 28.262 MB, 0.0% gc time)
calc_wljj!:    0.003126 sec (6 allocations: 96 byte, 0.0% gc time)
mult_prefac!:  0.0 sec (0 allocations: 0 byte, 0.0% gc time)
convert:       0.0 sec (0 allocations: 0 byte, 0.0% gc time)
write:         0.004021 sec (0 allocations: 0 byte, 0.0% gc time)
test_rand_2f1: 0.0 sec (0 allocations: 0 byte, 0.0% gc time)
Closing outfile out/Ml21-cache.bin...   0.000009 seconds
  1.278554 seconds (347.81 k allocations: 21.159 MiB)
make_phi():   0.012956 seconds (9.47 k allocations: 257.875 KiB)
  0.247390 seconds (87.72 k allocations: 4.755 MiB)
tskip:       2.8e-5 sec (0 allocations: 0 byte, 0.0% gc time)
tread:       0.00347 sec (17 allocations: 2.125 KB, 0.0% gc time)
tmultphi:    0.040035 sec (21.546 k allocations: 1.294 MB, 0.0% gc time)
tbrfft:      0.006526 sec (0 allocations: 0 byte, 0.0% gc time)
tmultprefac: 0.006345 sec (0 allocations: 0 byte, 0.0% gc time)
toutfunc:    0.145609 sec (64.52 k allocations: 3.33 MB, 0.0% gc time)
Testing R=1.1 ... passed
Calculating fmax: 
  dlrec    = 4
  dlrecRg1 = -4
  q=1.1, R=1.0:	  0.001708 seconds (3.20 k allocations: 275.344 KiB)

  0.002956 seconds (3.34 k allocations: 311.422 KiB)
ℓ = 1202
Δℓ = 4
ΔℓRg1 = -4
N = 1600
q = 1.1
kmin = 1.0e-5
kmax = 100000.00000000004
χ0 = 0.023029999999999995
RR = RR.tsv
ℓmax = ℓmax.bin
f21 = f21.bin
kmin = 1.0e-5
kmax = 100000.0
dlrec    = 4
dlrecRg1 = -4
Output size: 61465536 bytes = 0.05724424123764038 GiB
Output size: 51264 bytes = 4.774332046508789e-5 GiB
Reading 'out/F21EllCache'...   0.001176 seconds (197 allocations: 84.203 KiB)
ellmax: 1202
lmaxcache: 1202
fell[:,1,1] = ComplexF64[809.6031528389767 - 1.9829558194077161e-13im, 0.0 + 0.0im]
ell 1202, elapsed: 0.00011086463928222656
ell 1201, elapsed: 0.015738964080810547
ell 1200, elapsed: 0.01395106315612793
ell 1199, elapsed: 0.00047588348388671875
ell 1198, elapsed: 0.0004649162292480469
ell 1197, elapsed: 0.0005481243133544922
ell 1196, elapsed: 0.0005350112915039062
ell 1195, elapsed: 0.0005369186401367188
ell 1194, elapsed: 0.0005390644073486328
ell 1193, elapsed: 0.0005590915679931641
ell 1192, elapsed: 0.0005321502685546875
ell 1191, elapsed: 0.0005359649658203125
ell 1190, elapsed: 0.0005230903625488281
ell 1189, elapsed: 0.0005280971527099609
ell 1188, elapsed: 0.0005469322204589844
ell 1187, elapsed: 0.0005409717559814453
ell 1186, elapsed: 0.0005340576171875
ell 1185, elapsed: 0.0005230903625488281
ell 1184, elapsed: 0.0004999637603759766
ell 1183, elapsed: 0.0005519390106201172
ell 1182, elapsed: 0.000518798828125
ell 1181, elapsed: 0.0005519390106201172
ell 1180, elapsed: 0.0005359649658203125
ell 1179, elapsed: 0.0005331039428710938
ell 1178, elapsed: 0.0005779266357421875
ell 1177, elapsed: 0.0004990100860595703
ell 1176, elapsed: 0.0004980564117431641
ell 1175, elapsed: 0.0005221366882324219
ell 1174, elapsed: 0.0005309581756591797
ell 1173, elapsed: 0.0005180835723876953
ell 1172, elapsed: 0.0005331039428710938
ell 1171, elapsed: 0.0005159378051757812
ell 1170, elapsed: 0.0005161762237548828
ell 1169, elapsed: 0.0005009174346923828
ell 1168, elapsed: 0.0005309581756591797
ell 1167, elapsed: 0.0005190372467041016
ell 1166, elapsed: 0.0004961490631103516
ell 1165, elapsed: 0.0004999637603759766
ell 1164, elapsed: 0.0005078315734863281
ell 1163, elapsed: 0.0005121231079101562
ell 1162, elapsed: 0.0005249977111816406
ell 1161, elapsed: 0.0005269050598144531
ell 1160, elapsed: 0.0005099773406982422
ell 1159, elapsed: 0.0005121231079101562
ell 1158, elapsed: 0.0005118846893310547
ell 1157, elapsed: 0.0005450248718261719
ell 1156, elapsed: 0.0004990100860595703
ell 1155, elapsed: 0.0005300045013427734
ell 1154, elapsed: 0.0005209445953369141
ell 1153, elapsed: 0.0004980564117431641
ell 1152, elapsed: 0.0004990100860595703
ell 1151, elapsed: 0.0005159378051757812
ell 1150, elapsed: 0.0005319118499755859
ell 1149, elapsed: 0.0005128383636474609
ell 1148, elapsed: 0.00049591064453125
ell 1147, elapsed: 0.0004949569702148438
ell 1146, elapsed: 0.0005590915679931641
ell 1145, elapsed: 0.0005390644073486328
ell 1144, elapsed: 0.0005259513854980469
ell 1143, elapsed: 0.0005278587341308594
ell 1142, elapsed: 0.0005462169647216797
ell 1141, elapsed: 0.0005421638488769531
ell 1140, elapsed: 0.0004940032958984375
ell 1139, elapsed: 0.0004909038543701172
ell 1138, elapsed: 0.0004949569702148438
ell 1137, elapsed: 0.0004911422729492188
ell 1136, elapsed: 0.000514984130859375
ell 1135, elapsed: 0.0005280971527099609
ell 1134, elapsed: 0.0005140304565429688
ell 1133, elapsed: 0.0005109310150146484
ell 1132, elapsed: 0.0005099773406982422
ell 1131, elapsed: 0.0005321502685546875
ell 1130, elapsed: 0.0005309581756591797
ell 1129, elapsed: 0.0005068778991699219
ell 1128, elapsed: 0.0005159378051757812
ell 1127, elapsed: 0.0005040168762207031
ell 1126, elapsed: 0.0005159378051757812
ell 1125, elapsed: 0.000514984130859375
ell 1124, elapsed: 0.0005261898040771484
ell 1123, elapsed: 0.0005109310150146484
ell 1122, elapsed: 0.0005071163177490234
ell 1121, elapsed: 0.0005159378051757812
ell 1120, elapsed: 0.0005280971527099609
ell 1119, elapsed: 0.0005280971527099609
ell 1118, elapsed: 0.0005288124084472656
ell 1117, elapsed: 0.0005478858947753906
ell 1116, elapsed: 0.0005249977111816406
ell 1115, elapsed: 0.0005288124084472656
ell 1114, elapsed: 0.0004980564117431641
ell 1113, elapsed: 0.000514984130859375
ell 1112, elapsed: 0.0005090236663818359
ell 1111, elapsed: 0.0005009174346923828
ell 1110, elapsed: 0.0004961490631103516
ell 1109, elapsed: 0.0005240440368652344
ell 1108, elapsed: 0.0005249977111816406
ell 1107, elapsed: 0.0005118846893310547
ell 1106, elapsed: 0.0005478858947753906
ell 1105, elapsed: 0.0005300045013427734
ell 1104, elapsed: 0.0005159378051757812
ell 1103, elapsed: 0.0004940032958984375
ell 1102, elapsed: 0.000492095947265625
ell 1101, elapsed: 0.0005130767822265625
ell 1100, elapsed: 0.0004889965057373047
ell 1099, elapsed: 0.0005109310150146484
ell 1098, elapsed: 0.00049591064453125
ell 1097, elapsed: 0.0005080699920654297
ell 1096, elapsed: 0.00049591064453125
ell 1095, elapsed: 0.0005350112915039062
ell 1094, elapsed: 0.0005230903625488281
ell 1093, elapsed: 0.0005311965942382812
ell 1092, elapsed: 0.00051116943359375
ell 1091, elapsed: 0.0005140304565429688
ell 1090, elapsed: 0.0005121231079101562
ell 1089, elapsed: 0.0005428791046142578
ell 1088, elapsed: 0.0004990100860595703
ell 1087, elapsed: 0.0004928112030029297
ell 1086, elapsed: 0.0004971027374267578
ell 1085, elapsed: 0.0004980564117431641
ell 1084, elapsed: 0.00049591064453125
ell 1083, elapsed: 0.000514984130859375
ell 1082, elapsed: 0.0005350112915039062
ell 1081, elapsed: 0.0004971027374267578
ell 1080, elapsed: 0.0005018711090087891
ell 1079, elapsed: 0.0004978179931640625
ell 1078, elapsed: 0.0005071163177490234
ell 1077, elapsed: 0.0004930496215820312
ell 1076, elapsed: 0.0005178451538085938
ell 1075, elapsed: 0.000492095947265625
ell 1074, elapsed: 0.0004990100860595703
ell 1073, elapsed: 0.0005159378051757812
ell 1072, elapsed: 0.0004940032958984375
ell 1071, elapsed: 0.000514984130859375
ell 1070, elapsed: 0.0004978179931640625
ell 1069, elapsed: 0.0005109310150146484
ell 1068, elapsed: 0.0005071163177490234
ell 1067, elapsed: 0.0004930496215820312
ell 1066, elapsed: 0.0005009174346923828
ell 1065, elapsed: 0.0004971027374267578
ell 1064, elapsed: 0.0004968643188476562
ell 1063, elapsed: 0.0005099773406982422
ell 1062, elapsed: 0.0005230903625488281
ell 1061, elapsed: 0.0004949569702148438
ell 1060, elapsed: 0.0005209445953369141
ell 1059, elapsed: 0.0005028247833251953
ell 1058, elapsed: 0.0004918575286865234
ell 1057, elapsed: 0.0005230903625488281
ell 1056, elapsed: 0.0004968643188476562
ell 1055, elapsed: 0.0004999637603759766
ell 1054, elapsed: 0.0005140304565429688
ell 1053, elapsed: 0.0004968643188476562
ell 1052, elapsed: 0.0005040168762207031
ell 1051, elapsed: 0.0005030632019042969
ell 1050, elapsed: 0.0005128383636474609
ell 1049, elapsed: 0.0005068778991699219
ell 1048, elapsed: 0.0004968643188476562
ell 1047, elapsed: 0.0005140304565429688
ell 1046, elapsed: 0.0005049705505371094
ell 1045, elapsed: 0.0005018711090087891
ell 1044, elapsed: 0.0005021095275878906
ell 1043, elapsed: 0.0005021095275878906
ell 1042, elapsed: 0.0004961490631103516
ell 1041, elapsed: 0.0005261898040771484
ell 1040, elapsed: 0.00049591064453125
ell 1039, elapsed: 0.0005030632019042969
ell 1038, elapsed: 0.0004971027374267578
ell 1037, elapsed: 0.0005061626434326172
ell 1036, elapsed: 0.0005109310150146484
ell 1035, elapsed: 0.0005328655242919922
ell 1034, elapsed: 0.0004978179931640625
ell 1033, elapsed: 0.0005009174346923828
ell 1032, elapsed: 0.0004990100860595703
ell 1031, elapsed: 0.0004990100860595703
ell 1030, elapsed: 0.0004971027374267578
ell 1029, elapsed: 0.0005059242248535156
ell 1028, elapsed: 0.000514984130859375
ell 1027, elapsed: 0.0004999637603759766
ell 1026, elapsed: 0.000492095947265625
ell 1025, elapsed: 0.0005090236663818359
ell 1024, elapsed: 0.0005190372467041016
ell 1023, elapsed: 0.0004951953887939453
ell 1022, elapsed: 0.0005180835723876953
ell 1021, elapsed: 0.0004940032958984375
ell 1020, elapsed: 0.0004940032958984375
ell 1019, elapsed: 0.0004990100860595703
ell 1018, elapsed: 0.0004928112030029297
ell 1017, elapsed: 0.0004990100860595703
ell 1016, elapsed: 0.0004930496215820312
ell 1015, elapsed: 0.0004930496215820312
ell 1014, elapsed: 0.0005159378051757812
ell 1013, elapsed: 0.0004930496215820312
ell 1012, elapsed: 0.0005221366882324219
ell 1011, elapsed: 0.0005009174346923828
ell 1010, elapsed: 0.0005018711090087891
ell 1009, elapsed: 0.0005221366882324219
ell 1008, elapsed: 0.0005209445953369141
ell 1007, elapsed: 0.0005059242248535156
ell 1006, elapsed: 0.0004940032958984375
ell 1005, elapsed: 0.0004968643188476562
ell 1004, elapsed: 0.0004980564117431641
ell 1003, elapsed: 0.0005011558532714844
ell 1002, elapsed: 0.0005018711090087891
ell 1001, elapsed: 0.0005071163177490234
ell 1000, elapsed: 0.0005099773406982422
ell 999, elapsed: 0.0004940032958984375
ell 998, elapsed: 0.000514984130859375
ell 997, elapsed: 0.0005011558532714844
ell 996, elapsed: 0.0004990100860595703
ell 995, elapsed: 0.0004971027374267578
ell 994, elapsed: 0.0005171298980712891
ell 993, elapsed: 0.0005168914794921875
ell 992, elapsed: 0.0005028247833251953
ell 991, elapsed: 0.0004971027374267578
ell 990, elapsed: 0.0004930496215820312
ell 989, elapsed: 0.00049591064453125
ell 988, elapsed: 0.0004971027374267578
ell 987, elapsed: 0.0005161762237548828
ell 986, elapsed: 0.0004901885986328125
ell 985, elapsed: 0.0004971027374267578
ell 984, elapsed: 0.0004911422729492188
ell 983, elapsed: 0.0004940032958984375
ell 982, elapsed: 0.0004949569702148438
ell 981, elapsed: 0.0005128383636474609
ell 980, elapsed: 0.0005300045013427734
ell 979, elapsed: 0.0004930496215820312
ell 978, elapsed: 0.0004980564117431641
ell 977, elapsed: 0.0005128383636474609
ell 976, elapsed: 0.0005030632019042969
ell 975, elapsed: 0.0005080699920654297
ell 974, elapsed: 0.0006880760192871094
ell 973, elapsed: 0.0005190372467041016
ell 972, elapsed: 0.0005099773406982422
ell 971, elapsed: 0.0004978179931640625
ell 970, elapsed: 0.0004971027374267578
ell 969, elapsed: 0.0004980564117431641
ell 968, elapsed: 0.0005109310150146484
ell 967, elapsed: 0.0005018711090087891
ell 966, elapsed: 0.0004940032958984375
ell 965, elapsed: 0.0005178451538085938
ell 964, elapsed: 0.0004930496215820312
ell 963, elapsed: 0.0004980564117431641
ell 962, elapsed: 0.0005030632019042969
ell 961, elapsed: 0.0004968643188476562
ell 960, elapsed: 0.0005059242248535156
ell 959, elapsed: 0.0005118846893310547
ell 958, elapsed: 0.0004978179931640625
ell 957, elapsed: 0.0004971027374267578
ell 956, elapsed: 0.0005168914794921875
ell 955, elapsed: 0.0005011558532714844
ell 954, elapsed: 0.0005090236663818359
ell 953, elapsed: 0.0004928112030029297
ell 952, elapsed: 0.0004961490631103516
ell 951, elapsed: 0.0005121231079101562
ell 950, elapsed: 0.0005180835723876953
ell 949, elapsed: 0.0004968643188476562
ell 948, elapsed: 0.0004918575286865234
ell 947, elapsed: 0.0004968643188476562
ell 946, elapsed: 0.0004978179931640625
ell 945, elapsed: 0.0005018711090087891
ell 944, elapsed: 0.0005140304565429688
ell 943, elapsed: 0.0005121231079101562
ell 942, elapsed: 0.0005130767822265625
ell 941, elapsed: 0.0004918575286865234
ell 940, elapsed: 0.0004930496215820312
ell 939, elapsed: 0.0004899501800537109
ell 938, elapsed: 0.0004940032958984375
ell 937, elapsed: 0.0005178451538085938
ell 936, elapsed: 0.000514984130859375
ell 935, elapsed: 0.0005137920379638672
ell 934, elapsed: 0.0005099773406982422
ell 933, elapsed: 0.0005109310150146484
ell 932, elapsed: 0.0005390644073486328
ell 931, elapsed: 0.0005040168762207031
ell 930, elapsed: 0.0005168914794921875
ell 929, elapsed: 0.0004940032958984375
ell 928, elapsed: 0.0005130767822265625
ell 927, elapsed: 0.0005118846893310547
ell 926, elapsed: 0.0005238056182861328
ell 925, elapsed: 0.0005180835723876953
ell 924, elapsed: 0.0005102157592773438
ell 923, elapsed: 0.0004990100860595703
ell 922, elapsed: 0.0005090236663818359
ell 921, elapsed: 0.0005159378051757812
ell 920, elapsed: 0.0005109310150146484
ell 919, elapsed: 0.0004918575286865234
ell 918, elapsed: 0.0005121231079101562
ell 917, elapsed: 0.0005099773406982422
ell 916, elapsed: 0.0004940032958984375
ell 915, elapsed: 0.000537872314453125
ell 914, elapsed: 0.0005080699920654297
ell 913, elapsed: 0.00049591064453125
ell 912, elapsed: 0.0004901885986328125
ell 911, elapsed: 0.0004949569702148438
ell 910, elapsed: 0.0004940032958984375
ell 909, elapsed: 0.0005271434783935547
ell 908, elapsed: 0.0004990100860595703
ell 907, elapsed: 0.0005121231079101562
ell 906, elapsed: 0.0004899501800537109
ell 905, elapsed: 0.000514984130859375
ell 904, elapsed: 0.0005021095275878906
ell 903, elapsed: 0.0005121231079101562
ell 902, elapsed: 0.0004901885986328125
ell 901, elapsed: 0.0005090236663818359
ell 900, elapsed: 0.0004990100860595703
ell 899, elapsed: 0.00048804283142089844
ell 898, elapsed: 0.0005421638488769531
ell 897, elapsed: 0.0004930496215820312
ell 896, elapsed: 0.0004937648773193359
ell 895, elapsed: 0.0005209445953369141
ell 894, elapsed: 0.0004968643188476562
ell 893, elapsed: 0.0005171298980712891
ell 892, elapsed: 0.0004940032958984375
ell 891, elapsed: 0.0004930496215820312
ell 890, elapsed: 0.0005071163177490234
ell 889, elapsed: 0.0005090236663818359
ell 888, elapsed: 0.0005238056182861328
ell 887, elapsed: 0.0004940032958984375
ell 886, elapsed: 0.0005128383636474609
ell 885, elapsed: 0.0005099773406982422
ell 884, elapsed: 0.0004978179931640625
ell 883, elapsed: 0.0004961490631103516
ell 882, elapsed: 0.0005049705505371094
ell 881, elapsed: 0.0005269050598144531
ell 880, elapsed: 0.0005300045013427734
ell 879, elapsed: 0.0005118846893310547
ell 878, elapsed: 0.0005109310150146484
ell 877, elapsed: 0.0005450248718261719
ell 876, elapsed: 0.00049591064453125
ell 875, elapsed: 0.0004930496215820312
ell 874, elapsed: 0.0005118846893310547
ell 873, elapsed: 0.0005109310150146484
ell 872, elapsed: 0.0005109310150146484
ell 871, elapsed: 0.00051116943359375
ell 870, elapsed: 0.0004961490631103516
ell 869, elapsed: 0.0005121231079101562
ell 868, elapsed: 0.0005049705505371094
ell 867, elapsed: 0.0005221366882324219
ell 866, elapsed: 0.0004749298095703125
ell 865, elapsed: 0.0004401206970214844
ell 864, elapsed: 0.00045490264892578125
ell 863, elapsed: 0.000453948974609375
ell 862, elapsed: 0.0004520416259765625
ell 861, elapsed: 0.0004601478576660156
ell 860, elapsed: 0.00045990943908691406
ell 859, elapsed: 0.0004661083221435547
ell 858, elapsed: 0.0006020069122314453
ell 857, elapsed: 0.0006721019744873047
ell 856, elapsed: 0.0007419586181640625
ell 855, elapsed: 0.0006060600280761719
ell 854, elapsed: 0.0007250308990478516
ell 853, elapsed: 0.00048613548278808594
ell 852, elapsed: 0.0004520416259765625
ell 851, elapsed: 0.00045418739318847656
ell 850, elapsed: 0.000453948974609375
ell 849, elapsed: 0.00045418739318847656
ell 848, elapsed: 0.0004508495330810547
ell 847, elapsed: 0.0004649162292480469
ell 846, elapsed: 0.00044918060302734375
ell 845, elapsed: 0.00045490264892578125
ell 844, elapsed: 0.00045108795166015625
ell 843, elapsed: 0.0004570484161376953
ell 842, elapsed: 0.00045108795166015625
ell 841, elapsed: 0.00045680999755859375
ell 840, elapsed: 0.00045490264892578125
ell 839, elapsed: 0.00047016143798828125
ell 838, elapsed: 0.0004551410675048828
ell 837, elapsed: 0.00045299530029296875
ell 836, elapsed: 0.00045800209045410156
ell 835, elapsed: 0.00045013427734375
ell 834, elapsed: 0.0004520416259765625
ell 833, elapsed: 0.0004601478576660156
ell 832, elapsed: 0.00045800209045410156
ell 831, elapsed: 0.00045800209045410156
ell 830, elapsed: 0.00045490264892578125
ell 829, elapsed: 0.0004591941833496094
ell 828, elapsed: 0.00045990943908691406
ell 827, elapsed: 0.0004520416259765625
ell 826, elapsed: 0.0004570484161376953
ell 825, elapsed: 0.0004508495330810547
ell 824, elapsed: 0.0004699230194091797
ell 823, elapsed: 0.00045108795166015625
ell 822, elapsed: 0.00045418739318847656
ell 821, elapsed: 0.00045299530029296875
ell 820, elapsed: 0.00045299530029296875
ell 819, elapsed: 0.00045609474182128906
ell 818, elapsed: 0.000453948974609375
ell 817, elapsed: 0.00044989585876464844
ell 816, elapsed: 0.0006649494171142578
ell 815, elapsed: 0.0004711151123046875
ell 814, elapsed: 0.00045680999755859375
ell 813, elapsed: 0.00045299530029296875
ell 812, elapsed: 0.0004520416259765625
ell 811, elapsed: 0.00045609474182128906
ell 810, elapsed: 0.00045490264892578125
ell 809, elapsed: 0.0004680156707763672
ell 808, elapsed: 0.00045299530029296875
ell 807, elapsed: 0.00045013427734375
ell 806, elapsed: 0.00045609474182128906
ell 805, elapsed: 0.00045490264892578125
ell 804, elapsed: 0.0004749298095703125
ell 803, elapsed: 0.00045800209045410156
ell 802, elapsed: 0.0004680156707763672
ell 801, elapsed: 0.00045800209045410156
ell 800, elapsed: 0.00045299530029296875
ell 799, elapsed: 0.00045990943908691406
ell 798, elapsed: 0.0004532337188720703
ell 797, elapsed: 0.0004508495330810547
ell 796, elapsed: 0.0004520416259765625
ell 795, elapsed: 0.00045299530029296875
ell 794, elapsed: 0.0004699230194091797
ell 793, elapsed: 0.000453948974609375
ell 792, elapsed: 0.00044989585876464844
ell 791, elapsed: 0.00045800209045410156
ell 790, elapsed: 0.0004508495330810547
ell 789, elapsed: 0.00045800209045410156
ell 788, elapsed: 0.00044918060302734375
ell 787, elapsed: 0.0004658699035644531
ell 786, elapsed: 0.0004611015319824219
ell 785, elapsed: 0.0004520416259765625
ell 784, elapsed: 0.00045418739318847656
ell 783, elapsed: 0.000453948974609375
ell 782, elapsed: 0.0004520416259765625
ell 781, elapsed: 0.0004520416259765625
ell 780, elapsed: 0.00045180320739746094
ell 779, elapsed: 0.00046896934509277344
ell 778, elapsed: 0.00045609474182128906
ell 777, elapsed: 0.00045680999755859375
ell 776, elapsed: 0.00045013427734375
ell 775, elapsed: 0.0004520416259765625
ell 774, elapsed: 0.0004570484161376953
ell 773, elapsed: 0.0004589557647705078
ell 772, elapsed: 0.00047516822814941406
ell 771, elapsed: 0.0006229877471923828
ell 770, elapsed: 0.0005619525909423828
ell 769, elapsed: 0.0006420612335205078
ell 768, elapsed: 0.0006189346313476562
ell 767, elapsed: 0.0007159709930419922
ell 766, elapsed: 0.0005118846893310547
ell 765, elapsed: 0.000453948974609375
ell 764, elapsed: 0.00045108795166015625
ell 763, elapsed: 0.0004520416259765625
ell 762, elapsed: 0.00045609474182128906
ell 761, elapsed: 0.00045108795166015625
ell 760, elapsed: 0.00045800209045410156
ell 759, elapsed: 0.0004658699035644531
ell 758, elapsed: 0.00045609474182128906
ell 757, elapsed: 0.00045990943908691406
ell 756, elapsed: 0.0004520416259765625
ell 755, elapsed: 0.00045490264892578125
ell 754, elapsed: 0.0004558563232421875
ell 753, elapsed: 0.00045609474182128906
ell 752, elapsed: 0.00045490264892578125
ell 751, elapsed: 0.0004551410675048828
ell 750, elapsed: 0.0004608631134033203
ell 749, elapsed: 0.00045609474182128906
ell 748, elapsed: 0.00045490264892578125
ell 747, elapsed: 0.00045800209045410156
ell 746, elapsed: 0.0004508495330810547
ell 745, elapsed: 0.00045800209045410156
ell 744, elapsed: 0.0004699230194091797
ell 743, elapsed: 0.0004570484161376953
ell 742, elapsed: 0.0004589557647705078
ell 741, elapsed: 0.000453948974609375
ell 740, elapsed: 0.0004601478576660156
ell 739, elapsed: 0.000453948974609375
ell 738, elapsed: 0.00045609474182128906
ell 737, elapsed: 0.0004589557647705078
ell 736, elapsed: 0.0004601478576660156
ell 735, elapsed: 0.00046706199645996094
ell 734, elapsed: 0.00045609474182128906
ell 733, elapsed: 0.0004639625549316406
ell 732, elapsed: 0.0004570484161376953
ell 731, elapsed: 0.0004611015319824219
ell 730, elapsed: 0.000453948974609375
ell 729, elapsed: 0.0004711151123046875
ell 728, elapsed: 0.000453948974609375
ell 727, elapsed: 0.0004558563232421875
ell 726, elapsed: 0.00044918060302734375
ell 725, elapsed: 0.0004558563232421875
ell 724, elapsed: 0.0004520416259765625
ell 723, elapsed: 0.00045990943908691406
ell 722, elapsed: 0.0004551410675048828
ell 721, elapsed: 0.0004639625549316406
ell 720, elapsed: 0.000453948974609375
ell 719, elapsed: 0.000453948974609375
ell 718, elapsed: 0.0004391670227050781
ell 717, elapsed: 0.000453948974609375
ell 716, elapsed: 0.00043511390686035156
ell 715, elapsed: 0.0004589557647705078
ell 714, elapsed: 0.00047278404235839844
ell 713, elapsed: 0.00045299530029296875
ell 712, elapsed: 0.00045299530029296875
ell 711, elapsed: 0.00045299530029296875
ell 710, elapsed: 0.00045609474182128906
ell 709, elapsed: 0.00045299530029296875
ell 708, elapsed: 0.0004558563232421875
ell 707, elapsed: 0.00045299530029296875
ell 706, elapsed: 0.00047016143798828125
ell 705, elapsed: 0.0004558563232421875
ell 704, elapsed: 0.00045680999755859375
ell 703, elapsed: 0.00045299530029296875
ell 702, elapsed: 0.00045490264892578125
ell 701, elapsed: 0.0004520416259765625
ell 700, elapsed: 0.00045800209045410156
ell 699, elapsed: 0.0004680156707763672
ell 698, elapsed: 0.00045800209045410156
ell 697, elapsed: 0.00045800209045410156
ell 696, elapsed: 0.00046181678771972656
ell 695, elapsed: 0.00045108795166015625
ell 694, elapsed: 0.000453948974609375
ell 693, elapsed: 0.00045418739318847656
ell 692, elapsed: 0.00045418739318847656
ell 691, elapsed: 0.00046896934509277344
ell 690, elapsed: 0.00045800209045410156
ell 689, elapsed: 0.000453948974609375
ell 688, elapsed: 0.0004398822784423828
ell 687, elapsed: 0.0004551410675048828
ell 686, elapsed: 0.0004620552062988281
ell 685, elapsed: 0.00045108795166015625
ell 684, elapsed: 0.00047016143798828125
ell 683, elapsed: 0.00045299530029296875
ell 682, elapsed: 0.000453948974609375
ell 681, elapsed: 0.00045800209045410156
ell 680, elapsed: 0.00045800209045410156
ell 679, elapsed: 0.000453948974609375
ell 678, elapsed: 0.00045800209045410156
ell 677, elapsed: 0.00045299530029296875
ell 676, elapsed: 0.0006899833679199219
ell 675, elapsed: 0.0005931854248046875
ell 674, elapsed: 0.0005769729614257812
ell 673, elapsed: 0.0006129741668701172
ell 672, elapsed: 0.0007119178771972656
ell 671, elapsed: 0.0005490779876708984
ell 670, elapsed: 0.00045490264892578125
ell 669, elapsed: 0.0004570484161376953
ell 668, elapsed: 0.00044798851013183594
ell 667, elapsed: 0.00044989585876464844
ell 666, elapsed: 0.0004520416259765625
ell 665, elapsed: 0.0004520416259765625
ell 664, elapsed: 0.0004658699035644531
ell 663, elapsed: 0.00045609474182128906
ell 662, elapsed: 0.00045108795166015625
ell 661, elapsed: 0.0004780292510986328
ell 660, elapsed: 0.000453948974609375
ell 659, elapsed: 0.00046181678771972656
ell 658, elapsed: 0.0004489421844482422
ell 657, elapsed: 0.000453948974609375
ell 656, elapsed: 0.000453948974609375
ell 655, elapsed: 0.0004379749298095703
ell 654, elapsed: 0.00045800209045410156
ell 653, elapsed: 0.00043511390686035156
ell 652, elapsed: 0.000453948974609375
ell 651, elapsed: 0.0004730224609375
ell 650, elapsed: 0.00046896934509277344
ell 649, elapsed: 0.00046896934509277344
ell 648, elapsed: 0.0004570484161376953
ell 647, elapsed: 0.0004570484161376953
ell 646, elapsed: 0.00045990943908691406
ell 645, elapsed: 0.00046706199645996094
ell 644, elapsed: 0.00046896934509277344
ell 643, elapsed: 0.00045490264892578125
ell 642, elapsed: 0.0004680156707763672
ell 641, elapsed: 0.0004601478576660156
ell 640, elapsed: 0.00045800209045410156
ell 639, elapsed: 0.0004639625549316406
ell 638, elapsed: 0.00045609474182128906
ell 637, elapsed: 0.00046706199645996094
ell 636, elapsed: 0.0004639625549316406
ell 635, elapsed: 0.0004570484161376953
ell 634, elapsed: 0.0004711151123046875
ell 633, elapsed: 0.0004451274871826172
ell 632, elapsed: 0.00045609474182128906
ell 631, elapsed: 0.0004558563232421875
ell 630, elapsed: 0.00045299530029296875
ell 629, elapsed: 0.00045800209045410156
ell 628, elapsed: 0.00045108795166015625
ell 627, elapsed: 0.0004730224609375
ell 626, elapsed: 0.00046181678771972656
ell 625, elapsed: 0.00045609474182128906
ell 624, elapsed: 0.00046706199645996094
ell 623, elapsed: 0.000453948974609375
ell 622, elapsed: 0.0004589557647705078
ell 621, elapsed: 0.00045990943908691406
ell 620, elapsed: 0.0004570484161376953
ell 619, elapsed: 0.0004608631134033203
ell 618, elapsed: 0.00045800209045410156
ell 617, elapsed: 0.0004639625549316406
ell 616, elapsed: 0.00045990943908691406
ell 615, elapsed: 0.000453948974609375
ell 614, elapsed: 0.00047898292541503906
ell 613, elapsed: 0.0004589557647705078
ell 612, elapsed: 0.0004780292510986328
ell 611, elapsed: 0.00045800209045410156
ell 610, elapsed: 0.0004620552062988281
ell 609, elapsed: 0.0004520416259765625
ell 608, elapsed: 0.00045490264892578125
ell 607, elapsed: 0.0004620552062988281
ell 606, elapsed: 0.00046896934509277344
ell 605, elapsed: 0.0004801750183105469
ell 604, elapsed: 0.00045609474182128906
ell 603, elapsed: 0.0004591941833496094
ell 602, elapsed: 0.00045680999755859375
ell 601, elapsed: 0.0004570484161376953
ell 600, elapsed: 0.00045490264892578125
ell 599, elapsed: 0.0004570484161376953
ell 598, elapsed: 0.00045490264892578125
ell 597, elapsed: 0.0004680156707763672
ell 596, elapsed: 0.00045180320739746094
ell 595, elapsed: 0.00045299530029296875
ell 594, elapsed: 0.00045299530029296875
ell 593, elapsed: 0.00045800209045410156
ell 592, elapsed: 0.0004620552062988281
ell 591, elapsed: 0.00045800209045410156
ell 590, elapsed: 0.00047206878662109375
ell 589, elapsed: 0.0006568431854248047
ell 588, elapsed: 0.00047206878662109375
ell 587, elapsed: 0.00047397613525390625
ell 586, elapsed: 0.00046181678771972656
ell 585, elapsed: 0.00047397613525390625
ell 584, elapsed: 0.0004558563232421875
ell 583, elapsed: 0.0004608631134033203
ell 582, elapsed: 0.00045800209045410156
ell 581, elapsed: 0.0004642009735107422
ell 580, elapsed: 0.00046896934509277344
ell 579, elapsed: 0.0004608631134033203
ell 578, elapsed: 0.0004639625549316406
ell 577, elapsed: 0.0004608631134033203
ell 576, elapsed: 0.0004642009735107422
ell 575, elapsed: 0.00045490264892578125
ell 574, elapsed: 0.0004730224609375
ell 573, elapsed: 0.00043702125549316406
ell 572, elapsed: 0.00045299530029296875
ell 571, elapsed: 0.00045299530029296875
ell 570, elapsed: 0.0004620552062988281
ell 569, elapsed: 0.00045990943908691406
ell 568, elapsed: 0.00045800209045410156
ell 567, elapsed: 0.000453948974609375
ell 566, elapsed: 0.00045800209045410156
ell 565, elapsed: 0.0004570484161376953
ell 564, elapsed: 0.00045800209045410156
ell 563, elapsed: 0.0004611015319824219
ell 562, elapsed: 0.0004570484161376953
ell 561, elapsed: 0.0004570484161376953
ell 560, elapsed: 0.00047588348388671875
ell 559, elapsed: 0.0004699230194091797
ell 558, elapsed: 0.00046706199645996094
ell 557, elapsed: 0.00045800209045410156
ell 556, elapsed: 0.0004630088806152344
ell 555, elapsed: 0.0004658699035644531
ell 554, elapsed: 0.0004611015319824219
ell 553, elapsed: 0.0004661083221435547
ell 552, elapsed: 0.0004668235778808594
ell 551, elapsed: 0.00045609474182128906
ell 550, elapsed: 0.0004608631134033203
ell 549, elapsed: 0.00045490264892578125
ell 548, elapsed: 0.0004611015319824219
ell 547, elapsed: 0.0004570484161376953
ell 546, elapsed: 0.00045800209045410156
ell 545, elapsed: 0.00045013427734375
ell 544, elapsed: 0.00046896934509277344
ell 543, elapsed: 0.00045990943908691406
ell 542, elapsed: 0.00045108795166015625
ell 541, elapsed: 0.00047016143798828125
ell 540, elapsed: 0.0004589557647705078
ell 539, elapsed: 0.0004630088806152344
ell 538, elapsed: 0.0004642009735107422
ell 537, elapsed: 0.0004680156707763672
ell 536, elapsed: 0.00046181678771972656
ell 535, elapsed: 0.0004570484161376953
ell 534, elapsed: 0.0004620552062988281
ell 533, elapsed: 0.0004649162292480469
ell 532, elapsed: 0.00045013427734375
ell 531, elapsed: 0.0004627704620361328
ell 530, elapsed: 0.00045418739318847656
ell 529, elapsed: 0.0004811286926269531
ell 528, elapsed: 0.0004620552062988281
ell 527, elapsed: 0.0004658699035644531
ell 526, elapsed: 0.00045609474182128906
ell 525, elapsed: 0.00045800209045410156
ell 524, elapsed: 0.0004558563232421875
ell 523, elapsed: 0.00047397613525390625
ell 522, elapsed: 0.0004680156707763672
ell 521, elapsed: 0.0004458427429199219
ell 520, elapsed: 0.0004630088806152344
ell 519, elapsed: 0.0005049705505371094
ell 518, elapsed: 0.0004680156707763672
ell 517, elapsed: 0.0004630088806152344
ell 516, elapsed: 0.00046181678771972656
ell 515, elapsed: 0.0004508495330810547
ell 514, elapsed: 0.00047087669372558594
ell 513, elapsed: 0.0004649162292480469
ell 512, elapsed: 0.0004711151123046875
ell 511, elapsed: 0.0004639625549316406
ell 510, elapsed: 0.000453948974609375
ell 509, elapsed: 0.0004589557647705078
ell 508, elapsed: 0.0004489421844482422
ell 507, elapsed: 0.0004730224609375
ell 506, elapsed: 0.00045490264892578125
ell 505, elapsed: 0.0004620552062988281
ell 504, elapsed: 0.00045418739318847656
ell 503, elapsed: 0.000453948974609375
ell 502, elapsed: 0.0004410743713378906
ell 501, elapsed: 0.0004608631134033203
ell 500, elapsed: 0.00047397613525390625
ell 499, elapsed: 0.0004429817199707031
ell 498, elapsed: 0.0004642009735107422
ell 497, elapsed: 0.0004551410675048828
ell 496, elapsed: 0.00045990943908691406
ell 495, elapsed: 0.0004551410675048828
ell 494, elapsed: 0.0004620552062988281
ell 493, elapsed: 0.0004520416259765625
ell 492, elapsed: 0.0004661083221435547
ell 491, elapsed: 0.0004589557647705078
ell 490, elapsed: 0.00045990943908691406
ell 489, elapsed: 0.00045990943908691406
ell 488, elapsed: 0.00045800209045410156
ell 487, elapsed: 0.0004661083221435547
ell 486, elapsed: 0.0004608631134033203
ell 485, elapsed: 0.00047588348388671875
ell 484, elapsed: 0.00045800209045410156
ell 483, elapsed: 0.0004551410675048828
ell 482, elapsed: 0.0004591941833496094
ell 481, elapsed: 0.0004429817199707031
ell 480, elapsed: 0.000453948974609375
ell 479, elapsed: 0.0004811286926269531
ell 478, elapsed: 0.00047397613525390625
ell 477, elapsed: 0.0004451274871826172
ell 476, elapsed: 0.00045609474182128906
ell 475, elapsed: 0.00045180320739746094
ell 474, elapsed: 0.00045490264892578125
ell 473, elapsed: 0.00045800209045410156
ell 472, elapsed: 0.0004551410675048828
ell 471, elapsed: 0.00045609474182128906
ell 470, elapsed: 0.0006871223449707031
ell 469, elapsed: 0.0005462169647216797
ell 468, elapsed: 0.0004639625549316406
ell 467, elapsed: 0.00045990943908691406
ell 466, elapsed: 0.00045490264892578125
ell 465, elapsed: 0.0004508495330810547
ell 464, elapsed: 0.0004680156707763672
ell 463, elapsed: 0.00045180320739746094
ell 462, elapsed: 0.00046515464782714844
ell 461, elapsed: 0.0004551410675048828
ell 460, elapsed: 0.0004570484161376953
ell 459, elapsed: 0.0004570484161376953
ell 458, elapsed: 0.0004551410675048828
ell 457, elapsed: 0.00045609474182128906
ell 456, elapsed: 0.0004730224609375
ell 455, elapsed: 0.00045990943908691406
ell 454, elapsed: 0.0004470348358154297
ell 453, elapsed: 0.00045990943908691406
ell 452, elapsed: 0.0004630088806152344
ell 451, elapsed: 0.00044608116149902344
ell 450, elapsed: 0.0004630088806152344
ell 449, elapsed: 0.00046706199645996094
ell 448, elapsed: 0.00045108795166015625
ell 447, elapsed: 0.0004639625549316406
ell 446, elapsed: 0.0004611015319824219
ell 445, elapsed: 0.00045180320739746094
ell 444, elapsed: 0.00045299530029296875
ell 443, elapsed: 0.00045180320739746094
ell 442, elapsed: 0.0004668235778808594
ell 441, elapsed: 0.0004780292510986328
ell 440, elapsed: 0.0004811286926269531
ell 439, elapsed: 0.00047588348388671875
ell 438, elapsed: 0.00048613548278808594
ell 437, elapsed: 0.0004730224609375
ell 436, elapsed: 0.00047397613525390625
ell 435, elapsed: 0.0004909038543701172
ell 434, elapsed: 0.00047898292541503906
ell 433, elapsed: 0.00047707557678222656
ell 432, elapsed: 0.00047707557678222656
ell 431, elapsed: 0.0004749298095703125
ell 430, elapsed: 0.00047898292541503906
ell 429, elapsed: 0.0004761219024658203
ell 428, elapsed: 0.0004799365997314453
ell 427, elapsed: 0.0004799365997314453
ell 426, elapsed: 0.00047588348388671875
ell 425, elapsed: 0.00047397613525390625
ell 424, elapsed: 0.0004909038543701172
ell 423, elapsed: 0.00049591064453125
ell 422, elapsed: 0.00047397613525390625
ell 421, elapsed: 0.0004749298095703125
ell 420, elapsed: 0.00047898292541503906
ell 419, elapsed: 0.00047397613525390625
ell 418, elapsed: 0.0004901885986328125
ell 417, elapsed: 0.0004889965057373047
ell 416, elapsed: 0.0004730224609375
ell 415, elapsed: 0.00048089027404785156
ell 414, elapsed: 0.0004661083221435547
ell 413, elapsed: 0.0004711151123046875
ell 412, elapsed: 0.0005159378051757812
ell 411, elapsed: 0.0004811286926269531
ell 410, elapsed: 0.00047898292541503906
ell 409, elapsed: 0.00047397613525390625
ell 408, elapsed: 0.00047206878662109375
ell 407, elapsed: 0.0004889965057373047
ell 406, elapsed: 0.0004711151123046875
ell 405, elapsed: 0.0004820823669433594
ell 404, elapsed: 0.00047397613525390625
ell 403, elapsed: 0.00048089027404785156
ell 402, elapsed: 0.0004699230194091797
ell 401, elapsed: 0.0004928112030029297
ell 400, elapsed: 0.00047206878662109375
ell 399, elapsed: 0.0004761219024658203
ell 398, elapsed: 0.00047087669372558594
ell 397, elapsed: 0.00047707557678222656
ell 396, elapsed: 0.0004780292510986328
ell 395, elapsed: 0.0004899501800537109
ell 394, elapsed: 0.00047588348388671875
ell 393, elapsed: 0.0004780292510986328
ell 392, elapsed: 0.0004730224609375
ell 391, elapsed: 0.0004799365997314453
ell 390, elapsed: 0.0004699230194091797
ell 389, elapsed: 0.00047707557678222656
ell 388, elapsed: 0.00047898292541503906
ell 387, elapsed: 0.00047206878662109375
ell 386, elapsed: 0.00047898292541503906
ell 385, elapsed: 0.000476837158203125
ell 384, elapsed: 0.00046706199645996094
ell 383, elapsed: 0.0004429817199707031
ell 382, elapsed: 0.0004229545593261719
ell 381, elapsed: 0.00042891502380371094
ell 380, elapsed: 0.0004429817199707031
ell 379, elapsed: 0.0004298686981201172
ell 378, elapsed: 0.00043487548828125
ell 377, elapsed: 0.00042891502380371094
ell 376, elapsed: 0.00043702125549316406
ell 375, elapsed: 0.0004489421844482422
ell 374, elapsed: 0.0004329681396484375
ell 373, elapsed: 0.00043201446533203125
ell 372, elapsed: 0.00043582916259765625
ell 371, elapsed: 0.0004279613494873047
ell 370, elapsed: 0.00042891502380371094
ell 369, elapsed: 0.00043201446533203125
ell 368, elapsed: 0.0004329681396484375
ell 367, elapsed: 0.0004439353942871094
ell 366, elapsed: 0.000431060791015625
ell 365, elapsed: 0.00042700767517089844
ell 364, elapsed: 0.00043201446533203125
ell 363, elapsed: 0.0004260540008544922
ell 362, elapsed: 0.0004229545593261719
ell 361, elapsed: 0.00043201446533203125
ell 360, elapsed: 0.0004260540008544922
ell 359, elapsed: 0.00044608116149902344
ell 358, elapsed: 0.0004279613494873047
ell 357, elapsed: 0.0004291534423828125
ell 356, elapsed: 0.000431060791015625
ell 355, elapsed: 0.0004291534423828125
ell 354, elapsed: 0.0004279613494873047
ell 353, elapsed: 0.00042891502380371094
ell 352, elapsed: 0.0004279613494873047
ell 351, elapsed: 0.00043511390686035156
ell 350, elapsed: 0.0004432201385498047
ell 349, elapsed: 0.0004360675811767578
ell 348, elapsed: 0.00042319297790527344
ell 347, elapsed: 0.00042700767517089844
ell 346, elapsed: 0.00042700767517089844
ell 345, elapsed: 0.0004298686981201172
ell 344, elapsed: 0.0004229545593261719
ell 343, elapsed: 0.00042891502380371094
ell 342, elapsed: 0.0004401206970214844
ell 341, elapsed: 0.00043702125549316406
ell 340, elapsed: 0.00042891502380371094
ell 339, elapsed: 0.000431060791015625
ell 338, elapsed: 0.00043320655822753906
ell 337, elapsed: 0.0004298686981201172
ell 336, elapsed: 0.00042510032653808594
ell 335, elapsed: 0.00043010711669921875
ell 334, elapsed: 0.0004439353942871094
ell 333, elapsed: 0.00043082237243652344
ell 332, elapsed: 0.00043702125549316406
ell 331, elapsed: 0.00043010711669921875
ell 330, elapsed: 0.0004258155822753906
ell 329, elapsed: 0.000431060791015625
ell 328, elapsed: 0.00042700767517089844
ell 327, elapsed: 0.0004360675811767578
ell 326, elapsed: 0.00042700767517089844
ell 325, elapsed: 0.0004429817199707031
ell 324, elapsed: 0.0004329681396484375
ell 323, elapsed: 0.00042319297790527344
ell 322, elapsed: 0.00043392181396484375
ell 321, elapsed: 0.00042510032653808594
ell 320, elapsed: 0.000431060791015625
ell 319, elapsed: 0.00043392181396484375
ell 318, elapsed: 0.0004291534423828125
ell 317, elapsed: 0.00044417381286621094
ell 316, elapsed: 0.0004279613494873047
ell 315, elapsed: 0.000431060791015625
ell 314, elapsed: 0.0004341602325439453
ell 313, elapsed: 0.0004279613494873047
ell 312, elapsed: 0.00043320655822753906
ell 311, elapsed: 0.0004260540008544922
ell 310, elapsed: 0.00043392181396484375
ell 309, elapsed: 0.00043892860412597656
ell 308, elapsed: 0.000431060791015625
ell 307, elapsed: 0.00042891502380371094
ell 306, elapsed: 0.0004279613494873047
ell 305, elapsed: 0.00043392181396484375
ell 304, elapsed: 0.00042510032653808594
ell 303, elapsed: 0.000431060791015625
ell 302, elapsed: 0.00043392181396484375
ell 301, elapsed: 0.00042510032653808594
ell 300, elapsed: 0.00045180320739746094
ell 299, elapsed: 0.0004298686981201172
ell 298, elapsed: 0.00043201446533203125
ell 297, elapsed: 0.00043010711669921875
ell 296, elapsed: 0.00043082237243652344
ell 295, elapsed: 0.00043010711669921875
ell 294, elapsed: 0.00042700767517089844
ell 293, elapsed: 0.0004229545593261719
ell 292, elapsed: 0.0004570484161376953
ell 291, elapsed: 0.00042700767517089844
ell 290, elapsed: 0.0004279613494873047
ell 289, elapsed: 0.00042891502380371094
ell 288, elapsed: 0.0004239082336425781
ell 287, elapsed: 0.00043320655822753906
ell 286, elapsed: 0.00043010711669921875
ell 285, elapsed: 0.00043511390686035156
ell 284, elapsed: 0.00043702125549316406
ell 283, elapsed: 0.00042891502380371094
ell 282, elapsed: 0.0004360675811767578
ell 281, elapsed: 0.00042700767517089844
ell 280, elapsed: 0.00043582916259765625
ell 279, elapsed: 0.00042700767517089844
ell 278, elapsed: 0.00043392181396484375
ell 277, elapsed: 0.00043201446533203125
ell 276, elapsed: 0.00042891502380371094
ell 275, elapsed: 0.00043892860412597656
ell 274, elapsed: 0.00042700767517089844
ell 273, elapsed: 0.0004420280456542969
ell 272, elapsed: 0.0004291534423828125
ell 271, elapsed: 0.00043010711669921875
ell 270, elapsed: 0.0004360675811767578
ell 269, elapsed: 0.0004329681396484375
ell 268, elapsed: 0.0004379749298095703
ell 267, elapsed: 0.00045013427734375
ell 266, elapsed: 0.00042700767517089844
ell 265, elapsed: 0.0004317760467529297
ell 264, elapsed: 0.0004279613494873047
ell 263, elapsed: 0.00043702125549316406
ell 262, elapsed: 0.0004291534423828125
ell 261, elapsed: 0.00042891502380371094
ell 260, elapsed: 0.00043320655822753906
ell 259, elapsed: 0.0004429817199707031
ell 258, elapsed: 0.0004360675811767578
ell 257, elapsed: 0.0004298686981201172
ell 256, elapsed: 0.0004382133483886719
ell 255, elapsed: 0.0004439353942871094
ell 254, elapsed: 0.000431060791015625
ell 253, elapsed: 0.00044798851013183594
ell 252, elapsed: 0.0004329681396484375
ell 251, elapsed: 0.0004451274871826172
ell 250, elapsed: 0.00044083595275878906
ell 249, elapsed: 0.0004298686981201172
ell 248, elapsed: 0.0004439353942871094
ell 247, elapsed: 0.0004451274871826172
ell 246, elapsed: 0.00044798851013183594
ell 245, elapsed: 0.00043582916259765625
ell 244, elapsed: 0.000431060791015625
ell 243, elapsed: 0.0004360675811767578
ell 242, elapsed: 0.0004360675811767578
ell 241, elapsed: 0.000431060791015625
ell 240, elapsed: 0.00043392181396484375
ell 239, elapsed: 0.0004291534423828125
ell 238, elapsed: 0.0004417896270751953
ell 237, elapsed: 0.00042700767517089844
ell 236, elapsed: 0.0004470348358154297
ell 235, elapsed: 0.00043511390686035156
ell 234, elapsed: 0.0004470348358154297
ell 233, elapsed: 0.0004379749298095703
ell 232, elapsed: 0.00044083595275878906
ell 231, elapsed: 0.0004398822784423828
ell 230, elapsed: 0.0004298686981201172
ell 229, elapsed: 0.000431060791015625
ell 228, elapsed: 0.00043582916259765625
ell 227, elapsed: 0.0004258155822753906
ell 226, elapsed: 0.00045013427734375
ell 225, elapsed: 0.000431060791015625
ell 224, elapsed: 0.00043010711669921875
ell 223, elapsed: 0.00043487548828125
ell 222, elapsed: 0.0004279613494873047
ell 221, elapsed: 0.00043487548828125
ell 220, elapsed: 0.00043201446533203125
ell 219, elapsed: 0.000431060791015625
ell 218, elapsed: 0.000453948974609375
ell 217, elapsed: 0.00043082237243652344
ell 216, elapsed: 0.00043201446533203125
ell 215, elapsed: 0.00042700767517089844
ell 214, elapsed: 0.0004291534423828125
ell 213, elapsed: 0.0004279613494873047
ell 212, elapsed: 0.0004200935363769531
ell 211, elapsed: 0.00043511390686035156
ell 210, elapsed: 0.0004248619079589844
ell 209, elapsed: 0.00044798851013183594
ell 208, elapsed: 0.00042891502380371094
ell 207, elapsed: 0.0004429817199707031
ell 206, elapsed: 0.000431060791015625
ell 205, elapsed: 0.00043010711669921875
ell 204, elapsed: 0.00042891502380371094
ell 203, elapsed: 0.0004279613494873047
ell 202, elapsed: 0.0004260540008544922
ell 201, elapsed: 0.00044798851013183594
ell 200, elapsed: 0.00042819976806640625
ell 199, elapsed: 0.00043392181396484375
ell 198, elapsed: 0.00042319297790527344
ell 197, elapsed: 0.00042510032653808594
ell 196, elapsed: 0.00043511390686035156
ell 195, elapsed: 0.0004379749298095703
ell 194, elapsed: 0.00043392181396484375
ell 193, elapsed: 0.00045609474182128906
ell 192, elapsed: 0.0004279613494873047
ell 191, elapsed: 0.0004279613494873047
ell 190, elapsed: 0.00043487548828125
ell 189, elapsed: 0.00043201446533203125
ell 188, elapsed: 0.00043201446533203125
ell 187, elapsed: 0.000431060791015625
ell 186, elapsed: 0.00042819976806640625
ell 185, elapsed: 0.0004248619079589844
ell 184, elapsed: 0.0004329681396484375
ell 183, elapsed: 0.0004241466522216797
ell 182, elapsed: 0.00043201446533203125
ell 181, elapsed: 0.0004248619079589844
ell 180, elapsed: 0.00043582916259765625
ell 179, elapsed: 0.00043487548828125
ell 178, elapsed: 0.00043511390686035156
ell 177, elapsed: 0.00043511390686035156
ell 176, elapsed: 0.0004489421844482422
ell 175, elapsed: 0.00043511390686035156
ell 174, elapsed: 0.0004360675811767578
ell 173, elapsed: 0.0004229545593261719
ell 172, elapsed: 0.00043392181396484375
ell 171, elapsed: 0.0004241466522216797
ell 170, elapsed: 0.00042700767517089844
ell 169, elapsed: 0.0004279613494873047
ell 168, elapsed: 0.00044608116149902344
ell 167, elapsed: 0.00043010711669921875
ell 166, elapsed: 0.00042891502380371094
ell 165, elapsed: 0.0004239082336425781
ell 164, elapsed: 0.0004379749298095703
ell 163, elapsed: 0.0004279613494873047
ell 162, elapsed: 0.0004279613494873047
ell 161, elapsed: 0.0004260540008544922
ell 160, elapsed: 0.0004410743713378906
ell 159, elapsed: 0.00043487548828125
ell 158, elapsed: 0.00042700767517089844
ell 157, elapsed: 0.0004279613494873047
ell 156, elapsed: 0.0004220008850097656
ell 155, elapsed: 0.0004429817199707031
ell 154, elapsed: 0.00042700767517089844
ell 153, elapsed: 0.00042891502380371094
ell 152, elapsed: 0.00042700767517089844
ell 151, elapsed: 0.0004398822784423828
ell 150, elapsed: 0.00043201446533203125
ell 149, elapsed: 0.0004239082336425781
ell 148, elapsed: 0.0004239082336425781
ell 147, elapsed: 0.00043010711669921875
ell 146, elapsed: 0.0004260540008544922
ell 145, elapsed: 0.00042891502380371094
ell 144, elapsed: 0.00043201446533203125
ell 143, elapsed: 0.00043892860412597656
ell 142, elapsed: 0.00044798851013183594
ell 141, elapsed: 0.0004229545593261719
ell 140, elapsed: 0.00043201446533203125
ell 139, elapsed: 0.0004229545593261719
ell 138, elapsed: 0.0004279613494873047
ell 137, elapsed: 0.000431060791015625
ell 136, elapsed: 0.000431060791015625
ell 135, elapsed: 0.00045108795166015625
ell 134, elapsed: 0.0004279613494873047
ell 133, elapsed: 0.00042700767517089844
ell 132, elapsed: 0.00042891502380371094
ell 131, elapsed: 0.00042510032653808594
ell 130, elapsed: 0.000431060791015625
ell 129, elapsed: 0.0004279613494873047
ell 128, elapsed: 0.0004279613494873047
ell 127, elapsed: 0.0004258155822753906
ell 126, elapsed: 0.0004417896270751953
ell 125, elapsed: 0.00043511390686035156
ell 124, elapsed: 0.00044083595275878906
ell 123, elapsed: 0.00043010711669921875
ell 122, elapsed: 0.00043487548828125
ell 121, elapsed: 0.0004260540008544922
ell 120, elapsed: 0.00043511390686035156
ell 119, elapsed: 0.0004298686981201172
ell 118, elapsed: 0.00045299530029296875
ell 117, elapsed: 0.0004298686981201172
ell 116, elapsed: 0.00042700767517089844
ell 115, elapsed: 0.00042891502380371094
ell 114, elapsed: 0.000431060791015625
ell 113, elapsed: 0.00043201446533203125
ell 112, elapsed: 0.00043392181396484375
ell 111, elapsed: 0.0004260540008544922
ell 110, elapsed: 0.0004489421844482422
ell 109, elapsed: 0.0004229545593261719
ell 108, elapsed: 0.00043892860412597656
ell 107, elapsed: 0.0004420280456542969
ell 106, elapsed: 0.00043201446533203125
ell 105, elapsed: 0.0004410743713378906
ell 104, elapsed: 0.00043201446533203125
ell 103, elapsed: 0.0004298686981201172
ell 102, elapsed: 0.0004229545593261719
ell 101, elapsed: 0.0004429817199707031
ell 100, elapsed: 0.0004291534423828125
ell 99, elapsed: 0.0004329681396484375
ell 98, elapsed: 0.0004420280456542969
ell 97, elapsed: 0.0004239082336425781
ell 96, elapsed: 0.0004410743713378906
ell 95, elapsed: 0.00042700767517089844
ell 94, elapsed: 0.0004279613494873047
ell 93, elapsed: 0.0004470348358154297
ell 92, elapsed: 0.00042700767517089844
ell 91, elapsed: 0.00043082237243652344
ell 90, elapsed: 0.0004229545593261719
ell 89, elapsed: 0.00042700767517089844
ell 88, elapsed: 0.00042891502380371094
ell 87, elapsed: 0.0004279613494873047
ell 86, elapsed: 0.00042700767517089844
ell 85, elapsed: 0.0004410743713378906
ell 84, elapsed: 0.00042510032653808594
ell 83, elapsed: 0.00043201446533203125
ell 82, elapsed: 0.0004260540008544922
ell 81, elapsed: 0.0004341602325439453
ell 80, elapsed: 0.0004241466522216797
ell 79, elapsed: 0.00043201446533203125
ell 78, elapsed: 0.00042891502380371094
ell 77, elapsed: 0.000431060791015625
ell 76, elapsed: 0.0004439353942871094
ell 75, elapsed: 0.00042700767517089844
ell 74, elapsed: 0.0004279613494873047
ell 73, elapsed: 0.000431060791015625
ell 72, elapsed: 0.00043010711669921875
ell 71, elapsed: 0.00043487548828125
ell 70, elapsed: 0.00043582916259765625
ell 69, elapsed: 0.00043702125549316406
ell 68, elapsed: 0.00045108795166015625
ell 67, elapsed: 0.00043010711669921875
ell 66, elapsed: 0.0004341602325439453
ell 65, elapsed: 0.00043010711669921875
ell 64, elapsed: 0.0004329681396484375
ell 63, elapsed: 0.000431060791015625
ell 62, elapsed: 0.00043010711669921875
ell 61, elapsed: 0.000431060791015625
ell 60, elapsed: 0.00044798851013183594
ell 59, elapsed: 0.00043392181396484375
ell 58, elapsed: 0.0004279613494873047
ell 57, elapsed: 0.0004329681396484375
ell 56, elapsed: 0.00043392181396484375
ell 55, elapsed: 0.0004291534423828125
ell 54, elapsed: 0.00043320655822753906
ell 53, elapsed: 0.0004279613494873047
ell 52, elapsed: 0.00043082237243652344
ell 51, elapsed: 0.0004360675811767578
ell 50, elapsed: 0.0004379749298095703
ell 49, elapsed: 0.0004391670227050781
ell 48, elapsed: 0.000431060791015625
ell 47, elapsed: 0.00043201446533203125
ell 46, elapsed: 0.00043487548828125
ell 45, elapsed: 0.0004298686981201172
ell 44, elapsed: 0.00043511390686035156
ell 43, elapsed: 0.00043702125549316406
ell 42, elapsed: 0.00043392181396484375
ell 41, elapsed: 0.0004401206970214844
ell 40, elapsed: 0.00042891502380371094
ell 39, elapsed: 0.000431060791015625
ell 38, elapsed: 0.00043082237243652344
ell 37, elapsed: 0.0004279613494873047
ell 36, elapsed: 0.00042819976806640625
ell 35, elapsed: 0.0004470348358154297
ell 34, elapsed: 0.0004279613494873047
ell 33, elapsed: 0.0004329681396484375
ell 32, elapsed: 0.0004360675811767578
ell 31, elapsed: 0.0004329681396484375
ell 30, elapsed: 0.000431060791015625
ell 29, elapsed: 0.0004317760467529297
ell 28, elapsed: 0.00043010711669921875
ell 27, elapsed: 0.0004439353942871094
ell 26, elapsed: 0.0004329681396484375
ell 25, elapsed: 0.0004329681396484375
ell 24, elapsed: 0.00042891502380371094
ell 23, elapsed: 0.00043201446533203125
ell 22, elapsed: 0.00043392181396484375
ell 21, elapsed: 0.0004367828369140625
ell 20, elapsed: 0.00043392181396484375
ell 19, elapsed: 0.0004360675811767578
ell 18, elapsed: 0.0004448890686035156
ell 17, elapsed: 0.0004360675811767578
ell 16, elapsed: 0.0004298686981201172
ell 15, elapsed: 0.0004329681396484375
ell 14, elapsed: 0.0004341602325439453
ell 13, elapsed: 0.0004298686981201172
ell 12, elapsed: 0.00043010711669921875
ell 11, elapsed: 0.00043201446533203125
ell 10, elapsed: 0.0004420280456542969
ell 9, elapsed: 0.0004379749298095703
ell 8, elapsed: 0.000431060791015625
ell 7, elapsed: 0.0004360675811767578
ell 6, elapsed: 0.0004258155822753906
ell 5, elapsed: 0.00043511390686035156
ell 4, elapsed: 0.00042700767517089844
ell 3, elapsed: 0.00042819976806640625
ell 2, elapsed: 0.0004470348358154297
ell 1, elapsed: 0.00043201446533203125
ell 0, elapsed: 0.00043702125549316406
  0.745152 seconds (103.54 k allocations: 3.969 MiB)
elapsed: 0.0005819797515869141
step:          0.06501 sec (0 allocations: 0 byte, 0.0% gc time)
swapping:      0.000697 sec (0 allocations: 0 byte, 0.0% gc time)
calc_Mellell!: 0.011912 sec (0 allocations: 0 byte, 0.0% gc time)
  t0 :  0.003012 sec (0 allocations: 0 byte, 0.0% gc time)
  tm2 : 0.09726 sec (0 allocations: 0 byte, 0.0% gc time)
  tm2s: 0.001862 sec (0 allocations: 0 byte, 0.0% gc time)
  tm4 : 0.246786 sec (0 allocations: 0 byte, 0.0% gc time)
  tp2 : 0.0 sec (0 allocations: 0 byte, 0.0% gc time)
  tp2s: 0.0 sec (0 allocations: 0 byte, 0.0% gc time)
  tp4 : 0.0 sec (0 allocations: 0 byte, 0.0% gc time)
calc_wtdll!:   0.382612 sec (9.9 k allocations: 1.047 MB, 0.0% gc time)
calc_wljj!:    0.037254 sec (689 allocations: 10.766 KB, 0.0% gc time)
mult_prefac!:  0.0 sec (0 allocations: 0 byte, 0.0% gc time)
convert:       0.0 sec (0 allocations: 0 byte, 0.0% gc time)
write:         0.041281 sec (0 allocations: 0 byte, 0.0% gc time)
test_rand_2f1: 0.0 sec (0 allocations: 0 byte, 0.0% gc time)
Closing outfile out/Ml21-cache.bin...   0.000012 seconds
  0.001040 seconds (36 allocations: 27.953 KiB)
make_phi():   0.003783 seconds (9.47 k allocations: 257.875 KiB)
  0.333800 seconds (141.90 k allocations: 3.483 MiB)
tskip:       0.001912 sec (0 allocations: 0 byte, 0.0% gc time)
tread:       0.035628 sec (17 allocations: 10.641 KB, 0.0% gc time)
tmultphi:    0.023756 sec (0 allocations: 0 byte, 0.0% gc time)
tbrfft:      0.072907 sec (0 allocations: 0 byte, 0.0% gc time)
tmultprefac: 0.078099 sec (0 allocations: 0 byte, 0.0% gc time)
toutfunc:    0.115887 sec (127.507 k allocations: 2.312 MB, 0.0% gc time)
Testing R=1.0 ... passed
Calculating fmax: 
  dlrec    = 4
  dlrecRg1 = -4
  q=1.1, R=0.9:	  0.572391 seconds (105.76 k allocations: 15.287 MiB, 2.92% gc time)

  0.573307 seconds (105.99 k allocations: 15.324 MiB, 2.91% gc time)
ℓ = 1202
Δℓ = 4
ΔℓRg1 = -4
N = 1600
q = 1.1
kmin = 1.0e-5
kmax = 100000.00000000004
χ0 = 0.023029999999999995
RR = RR.tsv
ℓmax = ℓmax.bin
f21 = f21.bin
kmin = 1.0e-5
kmax = 100000.0
dlrec    = 4
dlrecRg1 = -4
Output size: 5741568 bytes = 0.005347251892089844 GiB
Output size: 51264 bytes = 4.774332046508789e-5 GiB
Reading 'out/F21EllCache'...   0.001228 seconds (197 allocations: 84.203 KiB)
ellmax: 1202
lmaxcache: 1202
fell[:,1,1] = ComplexF64[1.3482014726274674e-57 - 3.302141236118086e-73im, 1.357860004724329e-57 - 3.3257978169518355e-73im]
ell 1202, elapsed: 9.202957153320312e-5
ell 1201, elapsed: 0.00043010711669921875
ell 1200, elapsed: 0.0004317760467529297
ell 1199, elapsed: 0.0004329681396484375
ell 1198, elapsed: 0.0004298686981201172
ell 1002, elapsed: 0.011342048645019531
ell 1001, elapsed: 0.0004150867462158203
ell 1000, elapsed: 0.0004131793975830078
ell 999, elapsed: 0.0004100799560546875
ell 998, elapsed: 0.0005769729614257812
ell 902, elapsed: 0.005836963653564453
ell 901, elapsed: 0.0004279613494873047
ell 900, elapsed: 0.00043010711669921875
ell 899, elapsed: 0.0005819797515869141
ell 898, elapsed: 0.0004410743713378906
ell 802, elapsed: 0.005793094635009766
ell 801, elapsed: 0.0004830360412597656
ell 800, elapsed: 0.00043010711669921875
ell 799, elapsed: 0.00042510032653808594
ell 798, elapsed: 0.0004169940948486328
ell 702, elapsed: 0.005805015563964844
ell 701, elapsed: 0.00043892860412597656
ell 700, elapsed: 0.0004279613494873047
ell 699, elapsed: 0.0004260540008544922
ell 698, elapsed: 0.00042891502380371094
ell 602, elapsed: 0.005800008773803711
ell 601, elapsed: 0.0006890296936035156
ell 600, elapsed: 0.0004382133483886719
ell 599, elapsed: 0.00041484832763671875
ell 598, elapsed: 0.00041413307189941406
ell 502, elapsed: 0.005825996398925781
ell 501, elapsed: 0.0004150867462158203
ell 500, elapsed: 0.0006289482116699219
ell 499, elapsed: 0.0004150867462158203
ell 498, elapsed: 0.00042819976806640625
ell 402, elapsed: 0.005801200866699219
ell 401, elapsed: 0.0005180835723876953
ell 400, elapsed: 0.00044417381286621094
ell 399, elapsed: 0.0006008148193359375
ell 398, elapsed: 0.0004367828369140625
ell 302, elapsed: 0.005799055099487305
ell 301, elapsed: 0.00043702125549316406
ell 300, elapsed: 0.0004508495330810547
ell 299, elapsed: 0.0004150867462158203
ell 298, elapsed: 0.0004150867462158203
ell 202, elapsed: 0.005798816680908203
ell 201, elapsed: 0.0006880760192871094
ell 200, elapsed: 0.00042700767517089844
ell 199, elapsed: 0.0004169940948486328
ell 198, elapsed: 0.0004642009735107422
ell 152, elapsed: 0.003049135208129883
ell 151, elapsed: 0.00047016143798828125
ell 150, elapsed: 0.0004630088806152344
ell 149, elapsed: 0.00038313865661621094
ell 148, elapsed: 0.0003771781921386719
ell 127, elapsed: 0.001561880111694336
ell 126, elapsed: 0.0004191398620605469
ell 125, elapsed: 0.00037097930908203125
ell 124, elapsed: 0.0003821849822998047
ell 123, elapsed: 0.00037097930908203125
ell 114, elapsed: 0.0008869171142578125
ell 113, elapsed: 0.00037217140197753906
ell 112, elapsed: 0.000370025634765625
ell 111, elapsed: 0.00037097930908203125
ell 110, elapsed: 0.00037217140197753906
ell 102, elapsed: 0.0008389949798583984
ell 101, elapsed: 0.00037097930908203125
ell 100, elapsed: 0.000370025634765625
ell 99, elapsed: 0.00037097930908203125
ell 98, elapsed: 0.0003719329833984375
ell 97, elapsed: 0.0005578994750976562
ell 96, elapsed: 0.0005509853363037109
ell 95, elapsed: 0.0004379749298095703
ell 94, elapsed: 0.0005619525909423828
ell 93, elapsed: 0.0005459785461425781
ell 92, elapsed: 0.0004329681396484375
ell 91, elapsed: 0.0005369186401367188
ell 90, elapsed: 0.0006091594696044922
ell 89, elapsed: 0.0007121562957763672
ell 88, elapsed: 0.0004620552062988281
ell 87, elapsed: 0.0005280971527099609
ell 86, elapsed: 0.0005559921264648438
ell 85, elapsed: 0.0006899833679199219
ell 84, elapsed: 0.0004889965057373047
ell 83, elapsed: 0.0005040168762207031
ell 82, elapsed: 0.0004451274871826172
ell 81, elapsed: 0.0004649162292480469
ell 80, elapsed: 0.0005059242248535156
ell 79, elapsed: 0.0004520416259765625
ell 78, elapsed: 0.0005040168762207031
ell 77, elapsed: 0.0005002021789550781
ell 76, elapsed: 0.000453948974609375
ell 75, elapsed: 0.0004448890686035156
ell 74, elapsed: 0.0006799697875976562
ell 73, elapsed: 0.0004870891571044922
ell 72, elapsed: 0.0006268024444580078
ell 71, elapsed: 0.0006718635559082031
ell 70, elapsed: 0.0006670951843261719
ell 69, elapsed: 0.0004889965057373047
ell 68, elapsed: 0.00045108795166015625
ell 67, elapsed: 0.0006248950958251953
ell 66, elapsed: 0.0004858970642089844
ell 65, elapsed: 0.00043392181396484375
ell 64, elapsed: 0.0004429817199707031
ell 63, elapsed: 0.0006258487701416016
ell 62, elapsed: 0.0004811286926269531
ell 61, elapsed: 0.0004620552062988281
ell 60, elapsed: 0.00043082237243652344
ell 59, elapsed: 0.0005478858947753906
ell 58, elapsed: 0.0005931854248046875
ell 57, elapsed: 0.000431060791015625
ell 56, elapsed: 0.000431060791015625
ell 55, elapsed: 0.0004317760467529297
ell 54, elapsed: 0.00044798851013183594
ell 53, elapsed: 0.0004329681396484375
ell 52, elapsed: 0.00043511390686035156
ell 51, elapsed: 0.0004341602325439453
ell 50, elapsed: 0.000431060791015625
ell 49, elapsed: 0.0004360675811767578
ell 48, elapsed: 0.000431060791015625
ell 47, elapsed: 0.00043487548828125
ell 46, elapsed: 0.00043392181396484375
ell 45, elapsed: 0.0004558563232421875
ell 44, elapsed: 0.000453948974609375
ell 43, elapsed: 0.0004470348358154297
ell 42, elapsed: 0.0004379749298095703
ell 41, elapsed: 0.00043392181396484375
ell 40, elapsed: 0.00043487548828125
ell 39, elapsed: 0.0004401206970214844
ell 38, elapsed: 0.00043392181396484375
ell 37, elapsed: 0.00045180320739746094
ell 36, elapsed: 0.0004329681396484375
ell 35, elapsed: 0.00043392181396484375
ell 34, elapsed: 0.00043511390686035156
ell 33, elapsed: 0.00043487548828125
ell 32, elapsed: 0.00043511390686035156
ell 31, elapsed: 0.00043487548828125
ell 30, elapsed: 0.0004341602325439453
ell 29, elapsed: 0.0004570484161376953
ell 28, elapsed: 0.00043511390686035156
ell 27, elapsed: 0.0004401206970214844
ell 26, elapsed: 0.00043702125549316406
ell 25, elapsed: 0.00043392181396484375
ell 24, elapsed: 0.00043892860412597656
ell 23, elapsed: 0.0004329681396484375
ell 22, elapsed: 0.0004379749298095703
ell 21, elapsed: 0.00045013427734375
ell 20, elapsed: 0.0004398822784423828
ell 19, elapsed: 0.00043392181396484375
ell 18, elapsed: 0.0004360675811767578
ell 17, elapsed: 0.0004379749298095703
ell 16, elapsed: 0.00043511390686035156
ell 15, elapsed: 0.00043702125549316406
ell 14, elapsed: 0.00043702125549316406
ell 13, elapsed: 0.00044798851013183594
ell 12, elapsed: 0.00044417381286621094
ell 11, elapsed: 0.0004360675811767578
ell 10, elapsed: 0.00043892860412597656
ell 9, elapsed: 0.00043702125549316406
ell 8, elapsed: 0.0004379749298095703
ell 7, elapsed: 0.0004391670227050781
ell 6, elapsed: 0.00043702125549316406
ell 5, elapsed: 0.00043702125549316406
ell 4, elapsed: 0.00045108795166015625
ell 3, elapsed: 0.0004360675811767578
ell 2, elapsed: 0.0004401206970214844
ell 1, elapsed: 0.00043892860412597656
ell 0, elapsed: 0.0004410743713378906
  0.156279 seconds (19.55 k allocations: 845.266 KiB)
elapsed: 0.000537872314453125
step:          0.065052 sec (0 allocations: 0 byte, 0.0% gc time)
swapping:      0.000555 sec (0 allocations: 0 byte, 0.0% gc time)
calc_Mellell!: 0.002047 sec (0 allocations: 0 byte, 0.0% gc time)
  t0 :  0.000413 sec (0 allocations: 0 byte, 0.0% gc time)
  tm2 : 0.013657 sec (0 allocations: 0 byte, 0.0% gc time)
  tm2s: 0.000381 sec (0 allocations: 0 byte, 0.0% gc time)
  tm4 : 0.037552 sec (0 allocations: 0 byte, 0.0% gc time)
  tp2 : 0.0 sec (0 allocations: 0 byte, 0.0% gc time)
  tp2s: 0.0 sec (0 allocations: 0 byte, 0.0% gc time)
  tp4 : 0.0 sec (0 allocations: 0 byte, 0.0% gc time)
calc_wtdll!:   0.052488 sec (1.344 k allocations: 147.0 KB, 0.0% gc time)
calc_wljj!:    0.003832 sec (6 allocations: 96 byte, 0.0% gc time)
mult_prefac!:  0.0 sec (0 allocations: 0 byte, 0.0% gc time)
convert:       0.0 sec (0 allocations: 0 byte, 0.0% gc time)
write:         0.003781 sec (0 allocations: 0 byte, 0.0% gc time)
test_rand_2f1: 0.0 sec (0 allocations: 0 byte, 0.0% gc time)
Closing outfile out/Ml21-cache.bin...   0.000007 seconds
  0.000367 seconds (36 allocations: 27.953 KiB)
make_phi():   0.002925 seconds (9.47 k allocations: 257.875 KiB)
  0.021103 seconds (11.65 k allocations: 308.688 KiB)
tskip:       2.2e-5 sec (0 allocations: 0 byte, 0.0% gc time)
tread:       0.002619 sec (17 allocations: 2.125 KB, 0.0% gc time)
tmultphi:    0.00151 sec (0 allocations: 0 byte, 0.0% gc time)
tbrfft:      0.004852 sec (0 allocations: 0 byte, 0.0% gc time)
tmultprefac: 0.004816 sec (0 allocations: 0 byte, 0.0% gc time)
toutfunc:    0.006956 sec (10.304 k allocations: 196.0 KB, 0.0% gc time)
Testing R=0.9 ... passed
Calculating fmax: 
  dlrec    = 4
  dlrecRg1 = -4
  q=1.1, R=0.8:	  0.385171 seconds (103.25 k allocations: 14.856 MiB)

  0.385496 seconds (103.48 k allocations: 14.893 MiB)
ℓ = 1202
Δℓ = 4
ΔℓRg1 = -4
N = 1600
q = 1.1
kmin = 1.0e-5
kmax = 100000.00000000004
χ0 = 0.023029999999999995
RR = RR.tsv
ℓmax = ℓmax.bin
f21 = f21.bin
kmin = 1.0e-5
kmax = 100000.0
dlrec    = 4
dlrecRg1 = -4
Output size: 5741568 bytes = 0.005347251892089844 GiB
Output size: 51264 bytes = 4.774332046508789e-5 GiB
Reading 'out/F21EllCache'...   0.001115 seconds (197 allocations: 84.203 KiB)
ellmax: 1202
lmaxcache: 1202
fell[:,1,1] = ComplexF64[7.519068145690986e-120 - 1.8416405474382574e-135im, 7.541664537386155e-120 - 1.847175067190611e-135im]
ell 1202, elapsed: 3.0994415283203125e-5
ell 1201, elapsed: 0.0004918575286865234
ell 1200, elapsed: 0.00061798095703125
ell 1199, elapsed: 0.0005280971527099609
ell 1198, elapsed: 0.0006630420684814453
ell 1002, elapsed: 0.010519981384277344
ell 1001, elapsed: 0.0004811286926269531
ell 1000, elapsed: 0.0006310939788818359
ell 999, elapsed: 0.0005750656127929688
ell 998, elapsed: 0.00037789344787597656
ell 902, elapsed: 0.006153106689453125
ell 901, elapsed: 0.0004458427429199219
ell 900, elapsed: 0.0003859996795654297
ell 899, elapsed: 0.00038695335388183594
ell 898, elapsed: 0.0003788471221923828
ell 802, elapsed: 0.005383968353271484
ell 801, elapsed: 0.0005640983581542969
ell 800, elapsed: 0.0006058216094970703
ell 799, elapsed: 0.0005888938903808594
ell 798, elapsed: 0.0004630088806152344
ell 702, elapsed: 0.005480051040649414
ell 701, elapsed: 0.0004150867462158203
ell 700, elapsed: 0.00037407875061035156
ell 699, elapsed: 0.00037598609924316406
ell 698, elapsed: 0.0003859996795654297
ell 602, elapsed: 0.0054171085357666016
ell 601, elapsed: 0.00043702125549316406
ell 600, elapsed: 0.00039386749267578125
ell 599, elapsed: 0.0003859996795654297
ell 598, elapsed: 0.0004010200500488281
ell 502, elapsed: 0.005763053894042969
ell 501, elapsed: 0.0005471706390380859
ell 500, elapsed: 0.0005757808685302734
ell 499, elapsed: 0.0005779266357421875
ell 498, elapsed: 0.0005898475646972656
ell 402, elapsed: 0.006226062774658203
ell 401, elapsed: 0.0004901885986328125
ell 400, elapsed: 0.0006058216094970703
ell 399, elapsed: 0.0005211830139160156
ell 398, elapsed: 0.0005140304565429688
ell 302, elapsed: 0.00568389892578125
ell 301, elapsed: 0.00038504600524902344
ell 300, elapsed: 0.0004010200500488281
ell 299, elapsed: 0.0004999637603759766
ell 298, elapsed: 0.0005438327789306641
ell 202, elapsed: 0.00564885139465332
ell 201, elapsed: 0.0005052089691162109
ell 200, elapsed: 0.0005249977111816406
ell 199, elapsed: 0.0003719329833984375
ell 198, elapsed: 0.00045299530029296875
ell 152, elapsed: 0.0031180381774902344
ell 151, elapsed: 0.00037288665771484375
ell 150, elapsed: 0.00037097930908203125
ell 149, elapsed: 0.0003609657287597656
ell 148, elapsed: 0.0003650188446044922
ell 127, elapsed: 0.001550912857055664
ell 126, elapsed: 0.00036597251892089844
ell 125, elapsed: 0.0005838871002197266
ell 124, elapsed: 0.0006120204925537109
ell 123, elapsed: 0.0004849433898925781
ell 114, elapsed: 0.001203775405883789
ell 113, elapsed: 0.0003910064697265625
ell 112, elapsed: 0.00038886070251464844
ell 111, elapsed: 0.00046706199645996094
ell 110, elapsed: 0.0005829334259033203
ell 102, elapsed: 0.0009191036224365234
ell 101, elapsed: 0.00037407875061035156
ell 100, elapsed: 0.0005099773406982422
ell 99, elapsed: 0.0004899501800537109
ell 98, elapsed: 0.0005021095275878906
ell 97, elapsed: 0.0005879402160644531
ell 96, elapsed: 0.0006339550018310547
ell 95, elapsed: 0.0004799365997314453
ell 94, elapsed: 0.0005919933319091797
ell 93, elapsed: 0.0006840229034423828
ell 92, elapsed: 0.0007200241088867188
ell 91, elapsed: 0.0006899833679199219
ell 90, elapsed: 0.0006060600280761719
ell 89, elapsed: 0.0004360675811767578
ell 88, elapsed: 0.0006310939788818359
ell 87, elapsed: 0.0004889965057373047
ell 86, elapsed: 0.0004398822784423828
ell 85, elapsed: 0.00043010711669921875
ell 84, elapsed: 0.00043201446533203125
ell 83, elapsed: 0.00042510032653808594
ell 82, elapsed: 0.0004379749298095703
ell 81, elapsed: 0.00042510032653808594
ell 80, elapsed: 0.00043201446533203125
ell 79, elapsed: 0.00043201446533203125
ell 78, elapsed: 0.00042700767517089844
ell 77, elapsed: 0.0005629062652587891
ell 76, elapsed: 0.0005779266357421875
ell 75, elapsed: 0.0004448890686035156
ell 74, elapsed: 0.0005960464477539062
ell 73, elapsed: 0.0005259513854980469
ell 72, elapsed: 0.000598907470703125
ell 71, elapsed: 0.0007359981536865234
ell 70, elapsed: 0.0007038116455078125
ell 69, elapsed: 0.0005879402160644531
ell 68, elapsed: 0.0007650852203369141
ell 67, elapsed: 0.000659942626953125
ell 66, elapsed: 0.0005538463592529297
ell 65, elapsed: 0.0007851123809814453
ell 64, elapsed: 0.0007288455963134766
ell 63, elapsed: 0.0005109310150146484
ell 62, elapsed: 0.0005099773406982422
ell 61, elapsed: 0.0007169246673583984
ell 60, elapsed: 0.0007178783416748047
ell 59, elapsed: 0.0005421638488769531
ell 58, elapsed: 0.0007519721984863281
ell 57, elapsed: 0.0005371570587158203
[...]
ell 789, elapsed: 0.0009200572967529297
ell 788, elapsed: 0.0008759498596191406
ell 782, elapsed: 0.0018620491027832031
ell 781, elapsed: 0.0007867813110351562
ell 780, elapsed: 0.001024007797241211
ell 779, elapsed: 0.0009291172027587891
ell 778, elapsed: 0.000926971435546875
ell 772, elapsed: 0.0019071102142333984
ell 771, elapsed: 0.0007908344268798828
ell 770, elapsed: 0.0008349418640136719
ell 769, elapsed: 0.0008349418640136719
ell 768, elapsed: 0.0012369155883789062
ell 762, elapsed: 0.001909017562866211
ell 761, elapsed: 0.0011479854583740234
ell 760, elapsed: 0.00084686279296875
ell 759, elapsed: 0.0008399486541748047
ell 758, elapsed: 0.0008370876312255859
ell 752, elapsed: 0.0025107860565185547
ell 751, elapsed: 0.001013040542602539
ell 750, elapsed: 0.0010669231414794922
ell 749, elapsed: 0.001043081283569336
ell 748, elapsed: 0.0010619163513183594
ell 742, elapsed: 0.0019609928131103516
ell 741, elapsed: 0.0007901191711425781
ell 740, elapsed: 0.0009970664978027344
ell 739, elapsed: 0.0009670257568359375
ell 738, elapsed: 0.0009732246398925781
ell 732, elapsed: 0.002048015594482422
ell 731, elapsed: 0.0008759498596191406
ell 730, elapsed: 0.0009257793426513672
ell 729, elapsed: 0.0009229183197021484
ell 728, elapsed: 0.0009810924530029297
ell 722, elapsed: 0.0020308494567871094
ell 721, elapsed: 0.0008490085601806641
ell 720, elapsed: 0.0008380413055419922
ell 719, elapsed: 0.0008339881896972656
ell 718, elapsed: 0.0008380413055419922
ell 712, elapsed: 0.0020771026611328125
ell 711, elapsed: 0.0008189678192138672
ell 710, elapsed: 0.0008399486541748047
ell 709, elapsed: 0.0008358955383300781
ell 708, elapsed: 0.0010180473327636719
ell 702, elapsed: 0.0019600391387939453
ell 701, elapsed: 0.0008978843688964844
ell 700, elapsed: 0.0009729862213134766
ell 699, elapsed: 0.0009701251983642578
ell 698, elapsed: 0.0009701251983642578
ell 692, elapsed: 0.001918792724609375
ell 691, elapsed: 0.0007889270782470703
ell 690, elapsed: 0.0008389949798583984
ell 689, elapsed: 0.0009279251098632812
ell 688, elapsed: 0.0008461475372314453
ell 682, elapsed: 0.0018429756164550781
ell 681, elapsed: 0.0007920265197753906
ell 680, elapsed: 0.0009369850158691406
ell 679, elapsed: 0.0008399486541748047
ell 678, elapsed: 0.0008389949798583984
ell 672, elapsed: 0.001961946487426758
ell 671, elapsed: 0.0007920265197753906
ell 670, elapsed: 0.0008428096771240234
ell 669, elapsed: 0.0008330345153808594
ell 668, elapsed: 0.0009260177612304688
ell 662, elapsed: 0.0018448829650878906
ell 661, elapsed: 0.0007901191711425781
ell 660, elapsed: 0.0008399486541748047
ell 659, elapsed: 0.0008552074432373047
ell 658, elapsed: 0.0008349418640136719
ell 652, elapsed: 0.0018219947814941406
ell 651, elapsed: 0.0008730888366699219
ell 650, elapsed: 0.0008399486541748047
ell 649, elapsed: 0.0008330345153808594
ell 648, elapsed: 0.0008440017700195312
ell 642, elapsed: 0.0014271736145019531
ell 641, elapsed: 0.0007181167602539062
ell 640, elapsed: 0.0007240772247314453
ell 639, elapsed: 0.0007250308990478516
ell 638, elapsed: 0.0007331371307373047
ell 632, elapsed: 0.0013508796691894531
ell 631, elapsed: 0.0007338523864746094
ell 630, elapsed: 0.0007309913635253906
ell 629, elapsed: 0.0007479190826416016
ell 628, elapsed: 0.0009570121765136719
ell 622, elapsed: 0.0018320083618164062
ell 621, elapsed: 0.0007910728454589844
ell 620, elapsed: 0.000926971435546875
ell 619, elapsed: 0.0008389949798583984
ell 618, elapsed: 0.0008358955383300781
ell 612, elapsed: 0.0019578933715820312
ell 611, elapsed: 0.0007870197296142578
ell 610, elapsed: 0.0008339881896972656
ell 609, elapsed: 0.0008330345153808594
ell 608, elapsed: 0.0008349418640136719
ell 602, elapsed: 0.0019330978393554688
ell 601, elapsed: 0.0007941722869873047
ell 600, elapsed: 0.0008399486541748047
ell 599, elapsed: 0.0009329319000244141
ell 598, elapsed: 0.0008409023284912109
ell 592, elapsed: 0.0018491744995117188
ell 591, elapsed: 0.0009469985961914062
ell 590, elapsed: 0.0008370876312255859
ell 589, elapsed: 0.0008399486541748047
ell 588, elapsed: 0.0008380413055419922
ell 582, elapsed: 0.002004861831665039
ell 581, elapsed: 0.0007908344268798828
ell 580, elapsed: 0.0008378028869628906
ell 579, elapsed: 0.0008349418640136719
ell 578, elapsed: 0.0009329319000244141
ell 572, elapsed: 0.001850128173828125
ell 571, elapsed: 0.0007920265197753906
ell 570, elapsed: 0.0009510517120361328
ell 569, elapsed: 0.0008459091186523438
ell 568, elapsed: 0.0008440017700195312
ell 562, elapsed: 0.00197601318359375
ell 561, elapsed: 0.0007970333099365234
ell 560, elapsed: 0.0008409023284912109
ell 559, elapsed: 0.0008389949798583984
ell 558, elapsed: 0.0008380413055419922
ell 552, elapsed: 0.001953125
ell 551, elapsed: 0.0007929801940917969
ell 550, elapsed: 0.0008358955383300781
ell 549, elapsed: 0.0009248256683349609
ell 548, elapsed: 0.0008368492126464844
ell 542, elapsed: 0.0018329620361328125
ell 541, elapsed: 0.0008909702301025391
ell 540, elapsed: 0.0008449554443359375
ell 539, elapsed: 0.0008389949798583984
ell 538, elapsed: 0.0008358955383300781
ell 532, elapsed: 0.0019528865814208984
ell 531, elapsed: 0.000843048095703125
ell 530, elapsed: 0.0008411407470703125
ell 529, elapsed: 0.0008339881896972656
ell 528, elapsed: 0.0009381771087646484
ell 522, elapsed: 0.0018429756164550781
ell 521, elapsed: 0.0008020401000976562
ell 520, elapsed: 0.0009407997131347656
ell 519, elapsed: 0.000843048095703125
ell 518, elapsed: 0.0008399486541748047
ell 512, elapsed: 0.0019750595092773438
ell 511, elapsed: 0.0008258819580078125
ell 510, elapsed: 0.00084686279296875
ell 509, elapsed: 0.0008418560028076172
ell 508, elapsed: 0.0008389949798583984
ell 502, elapsed: 0.0019071102142333984
ell 501, elapsed: 0.0008521080017089844
ell 500, elapsed: 0.0008420944213867188
ell 499, elapsed: 0.0009391307830810547
ell 498, elapsed: 0.0008389949798583984
ell 492, elapsed: 0.0018870830535888672
ell 491, elapsed: 0.0008759498596191406
ell 490, elapsed: 0.0008459091186523438
ell 489, elapsed: 0.0008311271667480469
ell 488, elapsed: 0.0008380413055419922
ell 482, elapsed: 0.0019719600677490234
ell 481, elapsed: 0.0007920265197753906
ell 480, elapsed: 0.0008459091186523438
ell 479, elapsed: 0.0009160041809082031
ell 478, elapsed: 0.0008449554443359375
ell 472, elapsed: 0.0018420219421386719
ell 471, elapsed: 0.0007908344268798828
ell 470, elapsed: 0.0009529590606689453
ell 469, elapsed: 0.0008361339569091797
ell 468, elapsed: 0.0008420944213867188
ell 462, elapsed: 0.0019559860229492188
ell 461, elapsed: 0.0007989406585693359
ell 460, elapsed: 0.0008399486541748047
ell 459, elapsed: 0.0008380413055419922
ell 458, elapsed: 0.0009429454803466797
ell 452, elapsed: 0.001859903335571289
ell 451, elapsed: 0.0007879734039306641
ell 450, elapsed: 0.0008342266082763672
ell 449, elapsed: 0.0009238719940185547
ell 448, elapsed: 0.0008370876312255859
ell 442, elapsed: 0.0018589496612548828
ell 441, elapsed: 0.0009019374847412109
ell 440, elapsed: 0.0008440017700195312
ell 439, elapsed: 0.0008330345153808594
ell 438, elapsed: 0.0008378028869628906
ell 432, elapsed: 0.0019440650939941406
ell 431, elapsed: 0.0007891654968261719
ell 430, elapsed: 0.0008440017700195312
ell 429, elapsed: 0.0008330345153808594
ell 428, elapsed: 0.0008471012115478516
ell 422, elapsed: 0.0018420219421386719
ell 421, elapsed: 0.0008540153503417969
ell 420, elapsed: 0.000926971435546875
ell 419, elapsed: 0.0008380413055419922
ell 418, elapsed: 0.0008420944213867188
ell 412, elapsed: 0.0019609928131103516
ell 411, elapsed: 0.0008578300476074219
ell 410, elapsed: 0.0008370876312255859
ell 409, elapsed: 0.0008339881896972656
ell 408, elapsed: 0.0009250640869140625
ell 402, elapsed: 0.0018601417541503906
ell 401, elapsed: 0.0007901191711425781
ell 400, elapsed: 0.0008399486541748047
ell 399, elapsed: 0.0008409023284912109
ell 398, elapsed: 0.0008409023284912109
ell 392, elapsed: 0.0018429756164550781
ell 391, elapsed: 0.0008730888366699219
ell 390, elapsed: 0.000843048095703125
ell 389, elapsed: 0.0008418560028076172
ell 388, elapsed: 0.0008409023284912109
ell 382, elapsed: 0.001950979232788086
ell 381, elapsed: 0.0007920265197753906
ell 380, elapsed: 0.0008370876312255859
ell 379, elapsed: 0.000926971435546875
ell 378, elapsed: 0.0008521080017089844
ell 372, elapsed: 0.00185394287109375
ell 371, elapsed: 0.0007860660552978516
ell 370, elapsed: 0.0009441375732421875
ell 369, elapsed: 0.0008389949798583984
ell 368, elapsed: 0.0008389949798583984
ell 362, elapsed: 0.00197601318359375
ell 361, elapsed: 0.0007929801940917969
ell 360, elapsed: 0.0008480548858642578
ell 359, elapsed: 0.0008380413055419922
ell 358, elapsed: 0.0009539127349853516
ell 352, elapsed: 0.001873016357421875
ell 351, elapsed: 0.0008180141448974609
ell 350, elapsed: 0.0009360313415527344
ell 349, elapsed: 0.0008389949798583984
ell 348, elapsed: 0.0008440017700195312
ell 342, elapsed: 0.0018339157104492188
ell 341, elapsed: 0.0008859634399414062
ell 340, elapsed: 0.0008449554443359375
ell 339, elapsed: 0.0008349418640136719
ell 338, elapsed: 0.0008389949798583984
ell 332, elapsed: 0.001962900161743164
ell 331, elapsed: 0.0008502006530761719
ell 330, elapsed: 0.0008361339569091797
ell 329, elapsed: 0.0009322166442871094
ell 328, elapsed: 0.0008380413055419922
ell 322, elapsed: 0.0018630027770996094
ell 321, elapsed: 0.0010399818420410156
ell 320, elapsed: 0.00084686279296875
ell 319, elapsed: 0.0008361339569091797
ell 318, elapsed: 0.0008368492126464844
ell 312, elapsed: 0.0019829273223876953
ell 311, elapsed: 0.0007960796356201172
ell 310, elapsed: 0.000843048095703125
ell 309, elapsed: 0.0008411407470703125
ell 308, elapsed: 0.0009248256683349609
ell 302, elapsed: 0.0018398761749267578
ell 301, elapsed: 0.0008058547973632812
ell 300, elapsed: 0.0009400844573974609
ell 299, elapsed: 0.0008389949798583984
ell 298, elapsed: 0.0008380413055419922
ell 292, elapsed: 0.0019609928131103516
ell 291, elapsed: 0.0007970333099365234
ell 290, elapsed: 0.0008351802825927734
ell 289, elapsed: 0.0008358955383300781
ell 288, elapsed: 0.0008358955383300781
ell 282, elapsed: 0.0019540786743164062
ell 281, elapsed: 0.0007929801940917969
ell 280, elapsed: 0.0008440017700195312
ell 279, elapsed: 0.0009331703186035156
ell 278, elapsed: 0.0008361339569091797
ell 272, elapsed: 0.0018761157989501953
ell 271, elapsed: 0.0008950233459472656
ell 270, elapsed: 0.0008380413055419922
ell 269, elapsed: 0.0008411407470703125
ell 268, elapsed: 0.0008399486541748047
ell 262, elapsed: 0.0019838809967041016
ell 261, elapsed: 0.0007951259613037109
ell 260, elapsed: 0.0008380413055419922
ell 259, elapsed: 0.0008358955383300781
ell 258, elapsed: 0.0009291172027587891
ell 252, elapsed: 0.0018520355224609375
ell 251, elapsed: 0.0007920265197753906
ell 250, elapsed: 0.0009369850158691406
ell 249, elapsed: 0.0008411407470703125
ell 248, elapsed: 0.0008361339569091797
ell 242, elapsed: 0.001950979232788086
ell 241, elapsed: 0.0008490085601806641
ell 240, elapsed: 0.0008349418640136719
ell 239, elapsed: 0.0008339881896972656
ell 238, elapsed: 0.0008330345153808594
ell 232, elapsed: 0.0019540786743164062
ell 231, elapsed: 0.0008518695831298828
ell 230, elapsed: 0.0008389949798583984
ell 229, elapsed: 0.0007848739624023438
ell 228, elapsed: 0.0006320476531982422
ell 222, elapsed: 0.0011398792266845703
ell 221, elapsed: 0.0006310939788818359
ell 220, elapsed: 0.0006270408630371094
ell 219, elapsed: 0.0006611347198486328
ell 218, elapsed: 0.0006289482116699219
ell 212, elapsed: 0.0014119148254394531
ell 211, elapsed: 0.0011489391326904297
ell 210, elapsed: 0.0009298324584960938
ell 209, elapsed: 0.0006840229034423828
ell 208, elapsed: 0.0006148815155029297
ell 202, elapsed: 0.001132965087890625
ell 201, elapsed: 0.0006139278411865234
ell 200, elapsed: 0.0007040500640869141
ell 199, elapsed: 0.0006208419799804688
ell 198, elapsed: 0.0006270408630371094
ell 192, elapsed: 0.0011031627655029297
ell 191, elapsed: 0.0006160736083984375
ell 190, elapsed: 0.0011780261993408203
ell 189, elapsed: 0.0008499622344970703
ell 188, elapsed: 0.0010838508605957031
ell 182, elapsed: 0.0013570785522460938
ell 181, elapsed: 0.0008800029754638672
ell 180, elapsed: 0.0012259483337402344
ell 179, elapsed: 0.0008280277252197266
ell 178, elapsed: 0.0007970333099365234
ell 172, elapsed: 0.0013930797576904297
ell 171, elapsed: 0.0006978511810302734
ell 170, elapsed: 0.0006160736083984375
ell 169, elapsed: 0.0006940364837646484
ell 168, elapsed: 0.0006468296051025391
ell 162, elapsed: 0.0011811256408691406
ell 161, elapsed: 0.0006439685821533203
ell 160, elapsed: 0.0006399154663085938
ell 159, elapsed: 0.0007598400115966797
ell 158, elapsed: 0.0012350082397460938
ell 152, elapsed: 0.0017461776733398438
ell 151, elapsed: 0.0008540153503417969
ell 150, elapsed: 0.0006139278411865234
ell 149, elapsed: 0.0006091594696044922
ell 148, elapsed: 0.0007588863372802734
ell 142, elapsed: 0.001127004623413086
ell 141, elapsed: 0.0008420944213867188
ell 140, elapsed: 0.0008299350738525391
ell 139, elapsed: 0.0011560916900634766
ell 138, elapsed: 0.0011501312255859375
ell 132, elapsed: 0.0011849403381347656
ell 131, elapsed: 0.0006158351898193359
ell 130, elapsed: 0.0006120204925537109
ell 129, elapsed: 0.0006082057952880859
ell 128, elapsed: 0.0006129741668701172
ell 122, elapsed: 0.0015261173248291016
ell 121, elapsed: 0.0010080337524414062
ell 120, elapsed: 0.0010089874267578125
ell 119, elapsed: 0.0009710788726806641
ell 118, elapsed: 0.0009751319885253906
ell 112, elapsed: 0.0017638206481933594
ell 111, elapsed: 0.0009560585021972656
ell 110, elapsed: 0.000823974609375
ell 109, elapsed: 0.0007898807525634766
ell 108, elapsed: 0.0008640289306640625
ell 102, elapsed: 0.0015079975128173828
ell 101, elapsed: 0.005270957946777344
ell 100, elapsed: 0.004938840866088867
ell 99, elapsed: 0.0047190189361572266
ell 98, elapsed: 0.0049130916595458984
ell 92, elapsed: 0.008485078811645508
ell 91, elapsed: 0.00464320182800293
ell 90, elapsed: 0.005015850067138672
ell 89, elapsed: 0.0040318965911865234
ell 88, elapsed: 0.004316091537475586
ell 82, elapsed: 0.0077588558197021484
ell 81, elapsed: 0.0039060115814208984
ell 80, elapsed: 0.004271030426025391
ell 79, elapsed: 0.004068851470947266
ell 78, elapsed: 0.004770040512084961
ell 72, elapsed: 0.007951021194458008
ell 71, elapsed: 0.004841804504394531
ell 70, elapsed: 0.003461122512817383
ell 69, elapsed: 0.0034852027893066406
ell 68, elapsed: 0.0034618377685546875
ell 62, elapsed: 0.006206035614013672
ell 61, elapsed: 0.003422975540161133
ell 60, elapsed: 0.00344085693359375
ell 59, elapsed: 0.003451108932495117
ell 58, elapsed: 0.0033669471740722656
ell 52, elapsed: 0.006166934967041016
ell 51, elapsed: 0.007399082183837891
ell 50, elapsed: 0.003422975540161133
ell 49, elapsed: 0.003381013870239258
ell 48, elapsed: 0.0074040889739990234
ell 42, elapsed: 0.0061359405517578125
ell 41, elapsed: 0.003345966339111328
ell 40, elapsed: 0.003371000289916992
ell 39, elapsed: 0.0033991336822509766
ell 38, elapsed: 0.003362894058227539
ell 32, elapsed: 0.006088972091674805
ell 31, elapsed: 0.0073740482330322266
ell 30, elapsed: 0.0034019947052001953
ell 29, elapsed: 0.0033957958221435547
ell 28, elapsed: 0.0033919811248779297
ell 22, elapsed: 0.006214141845703125
ell 21, elapsed: 0.0033388137817382812
ell 20, elapsed: 0.0033659934997558594
ell 19, elapsed: 0.003361940383911133
ell 18, elapsed: 0.0034019947052001953
ell 12, elapsed: 0.006106853485107422
ell 11, elapsed: 0.0033750534057617188
ell 10, elapsed: 0.003442049026489258
ell 9, elapsed: 0.0034029483795166016
ell 8, elapsed: 0.003370046615600586
  0.910645 seconds (96.92 k allocations: 12.609 MiB)
elapsed: 0.004065990447998047
step:          0.074847 sec (0 allocations: 0 byte, 0.0% gc time)
swapping:      0.000839 sec (0 allocations: 0 byte, 0.0% gc time)
calc_Mellell!: 0.036397 sec (0 allocations: 0 byte, 0.0% gc time)
  t0 :  0.010805 sec (0 allocations: 0 byte, 0.0% gc time)
  tm2 : 0.090294 sec (0 allocations: 0 byte, 0.0% gc time)
  tm2s: 0.00865 sec (0 allocations: 0 byte, 0.0% gc time)
  tm4 : 0.20053 sec (0 allocations: 0 byte, 0.0% gc time)
  tp2 : 0.0 sec (0 allocations: 0 byte, 0.0% gc time)
  tp2s: 0.0 sec (0 allocations: 0 byte, 0.0% gc time)
  tp4 : 0.0 sec (0 allocations: 0 byte, 0.0% gc time)
calc_wtdll!:   0.577522 sec (48.6 k allocations: 11.096 MB, 0.0% gc time)
calc_wljj!:    0.054279 sec (69 allocations: 1.078 KB, 0.0% gc time)
mult_prefac!:  0.0 sec (0 allocations: 0 byte, 0.0% gc time)
convert:       0.0 sec (0 allocations: 0 byte, 0.0% gc time)
write:         0.040728 sec (0 allocations: 0 byte, 0.0% gc time)
test_rand_2f1: 0.0 sec (0 allocations: 0 byte, 0.0% gc time)
Closing outfile out/MlCache/MlCache.bin...   0.000008 seconds
xi, l=0, nu=0:   0.540152 seconds (598.86 k allocations: 32.684 MiB)
xi, l=0, nu=-2:  0.002730 seconds (1.14 k allocations: 164.984 KiB)
Created 'out/xi.tsv'.
  q=1.1, R=0.6:	  0.785037 seconds (264.52 k allocations: 38.099 MiB)
  q=1.1, R=0.7:	  1.143358 seconds (276.46 k allocations: 40.114 MiB, 1.42% gc time)
  q=1.1, R=0.8:	  1.007709 seconds (271.68 k allocations: 39.302 MiB, 1.28% gc time)
  q=1.1, R=0.9:	  0.962840 seconds (266.62 k allocations: 38.459 MiB, 1.07% gc time)
  q=1.1, R=0.998:	 21.943848 seconds (114.96 k allocations: 7.588 MiB)
  q=1.1, R=1.0:	  0.004158 seconds (8.20 k allocations: 704.344 KiB)

ℓ = 1000
Δℓ = 4
ΔℓRg1 = -4
N = 4096
q = 1.1
kmin = 1.0e-5
kmax = 1000.0
χ0 = 0.001
RR = RR.tsv
ℓmax = ℓmax.bin
f21 = f21.bin
kmin = 1.0e-5
kmax = 1000.0
dlrec    = 4
dlrecRg1 = -4
Output size: 1573632 bytes = 0.0014655590057373047 GiB
Output size: 786816 bytes = 0.0007327795028686523 GiB
Reading 'out/F21EllCache'...   0.001575 seconds (198 allocations: 533.078 KiB)
ellmax: 1002
lmaxcache: 1000
fell[:,1,1] = ComplexF64[1.7262928128202118e-224 - 4.2281979352226944e-240im, 1.7282693092099662e-224 - 4.233038955177176e-240im]
ell 1002, elapsed: 9.393692016601562e-5
ell 1001, elapsed: 0.0010349750518798828
ell 1000, elapsed: 0.0015628337860107422
ell 999, elapsed: 0.006300926208496094
ell 998, elapsed: 0.006460905075073242
ell 44, elapsed: 0.8839619159698486
ell 43, elapsed: 0.007772207260131836
ell 42, elapsed: 0.007554054260253906
ell 41, elapsed: 0.007558107376098633
ell 40, elapsed: 0.007105827331542969
  0.940501 seconds (5.05 k allocations: 329.453 KiB)
elapsed: 0.00922393798828125
step:          0.87989 sec (0 allocations: 0 byte, 0.0% gc time)
swapping:      0.000565 sec (0 allocations: 0 byte, 0.0% gc time)
calc_Mellell!: 0.001463 sec (0 allocations: 0 byte, 0.0% gc time)
  t0 :  0.000962 sec (0 allocations: 0 byte, 0.0% gc time)
  tm2 : 0.011845 sec (0 allocations: 0 byte, 0.0% gc time)
  tm2s: 0.000856 sec (0 allocations: 0 byte, 0.0% gc time)
  tm4 : 0.034883 sec (0 allocations: 0 byte, 0.0% gc time)
  tp2 : 0.0 sec (0 allocations: 0 byte, 0.0% gc time)
  tp2s: 0.0 sec (0 allocations: 0 byte, 0.0% gc time)
  tp4 : 0.0 sec (0 allocations: 0 byte, 0.0% gc time)
calc_wtdll!:   0.048858 sec (480 allocations: 52.5 KB, 0.0% gc time)
calc_wljj!:    0.001808 sec (1 allocations: 16 byte, 0.0% gc time)
mult_prefac!:  0.0 sec (0 allocations: 0 byte, 0.0% gc time)
convert:       0.0 sec (0 allocations: 0 byte, 0.0% gc time)
write:         0.000936 sec (0 allocations: 0 byte, 0.0% gc time)
test_rand_2f1: 0.0 sec (0 allocations: 0 byte, 0.0% gc time)
Closing outfile out/MlCache/MlCache.bin...   0.000008 seconds
  0.558933 seconds (38 allocations: 66.859 KiB)
make_phi():   0.010274 seconds (4.16 k allocations: 339.984 KiB)
  0.048544 seconds (11.47 k allocations: 714.788 KiB)
tskip:       1.0e-6 sec (0 allocations: 0 byte, 0.0% gc time)
tread:       0.000775 sec (17 allocations: 1.266 KB, 0.0% gc time)
tmultphi:    0.000485 sec (0 allocations: 0 byte, 0.0% gc time)
tbrfft:      0.001598 sec (0 allocations: 0 byte, 0.0% gc time)
tmultprefac: 0.001258 sec (0 allocations: 0 byte, 0.0% gc time)
toutfunc:    0.000173 sec (0 allocations: 0 byte, 0.0% gc time)
Created 'out/wl42_jj00.tsv'.
Created 'out/wl42_jj02.tsv'.
    Testing TwoFAST tests passed 
