Julia Version 1.5.0-DEV.0
Commit 13d1bd4689 (2019-12-31 18:18 UTC)
Platform Info:
  OS: Linux (x86_64-pc-linux-gnu)
  CPU: Intel(R) Xeon(R) Silver 4114 CPU @ 2.20GHz
  WORD_SIZE: 64
  LIBM: libopenlibm
  LLVM: libLLVM-8.0.1 (ORCJIT, skylake)
Environment:
  JULIA_DEPOT_PATH = ::/usr/local/share/julia

 Resolving package versions...
 Installed Reexport ───────── v0.2.0
 Installed IntelOpenMP_jll ── v2018.0.3+0
 Installed FFTW_jll ───────── v3.3.9+3
 Installed IncGammaBeta ───── v0.1.0
 Installed AbstractFFTs ───── v0.5.0
 Installed FFTW ───────────── v1.2.0
 Installed BinDeps ────────── v1.0.0
 Installed URIParser ──────── v0.4.0
 Installed MKL_jll ────────── v2019.0.117+0
 Installed BinaryProvider ─── v0.5.8
 Installed SpecialFunctions ─ v0.8.0
 Installed AbstractAlgebra ── v0.7.1
 Installed Nemo ───────────── v0.15.1
 Installed TwoFAST ────────── v0.1.0
  Updating `~/.julia/environments/v1.5/Project.toml`
  [0dd23c3e] + TwoFAST v0.1.0
  Updating `~/.julia/environments/v1.5/Manifest.toml`
  [c3fe647b] + AbstractAlgebra v0.7.1
  [621f4979] + AbstractFFTs v0.5.0
  [9e28174c] + BinDeps v1.0.0
  [b99e7846] + BinaryProvider v0.5.8
  [7a1cc6ca] + FFTW v1.2.0
  [f5851436] + FFTW_jll v3.3.9+3
  [5087d2c0] + IncGammaBeta v0.1.0
  [1d5cc7b8] + IntelOpenMP_jll v2018.0.3+0
  [856f044c] + MKL_jll v2019.0.117+0
  [2edaba10] + Nemo v0.15.1
  [189a3867] + Reexport v0.2.0
  [276daf66] + SpecialFunctions v0.8.0
  [0dd23c3e] + TwoFAST v0.1.0
  [30578b45] + URIParser v0.4.0
  [2a0f44e3] + Base64 
  [ade2ca70] + Dates 
  [8bb1440f] + DelimitedFiles 
  [8ba89e20] + Distributed 
  [b77e0a4c] + InteractiveUtils 
  [76f85450] + LibGit2 
  [8f399da3] + Libdl 
  [37e2e46d] + LinearAlgebra 
  [56ddb016] + Logging 
  [d6f4376e] + Markdown 
  [a63ad114] + Mmap 
  [44cfe95a] + Pkg 
  [de0858da] + Printf 
  [3fa0cd96] + REPL 
  [9a3f8284] + Random 
  [ea8e919c] + SHA 
  [9e88b42a] + Serialization 
  [6462fe0b] + Sockets 
  [2f01184e] + SparseArrays 
  [8dfed614] + Test 
  [cf7118a7] + UUIDs 
  [4ec0a83e] + Unicode 
  Building FFTW ────────────→ `~/.julia/packages/FFTW/qqcBj/deps/build.log`
  Updating `/tmp/jl_rGuQWu/Project.toml`
 [no changes]
  Updating `/tmp/jl_rGuQWu/Manifest.toml`
 [no changes]
  Building SpecialFunctions → `~/.julia/packages/SpecialFunctions/ne2iw/deps/build.log`
  Updating `/tmp/jl_yx3VwJ/Project.toml`
 [no changes]
  Updating `/tmp/jl_yx3VwJ/Manifest.toml`
 [no changes]
  Building Nemo ────────────→ `~/.julia/packages/Nemo/qzx0m/deps/build.log`
  Updating `/tmp/jl_J7MCtv/Project.toml`
 [no changes]
  Updating `/tmp/jl_J7MCtv/Manifest.toml`
 [no changes]
   Testing TwoFAST
 Installed Dierckx ─ v0.4.1
  Updating `/tmp/jl_yHmx0Z/Project.toml`
  [39dd38d3] + Dierckx v0.4.1
  Updating `/tmp/jl_yHmx0Z/Manifest.toml`
  [39dd38d3] + Dierckx v0.4.1
  Building Dierckx → `~/.julia/packages/Dierckx/9SY4A/deps/build.log`
  Updating `/tmp/jl_gKIz20/Project.toml`
 [no changes]
  Updating `/tmp/jl_gKIz20/Manifest.toml`
 [no changes]
Running sandbox
Status `/tmp/jl_yHmx0Z/Project.toml`
  [39dd38d3] Dierckx v0.4.1
  [7a1cc6ca] FFTW v1.2.0
  [5087d2c0] IncGammaBeta v0.1.0
  [2edaba10] Nemo v0.15.1
  [276daf66] SpecialFunctions v0.8.0
  [0dd23c3e] TwoFAST v0.1.0
  [8bb1440f] DelimitedFiles 
  [37e2e46d] LinearAlgebra 
  [56ddb016] Logging 
  [8dfed614] Test 

Welcome to Nemo version 0.15.1

Nemo comes with absolutely no warranty whatsoever


Welcome to Nemo version 0.15.1

Nemo comes with absolutely no warranty whatsoever

Testing ξ(r), ℓ=0, ν=-1 ... passed
Testing ξ(r), ℓ=0, ν=0 ... passed
Testing ξ(r), ℓ=0, ν=1 ... passed
Testing ξ(r), ℓ=0, ν=2 ... passed
Testing ξ(r), ℓ=0, ν=3 ... passed
Testing ξ(r), ℓ=1, ν=0 ... passed
Testing ξ(r), ℓ=1, ν=1 ... passed
Testing ξ(r), ℓ=1, ν=2 ... passed
Testing ξ(r), ℓ=1, ν=3 ... passed
Testing ξ(r), ℓ=2, ν=-1 ... passed
Testing ξ(r), ℓ=2, ν=0 ... passed
Testing ξ(r), ℓ=2, ν=1 ... passed
Testing ξ(r), ℓ=2, ν=2 ... passed
Testing ξ(r), ℓ=2, ν=3 ... passed
Testing ξ(r), ℓ=3, ν=-1 ... passed
Testing ξ(r), ℓ=3, ν=0 ... passed
Testing ξ(r), ℓ=3, ν=1 ... passed
Testing ξ(r), ℓ=3, ν=2 ... passed
Testing ξ(r), ℓ=3, ν=3 ... passed
Testing ξ(r), ℓ=4, ν=-1 ... passed
Testing ξ(r), ℓ=4, ν=0 ... passed
Testing ξ(r), ℓ=4, ν=1 ... passed
Testing ξ(r), ℓ=4, ν=2 ... passed
Testing ξ(r), ℓ=4, ν=3 ... passed
Testing ξ(r) ... passed
Testing ξ′(r) ... passed
Testing ξ″(r) ... passed
Calculating fmax: 
  dlrec    = 4
  dlrecRg1 = -4
  q=1.1, R=1.1:	  4.712250 seconds (1.20 M allocations: 67.954 MiB, 1.62% gc time)

  4.754120 seconds (1.22 M allocations: 69.064 MiB, 1.61% gc time)
ℓ = 1202
Δℓ = 4
ΔℓRg1 = -4
N = 1600
q = 1.1
kmin = 1.0e-5
kmax = 100000.00000000004
χ0 = 0.023029999999999995
RR = RR.tsv
ℓmax = ℓmax.bin
f21 = f21.bin
kmin = 1.0e-5
kmax = 100000.0
dlrec    = 4
dlrecRg1 = -4
Output size: 5741568 bytes = 0.005347251892089844 GiB
Output size: 51264 bytes = 4.774332046508789e-5 GiB
Reading 'out/F21EllCache'...   0.592722 seconds (318.67 k allocations: 16.395 MiB, 3.62% gc time)
ellmax: 1202
lmaxcache: 1202
fell[:,1,1] = Complex{Float64}[3.9583795592771634e-52 - 9.695233714158177e-68im, 3.990121772925759e-52 - 9.772979714843386e-68im]
ell 1202, elapsed: 9.393692016601562e-5
ell 1201, elapsed: 1.8368408679962158
ell 1200, elapsed: 0.0005180835723876953
ell 1199, elapsed: 0.00048089027404785156
ell 1198, elapsed: 0.0005249977111816406
ell 1002, elapsed: 0.009372949600219727
ell 1001, elapsed: 0.0005011558532714844
ell 1000, elapsed: 0.0004799365997314453
ell 999, elapsed: 0.0004830360412597656
ell 998, elapsed: 0.0004811286926269531
ell 902, elapsed: 0.005015134811401367
ell 901, elapsed: 0.0004899501800537109
ell 900, elapsed: 0.0004820823669433594
ell 899, elapsed: 0.0004830360412597656
ell 898, elapsed: 0.000476837158203125
ell 802, elapsed: 0.005038022994995117
ell 801, elapsed: 0.0006160736083984375
ell 800, elapsed: 0.0004858970642089844
ell 799, elapsed: 0.0004839897155761719
ell 798, elapsed: 0.0004899501800537109
ell 702, elapsed: 0.00638890266418457
ell 701, elapsed: 0.0005061626434326172
ell 700, elapsed: 0.0004870891571044922
ell 699, elapsed: 0.0004801750183105469
ell 698, elapsed: 0.0004820823669433594
ell 602, elapsed: 0.005821943283081055
ell 601, elapsed: 0.0004980564117431641
ell 600, elapsed: 0.00048613548278808594
ell 599, elapsed: 0.00048804283142089844
ell 598, elapsed: 0.0004858970642089844
ell 502, elapsed: 0.005043983459472656
ell 501, elapsed: 0.0005080699920654297
ell 500, elapsed: 0.00047397613525390625
ell 499, elapsed: 0.00047206878662109375
ell 498, elapsed: 0.0004799365997314453
ell 402, elapsed: 0.004988908767700195
ell 401, elapsed: 0.0004930496215820312
ell 400, elapsed: 0.0004761219024658203
ell 399, elapsed: 0.0005040168762207031
ell 398, elapsed: 0.00047397613525390625
ell 302, elapsed: 0.0049321651458740234
ell 301, elapsed: 0.0004949569702148438
ell 300, elapsed: 0.00047397613525390625
ell 299, elapsed: 0.00047898292541503906
ell 298, elapsed: 0.000492095947265625
ell 202, elapsed: 0.005120992660522461
ell 201, elapsed: 0.0004980564117431641
ell 200, elapsed: 0.0004839897155761719
ell 199, elapsed: 0.00047206878662109375
ell 198, elapsed: 0.0004639625549316406
ell 152, elapsed: 0.002593994140625
ell 151, elapsed: 0.00048089027404785156
ell 150, elapsed: 0.00046896934509277344
ell 149, elapsed: 0.0005118846893310547
ell 148, elapsed: 0.0005209445953369141
ell 127, elapsed: 0.0016779899597167969
ell 126, elapsed: 0.0004839897155761719
ell 125, elapsed: 0.00047707557678222656
ell 124, elapsed: 0.00047707557678222656
ell 123, elapsed: 0.0004749298095703125
ell 114, elapsed: 0.0009610652923583984
ell 113, elapsed: 0.0004978179931640625
ell 112, elapsed: 0.0004839897155761719
ell 111, elapsed: 0.0004711151123046875
ell 110, elapsed: 0.00047397613525390625
ell 102, elapsed: 0.0009319782257080078
ell 101, elapsed: 0.0004951953887939453
ell 100, elapsed: 0.0005061626434326172
ell 99, elapsed: 0.0005400180816650391
ell 98, elapsed: 0.0004889965057373047
ell 97, elapsed: 0.0005400180816650391
ell 96, elapsed: 0.00067901611328125
ell 95, elapsed: 0.0005137920379638672
ell 94, elapsed: 0.0006110668182373047
ell 93, elapsed: 0.0005090236663818359
ell 92, elapsed: 0.0005941390991210938
ell 91, elapsed: 0.0005137920379638672
ell 90, elapsed: 0.0005860328674316406
ell 89, elapsed: 0.0005099773406982422
ell 88, elapsed: 0.0005910396575927734
ell 87, elapsed: 0.0005249977111816406
ell 86, elapsed: 0.0005960464477539062
ell 85, elapsed: 0.0005059242248535156
ell 84, elapsed: 0.0006029605865478516
ell 83, elapsed: 0.0005068778991699219
ell 82, elapsed: 0.0005931854248046875
ell 81, elapsed: 0.0007331371307373047
ell 80, elapsed: 0.0006868839263916016
ell 79, elapsed: 0.0005228519439697266
ell 78, elapsed: 0.0006089210510253906
ell 77, elapsed: 0.0005171298980712891
ell 76, elapsed: 0.0006170272827148438
ell 75, elapsed: 0.0005159378051757812
ell 74, elapsed: 0.000598907470703125
ell 73, elapsed: 0.000514984130859375
ell 72, elapsed: 0.0005948543548583984
ell 71, elapsed: 0.0005109310150146484
ell 70, elapsed: 0.0005929470062255859
ell 69, elapsed: 0.0005152225494384766
ell 68, elapsed: 0.0005869865417480469
ell 67, elapsed: 0.0005140304565429688
ell 66, elapsed: 0.000576019287109375
ell 65, elapsed: 0.0004961490631103516
ell 64, elapsed: 0.0005691051483154297
ell 63, elapsed: 0.0005049705505371094
ell 62, elapsed: 0.0005948543548583984
ell 61, elapsed: 0.0005009174346923828
ell 60, elapsed: 0.0005869865417480469
ell 59, elapsed: 0.0004999637603759766
ell 58, elapsed: 0.0005819797515869141
ell 57, elapsed: 0.0005109310150146484
ell 56, elapsed: 0.0005919933319091797
ell 55, elapsed: 0.0005190372467041016
ell 54, elapsed: 0.0005860328674316406
ell 53, elapsed: 0.0005030632019042969
ell 52, elapsed: 0.0005819797515869141
ell 51, elapsed: 0.0005040168762207031
ell 50, elapsed: 0.0005869865417480469
ell 49, elapsed: 0.0005061626434326172
ell 48, elapsed: 0.0006849765777587891
ell 47, elapsed: 0.0005099773406982422
ell 46, elapsed: 0.0006248950958251953
ell 45, elapsed: 0.0005719661712646484
ell 44, elapsed: 0.0005850791931152344
ell 43, elapsed: 0.0004999637603759766
ell 42, elapsed: 0.0006680488586425781
ell 41, elapsed: 0.0005109310150146484
ell 40, elapsed: 0.0005748271942138672
ell 39, elapsed: 0.0005049705505371094
ell 38, elapsed: 0.0005929470062255859
ell 37, elapsed: 0.0005168914794921875
ell 36, elapsed: 0.0005409717559814453
ell 35, elapsed: 0.0005590915679931641
ell 34, elapsed: 0.0005908012390136719
ell 33, elapsed: 0.0004661083221435547
ell 32, elapsed: 0.0005369186401367188
ell 31, elapsed: 0.00043892860412597656
ell 30, elapsed: 0.0005788803100585938
ell 29, elapsed: 0.0004949569702148438
ell 28, elapsed: 0.0005841255187988281
ell 27, elapsed: 0.0005800724029541016
ell 26, elapsed: 0.0005838871002197266
ell 25, elapsed: 0.0005278587341308594
ell 24, elapsed: 0.0006628036499023438
ell 23, elapsed: 0.0005090236663818359
ell 22, elapsed: 0.0005900859832763672
ell 21, elapsed: 0.0005869865417480469
ell 20, elapsed: 0.0005750656127929688
ell 19, elapsed: 0.0005037784576416016
ell 18, elapsed: 0.0005879402160644531
ell 17, elapsed: 0.0005002021789550781
ell 16, elapsed: 0.0005879402160644531
ell 15, elapsed: 0.0005040168762207031
ell 14, elapsed: 0.00067901611328125
ell 13, elapsed: 0.0005161762237548828
ell 12, elapsed: 0.0006008148193359375
ell 11, elapsed: 0.0005140304565429688
ell 10, elapsed: 0.0005829334259033203
ell 9, elapsed: 0.0005128383636474609
ell 8, elapsed: 0.0005831718444824219
ell 7, elapsed: 0.0005209445953369141
ell 6, elapsed: 0.0005738735198974609
ell 5, elapsed: 0.0005159378051757812
ell 4, elapsed: 0.0005860328674316406
ell 3, elapsed: 0.0005099773406982422
ell 2, elapsed: 0.0005910396575927734
ell 1, elapsed: 0.0004999637603759766
ell 0, elapsed: 0.0006680488586425781
  2.726727 seconds (1.75 M allocations: 85.477 MiB, 1.07% gc time)
elapsed: 0.0006110668182373047
step:          0.64791 sec (402.561 k allocations: 20.278 MB, 0.0% gc time)
swapping:      0.000573 sec (0 allocations: 0 byte, 0.0% gc time)
calc_Mellell!: 0.415948 sec (296.399 k allocations: 14.958 MB, 0.0% gc time)
  t0 :  0.0 sec (0 allocations: 0 byte, 0.0% gc time)
  tm2 : 0.0 sec (0 allocations: 0 byte, 0.0% gc time)
  tm2s: 0.0 sec (0 allocations: 0 byte, 0.0% gc time)
  tm4 : 0.0 sec (0 allocations: 0 byte, 0.0% gc time)
  tp2 : 0.0 sec (0 allocations: 0 byte, 0.0% gc time)
  tp2s: 0.0 sec (0 allocations: 0 byte, 0.0% gc time)
  tp4 : 0.0 sec (0 allocations: 0 byte, 0.0% gc time)
calc_wtdll!:   0.897783 sec (525.859 k allocations: 26.376 MB, 0.0% gc time)
calc_wljj!:    0.003202 sec (6 allocations: 96 byte, 0.0% gc time)
mult_prefac!:  0.0 sec (0 allocations: 0 byte, 0.0% gc time)
convert:       0.0 sec (0 allocations: 0 byte, 0.0% gc time)
write:         0.005035 sec (0 allocations: 0 byte, 0.0% gc time)
test_rand_2f1: 0.0 sec (0 allocations: 0 byte, 0.0% gc time)
Closing outfile out/Ml21-cache.bin...   0.000108 seconds
  1.019039 seconds (8.66 k allocations: 420.969 KiB)
make_phi():   0.013997 seconds (8.20 k allocations: 238.016 KiB)
  0.232180 seconds (121.69 k allocations: 5.901 MiB)
tskip:       2.4e-5 sec (0 allocations: 0 byte, 0.0% gc time)
tread:       0.002481 sec (19 allocations: 2.172 KB, 0.0% gc time)
tmultphi:    0.042151 sec (26.022 k allocations: 1.338 MB, 0.0% gc time)
tbrfft:      0.005383 sec (896 allocations: 42.0 KB, 0.0% gc time)
tmultprefac: 0.003594 sec (0 allocations: 0 byte, 0.0% gc time)
toutfunc:    0.178458 sec (94.104 k allocations: 4.45 MB, 0.0% gc time)
Testing R=1.1 ... passed
Calculating fmax: 
  dlrec    = 4
  dlrecRg1 = -4
  q=1.1, R=1.0:	  0.001236 seconds (4.00 k allocations: 300.375 KiB)

  0.001398 seconds (4.04 k allocations: 335.062 KiB)
ℓ = 1202
Δℓ = 4
ΔℓRg1 = -4
N = 1600
q = 1.1
kmin = 1.0e-5
kmax = 100000.00000000004
χ0 = 0.023029999999999995
RR = RR.tsv
ℓmax = ℓmax.bin
f21 = f21.bin
kmin = 1.0e-5
kmax = 100000.0
dlrec    = 4
dlrecRg1 = -4
Output size: 61465536 bytes = 0.05724424123764038 GiB
Output size: 51264 bytes = 4.774332046508789e-5 GiB
Reading 'out/F21EllCache'...   0.000883 seconds (267 allocations: 84.656 KiB)
ellmax: 1202
lmaxcache: 1202
fell[:,1,1] = Complex{Float64}[809.6031528389767 - 1.9829558194077161e-13im, 0.0 + 0.0im]
ell 1202, elapsed: 1.9073486328125e-5
ell 1201, elapsed: 0.009390115737915039
ell 1200, elapsed: 0.0002779960632324219
ell 1199, elapsed: 0.00029587745666503906
ell 1198, elapsed: 0.0002789497375488281
ell 1197, elapsed: 0.0003120899200439453
ell 1196, elapsed: 0.0002968311309814453
ell 1195, elapsed: 0.00037288665771484375
ell 1194, elapsed: 0.0002968311309814453
ell 1193, elapsed: 0.00036597251892089844
ell 1192, elapsed: 0.0003490447998046875
ell 1191, elapsed: 0.000453948974609375
ell 1190, elapsed: 0.0002970695495605469
ell 1189, elapsed: 0.00034880638122558594
ell 1188, elapsed: 0.0002961158752441406
ell 1187, elapsed: 0.00036716461181640625
ell 1186, elapsed: 0.0002880096435546875
ell 1185, elapsed: 0.0003609657287597656
ell 1184, elapsed: 0.0002999305725097656
ell 1183, elapsed: 0.0003571510314941406
ell 1182, elapsed: 0.0002930164337158203
ell 1181, elapsed: 0.0003609657287597656
ell 1180, elapsed: 0.0003209114074707031
ell 1179, elapsed: 0.0003612041473388672
ell 1178, elapsed: 0.0003151893615722656
ell 1177, elapsed: 0.0003600120544433594
ell 1176, elapsed: 0.0002961158752441406
ell 1175, elapsed: 0.0003619194030761719
ell 1174, elapsed: 0.0002989768981933594
ell 1173, elapsed: 0.00036716461181640625
ell 1172, elapsed: 0.00029397010803222656
ell 1171, elapsed: 0.0003528594970703125
ell 1170, elapsed: 0.0002918243408203125
ell 1169, elapsed: 0.00041294097900390625
ell 1168, elapsed: 0.00029397010803222656
ell 1167, elapsed: 0.0003540515899658203
ell 1166, elapsed: 0.0002980232238769531
ell 1165, elapsed: 0.0003590583801269531
ell 1164, elapsed: 0.0002989768981933594
ell 1163, elapsed: 0.0003590583801269531
ell 1162, elapsed: 0.0002989768981933594
ell 1161, elapsed: 0.0003600120544433594
ell 1160, elapsed: 0.0003001689910888672
ell 1159, elapsed: 0.00035500526428222656
ell 1158, elapsed: 0.0004658699035644531
ell 1157, elapsed: 0.0005180835723876953
ell 1156, elapsed: 0.00028395652770996094
ell 1155, elapsed: 0.0003437995910644531
ell 1154, elapsed: 0.0002810955047607422
ell 1153, elapsed: 0.0003399848937988281
ell 1152, elapsed: 0.0002808570861816406
ell 1151, elapsed: 0.0003330707550048828
ell 1150, elapsed: 0.0002818107604980469
ell 1149, elapsed: 0.0003409385681152344
ell 1148, elapsed: 0.0002810955047607422
ell 1147, elapsed: 0.0005238056182861328
ell 1146, elapsed: 0.0002970695495605469
ell 1145, elapsed: 0.00034499168395996094
ell 1144, elapsed: 0.0002808570861816406
ell 1143, elapsed: 0.00034308433532714844
ell 1142, elapsed: 0.0002799034118652344
ell 1141, elapsed: 0.00033092498779296875
ell 1140, elapsed: 0.00028014183044433594
ell 1139, elapsed: 0.00033402442932128906
ell 1138, elapsed: 0.00028014183044433594
ell 1137, elapsed: 0.0003337860107421875
ell 1136, elapsed: 0.00044798851013183594
ell 1135, elapsed: 0.00038695335388183594
ell 1134, elapsed: 0.00031495094299316406
ell 1133, elapsed: 0.00036597251892089844
ell 1132, elapsed: 0.0003199577331542969
ell 1131, elapsed: 0.000370025634765625
ell 1130, elapsed: 0.0003101825714111328
ell 1129, elapsed: 0.00037097930908203125
ell 1128, elapsed: 0.0003058910369873047
ell 1127, elapsed: 0.0005259513854980469
ell 1126, elapsed: 0.0004668235778808594
ell 1125, elapsed: 0.0003790855407714844
ell 1124, elapsed: 0.0004029273986816406
ell 1123, elapsed: 0.00047206878662109375
ell 1122, elapsed: 0.0003788471221923828
ell 1121, elapsed: 0.00045490264892578125
ell 1120, elapsed: 0.00037980079650878906
ell 1119, elapsed: 0.0004570484161376953
ell 1118, elapsed: 0.0005052089691162109
ell 1117, elapsed: 0.00048089027404785156
ell 1116, elapsed: 0.0003871917724609375
ell 1115, elapsed: 0.00048804283142089844
ell 1114, elapsed: 0.00039005279541015625
ell 1113, elapsed: 0.0004811286926269531
ell 1112, elapsed: 0.0003879070281982422
ell 1111, elapsed: 0.00047206878662109375
ell 1110, elapsed: 0.0003910064697265625
ell 1109, elapsed: 0.0005540847778320312
ell 1108, elapsed: 0.0003669261932373047
ell 1107, elapsed: 0.0004448890686035156
ell 1106, elapsed: 0.0003750324249267578
ell 1105, elapsed: 0.00045800209045410156
ell 1104, elapsed: 0.0003650188446044922
ell 1103, elapsed: 0.00043892860412597656
ell 1102, elapsed: 0.0003800392150878906
ell 1101, elapsed: 0.0004420280456542969
ell 1100, elapsed: 0.0004918575286865234
ell 1099, elapsed: 0.0004649162292480469
ell 1098, elapsed: 0.0003609657287597656
ell 1097, elapsed: 0.00034689903259277344
ell 1096, elapsed: 0.0003440380096435547
ell 1095, elapsed: 0.00034689903259277344
ell 1094, elapsed: 0.00028204917907714844
ell 1093, elapsed: 0.0003459453582763672
ell 1092, elapsed: 0.0002830028533935547
ell 1091, elapsed: 0.0003399848937988281
ell 1090, elapsed: 0.0004048347473144531
ell 1089, elapsed: 0.0003609657287597656
ell 1088, elapsed: 0.0002930164337158203
ell 1087, elapsed: 0.00035190582275390625
ell 1086, elapsed: 0.0002949237823486328
ell 1085, elapsed: 0.00035500526428222656
ell 1084, elapsed: 0.0002961158752441406
ell 1083, elapsed: 0.0003590583801269531
ell 1082, elapsed: 0.0002961158752441406
ell 1081, elapsed: 0.0003609657287597656
ell 1080, elapsed: 0.00029587745666503906
ell 1079, elapsed: 0.0004019737243652344
ell 1078, elapsed: 0.0002961158752441406
ell 1077, elapsed: 0.0003509521484375
ell 1076, elapsed: 0.0002961158752441406
ell 1075, elapsed: 0.00035381317138671875
ell 1074, elapsed: 0.00029587745666503906
ell 1073, elapsed: 0.0003559589385986328
ell 1072, elapsed: 0.0002989768981933594
ell 1071, elapsed: 0.0003540515899658203
ell 1070, elapsed: 0.0002951622009277344
ell 1069, elapsed: 0.0003590583801269531
ell 1068, elapsed: 0.00031685829162597656
ell 1067, elapsed: 0.0003528594970703125
ell 1066, elapsed: 0.0002951622009277344
ell 1065, elapsed: 0.0003590583801269531
ell 1064, elapsed: 0.00029587745666503906
ell 1063, elapsed: 0.0003559589385986328
ell 1062, elapsed: 0.0002970695495605469
ell 1061, elapsed: 0.0003559589385986328
ell 1060, elapsed: 0.0002951622009277344
ell 1059, elapsed: 0.0003600120544433594
ell 1058, elapsed: 0.00045490264892578125
ell 1057, elapsed: 0.0005171298980712891
ell 1056, elapsed: 0.00030684471130371094
ell 1055, elapsed: 0.0003669261932373047
ell 1054, elapsed: 0.00030684471130371094
ell 1053, elapsed: 0.0003688335418701172
ell 1052, elapsed: 0.00030803680419921875
ell 1051, elapsed: 0.0003750324249267578
ell 1050, elapsed: 0.00030303001403808594
ell 1049, elapsed: 0.0003681182861328125
ell 1048, elapsed: 0.00030517578125
ell 1047, elapsed: 0.00036597251892089844
ell 1046, elapsed: 0.0003209114074707031
ell 1045, elapsed: 0.00036597251892089844
ell 1044, elapsed: 0.00030303001403808594
ell 1043, elapsed: 0.0003619194030761719
ell 1042, elapsed: 0.00030493736267089844
ell 1041, elapsed: 0.0003681182861328125
ell 1040, elapsed: 0.0003039836883544922
ell 1039, elapsed: 0.0003719329833984375
ell 1038, elapsed: 0.00030493736267089844
ell 1037, elapsed: 0.0003681182861328125
ell 1036, elapsed: 0.0003039836883544922
ell 1035, elapsed: 0.0005459785461425781
ell 1034, elapsed: 0.00045299530029296875
ell 1033, elapsed: 0.0004100799560546875
ell 1032, elapsed: 0.00030803680419921875
ell 1031, elapsed: 0.0003719329833984375
ell 1030, elapsed: 0.0003180503845214844
ell 1029, elapsed: 0.00039196014404296875
ell 1028, elapsed: 0.0003070831298828125
ell 1027, elapsed: 0.00038814544677734375
ell 1026, elapsed: 0.0003590583801269531
ell 1025, elapsed: 0.0005490779876708984
ell 1024, elapsed: 0.00043582916259765625
ell 1023, elapsed: 0.0003879070281982422
ell 1022, elapsed: 0.0003139972686767578
ell 1021, elapsed: 0.0005490779876708984
ell 1020, elapsed: 0.0004432201385498047
ell 1019, elapsed: 0.00041413307189941406
ell 1018, elapsed: 0.004723072052001953
ell 1017, elapsed: 0.0005218982696533203
ell 1016, elapsed: 0.0003859996795654297
ell 1015, elapsed: 0.0004661083221435547
ell 1014, elapsed: 0.00038313865661621094
ell 1013, elapsed: 0.0004589557647705078
ell 1012, elapsed: 0.0003669261932373047
ell 1011, elapsed: 0.0004360675811767578
ell 1010, elapsed: 0.0003631114959716797
ell 1009, elapsed: 0.0006899833679199219
ell 1008, elapsed: 0.0005090236663818359
ell 1007, elapsed: 0.0005590915679931641
ell 1006, elapsed: 0.0004918575286865234
ell 1005, elapsed: 0.0005700588226318359
ell 1004, elapsed: 0.0004401206970214844
ell 1003, elapsed: 0.00047016143798828125
ell 1002, elapsed: 0.0003910064697265625
ell 1001, elapsed: 0.0004169940948486328
ell 1000, elapsed: 0.00048804283142089844
ell 999, elapsed: 0.0005362033843994141
ell 998, elapsed: 0.0003159046173095703
ell 997, elapsed: 0.0003719329833984375
ell 996, elapsed: 0.00030803680419921875
ell 995, elapsed: 0.0005140304565429688
ell 994, elapsed: 0.0005321502685546875
ell 993, elapsed: 0.0005409717559814453
ell 992, elapsed: 0.00051116943359375
ell 991, elapsed: 0.0007178783416748047
ell 990, elapsed: 0.0005998611450195312
ell 989, elapsed: 0.0007281303405761719
ell 988, elapsed: 0.0006010532379150391
ell 987, elapsed: 0.0007069110870361328
ell 986, elapsed: 0.0005488395690917969
ell 985, elapsed: 0.0007059574127197266
ell 984, elapsed: 0.0006129741668701172
ell 983, elapsed: 0.0008559226989746094
ell 982, elapsed: 0.0006158351898193359
ell 981, elapsed: 0.0006349086761474609
ell 980, elapsed: 0.0005118846893310547
ell 979, elapsed: 0.0007028579711914062
ell 978, elapsed: 0.000492095947265625
ell 977, elapsed: 0.0006771087646484375
ell 976, elapsed: 0.0004589557647705078
ell 975, elapsed: 0.0004100799560546875
ell 974, elapsed: 0.0003371238708496094
ell 973, elapsed: 0.0005750656127929688
ell 972, elapsed: 0.0005779266357421875
ell 971, elapsed: 0.0007219314575195312
ell 970, elapsed: 0.0004899501800537109
ell 969, elapsed: 0.0005331039428710938
ell 968, elapsed: 0.0004489421844482422
ell 967, elapsed: 0.0005548000335693359
ell 966, elapsed: 0.00044798851013183594
ell 965, elapsed: 0.0004038810729980469
ell 964, elapsed: 0.0003199577331542969
ell 963, elapsed: 0.0003719329833984375
ell 962, elapsed: 0.0003559589385986328
ell 961, elapsed: 0.0004010200500488281
ell 960, elapsed: 0.00030994415283203125
ell 959, elapsed: 0.00037407875061035156
ell 958, elapsed: 0.00029087066650390625
ell 957, elapsed: 0.00036787986755371094
ell 956, elapsed: 0.00028896331787109375
ell 955, elapsed: 0.0005600452423095703
ell 954, elapsed: 0.0004248619079589844
ell 953, elapsed: 0.0005249977111816406
ell 952, elapsed: 0.0005078315734863281
ell 951, elapsed: 0.0005939006805419922
ell 950, elapsed: 0.00040721893310546875
ell 949, elapsed: 0.0003631114959716797
ell 948, elapsed: 0.00043392181396484375
ell 947, elapsed: 0.0004949569702148438
ell 946, elapsed: 0.0002949237823486328
ell 945, elapsed: 0.00035500526428222656
ell 944, elapsed: 0.0005099773406982422
ell 943, elapsed: 0.0006029605865478516
ell 942, elapsed: 0.0005021095275878906
ell 941, elapsed: 0.0005900859832763672
ell 940, elapsed: 0.0004367828369140625
ell 939, elapsed: 0.0003428459167480469
ell 938, elapsed: 0.00045990943908691406
ell 937, elapsed: 0.0004911422729492188
ell 936, elapsed: 0.0003190040588378906
ell 935, elapsed: 0.0005471706390380859
ell 934, elapsed: 0.00041103363037109375
ell 933, elapsed: 0.000370025634765625
ell 932, elapsed: 0.00033402442932128906
ell 931, elapsed: 0.0005178451538085938
ell 930, elapsed: 0.0004911422729492188
ell 929, elapsed: 0.00038313865661621094
ell 928, elapsed: 0.0003368854522705078
ell 927, elapsed: 0.0005400180816650391
ell 926, elapsed: 0.0005419254302978516
ell 925, elapsed: 0.0005919933319091797
ell 924, elapsed: 0.0005390644073486328
ell 923, elapsed: 0.0005381107330322266
ell 922, elapsed: 0.00043392181396484375
ell 921, elapsed: 0.0005691051483154297
ell 920, elapsed: 0.0003249645233154297
ell 919, elapsed: 0.0005810260772705078
ell 918, elapsed: 0.00045609474182128906
ell 917, elapsed: 0.0003941059112548828
ell 916, elapsed: 0.00031304359436035156
ell 915, elapsed: 0.0005240440368652344
ell 914, elapsed: 0.00045800209045410156
ell 913, elapsed: 0.00034618377685546875
ell 912, elapsed: 0.0005068778991699219
ell 911, elapsed: 0.0005609989166259766
ell 910, elapsed: 0.00039005279541015625
ell 909, elapsed: 0.000514984130859375
ell 908, elapsed: 0.0004909038543701172
ell 907, elapsed: 0.0005171298980712891
ell 906, elapsed: 0.00028395652770996094
ell 905, elapsed: 0.00046896934509277344
ell 904, elapsed: 0.0005240440368652344
ell 903, elapsed: 0.0003590583801269531
ell 902, elapsed: 0.0004298686981201172
ell 901, elapsed: 0.0005719661712646484
ell 900, elapsed: 0.00043487548828125
ell 899, elapsed: 0.0005271434783935547
ell 898, elapsed: 0.00046896934509277344
ell 897, elapsed: 0.0005548000335693359
ell 896, elapsed: 0.0005419254302978516
ell 895, elapsed: 0.0004260540008544922
ell 894, elapsed: 0.0005099773406982422
ell 893, elapsed: 0.0006580352783203125
ell 892, elapsed: 0.0005409717559814453
ell 891, elapsed: 0.0005331039428710938
ell 890, elapsed: 0.0003859996795654297
ell 889, elapsed: 0.0007879734039306641
ell 888, elapsed: 0.0005431175231933594
ell 887, elapsed: 0.0005869865417480469
ell 886, elapsed: 0.0004749298095703125
ell 885, elapsed: 0.0006349086761474609
ell 884, elapsed: 0.00047087669372558594
ell 883, elapsed: 0.000885009765625
ell 882, elapsed: 0.00034999847412109375
ell 881, elapsed: 0.0006570816040039062
ell 880, elapsed: 0.0005261898040771484
ell 879, elapsed: 0.0006098747253417969
ell 878, elapsed: 0.00046706199645996094
ell 877, elapsed: 0.0004010200500488281
ell 876, elapsed: 0.0003590583801269531
ell 875, elapsed: 0.0006051063537597656
ell 874, elapsed: 0.00047206878662109375
ell 873, elapsed: 0.00037097930908203125
ell 872, elapsed: 0.0005719661712646484
ell 871, elapsed: 0.0006349086761474609
ell 870, elapsed: 0.00039196014404296875
ell 869, elapsed: 0.0003600120544433594
ell 868, elapsed: 0.0005860328674316406
ell 867, elapsed: 0.0005178451538085938
ell 866, elapsed: 0.0002968311309814453
ell 865, elapsed: 0.00043892860412597656
ell 864, elapsed: 0.0005090236663818359
ell 863, elapsed: 0.0005221366882324219
ell 862, elapsed: 0.0005791187286376953
ell 861, elapsed: 0.0005741119384765625
ell 860, elapsed: 0.0006129741668701172
ell 859, elapsed: 0.0007231235504150391
ell 858, elapsed: 0.0005271434783935547
ell 857, elapsed: 0.0006449222564697266
ell 856, elapsed: 0.0004601478576660156
ell 855, elapsed: 0.0007050037384033203
ell 854, elapsed: 0.0004010200500488281
ell 853, elapsed: 0.0006520748138427734
ell 852, elapsed: 0.0005509853363037109
ell 851, elapsed: 0.0007560253143310547
ell 850, elapsed: 0.0005130767822265625
ell 849, elapsed: 0.0007760524749755859
ell 848, elapsed: 0.0005831718444824219
ell 847, elapsed: 0.0006651878356933594
ell 846, elapsed: 0.0006041526794433594
ell 845, elapsed: 0.0007519721984863281
ell 844, elapsed: 0.0005400180816650391
ell 843, elapsed: 0.0006718635559082031
ell 842, elapsed: 0.0006241798400878906
ell 841, elapsed: 0.0005509853363037109
ell 840, elapsed: 0.0005140304565429688
ell 839, elapsed: 0.0006849765777587891
ell 838, elapsed: 0.0004100799560546875
ell 837, elapsed: 0.0006318092346191406
ell 836, elapsed: 0.0008471012115478516
ell 835, elapsed: 0.0008749961853027344
ell 834, elapsed: 0.0006301403045654297
ell 833, elapsed: 0.000659942626953125
ell 832, elapsed: 0.0004317760467529297
ell 831, elapsed: 0.0009059906005859375
ell 830, elapsed: 0.0005741119384765625
ell 829, elapsed: 0.0004909038543701172
ell 828, elapsed: 0.00043201446533203125
ell 827, elapsed: 0.0007569789886474609
ell 826, elapsed: 0.0006279945373535156
ell 825, elapsed: 0.000990152359008789
ell 824, elapsed: 0.0005018711090087891
ell 823, elapsed: 0.0007560253143310547
ell 822, elapsed: 0.0006561279296875
ell 821, elapsed: 0.0008630752563476562
ell 820, elapsed: 0.0008602142333984375
ell 819, elapsed: 0.0007939338684082031
ell 818, elapsed: 0.0005209445953369141
ell 817, elapsed: 0.0006289482116699219
ell 816, elapsed: 0.0007281303405761719
ell 815, elapsed: 0.0007541179656982422
ell 814, elapsed: 0.0005040168762207031
ell 813, elapsed: 0.0004818439483642578
ell 812, elapsed: 0.0006918907165527344
ell 811, elapsed: 0.0007481575012207031
ell 810, elapsed: 0.0005660057067871094
ell 809, elapsed: 0.0007500648498535156
ell 808, elapsed: 0.0005478858947753906
ell 807, elapsed: 0.0008158683776855469
ell 806, elapsed: 0.0007009506225585938
ell 805, elapsed: 0.0007719993591308594
ell 804, elapsed: 0.00041794776916503906
ell 803, elapsed: 0.0006928443908691406
ell 802, elapsed: 0.0006439685821533203
ell 801, elapsed: 0.0006320476531982422
ell 800, elapsed: 0.0003998279571533203
ell 799, elapsed: 0.000698089599609375
ell 798, elapsed: 0.0006520748138427734
ell 797, elapsed: 0.0005941390991210938
ell 796, elapsed: 0.0005321502685546875
ell 795, elapsed: 0.0006730556488037109
ell 794, elapsed: 0.0003979206085205078
ell 793, elapsed: 0.0004889965057373047
ell 792, elapsed: 0.0006310939788818359
ell 791, elapsed: 0.0006358623504638672
ell 790, elapsed: 0.0005650520324707031
ell 789, elapsed: 0.0007078647613525391
ell 788, elapsed: 0.0007040500640869141
ell 787, elapsed: 0.0006291866302490234
ell 786, elapsed: 0.0006239414215087891
ell 785, elapsed: 0.0004899501800537109
ell 784, elapsed: 0.00040602684020996094
ell 783, elapsed: 0.0006802082061767578
ell 782, elapsed: 0.0005040168762207031
ell 781, elapsed: 0.0005919933319091797
ell 780, elapsed: 0.0005521774291992188
ell 779, elapsed: 0.00047397613525390625
ell 778, elapsed: 0.00045800209045410156
ell 777, elapsed: 0.0007479190826416016
ell 776, elapsed: 0.0004570484161376953
ell 775, elapsed: 0.0005908012390136719
ell 774, elapsed: 0.0005841255187988281
ell 773, elapsed: 0.0005419254302978516
ell 772, elapsed: 0.0007009506225585938
ell 771, elapsed: 0.0007030963897705078
ell 770, elapsed: 0.0006070137023925781
ell 769, elapsed: 0.0007519721984863281
ell 768, elapsed: 0.0006699562072753906
ell 767, elapsed: 0.0008380413055419922
ell 766, elapsed: 0.0004911422729492188
ell 765, elapsed: 0.0005350112915039062
ell 764, elapsed: 0.0006940364837646484
ell 763, elapsed: 0.0006639957427978516
ell 762, elapsed: 0.0006051063537597656
ell 761, elapsed: 0.0005121231079101562
ell 760, elapsed: 0.0005788803100585938
ell 759, elapsed: 0.0006859302520751953
ell 758, elapsed: 0.0005559921264648438
ell 757, elapsed: 0.0007359981536865234
ell 756, elapsed: 0.0006420612335205078
ell 755, elapsed: 0.0009140968322753906
ell 754, elapsed: 0.0007460117340087891
ell 753, elapsed: 0.0008089542388916016
ell 752, elapsed: 0.0004620552062988281
ell 751, elapsed: 0.0008308887481689453
ell 750, elapsed: 0.0004658699035644531
ell 749, elapsed: 0.0005328655242919922
ell 748, elapsed: 0.00044989585876464844
ell 747, elapsed: 0.0005369186401367188
ell 746, elapsed: 0.0006802082061767578
ell 745, elapsed: 0.0005550384521484375
ell 744, elapsed: 0.00057220458984375
ell 743, elapsed: 0.0005970001220703125
ell 742, elapsed: 0.0004980564117431641
ell 741, elapsed: 0.0006868839263916016
ell 740, elapsed: 0.00045299530029296875
ell 739, elapsed: 0.0007259845733642578
ell 738, elapsed: 0.0006458759307861328
ell 737, elapsed: 0.0008530616760253906
ell 736, elapsed: 0.0006458759307861328
ell 735, elapsed: 0.0009088516235351562
ell 734, elapsed: 0.0006539821624755859
ell 733, elapsed: 0.0008890628814697266
ell 732, elapsed: 0.0007059574127197266
ell 731, elapsed: 0.0008549690246582031
ell 730, elapsed: 0.0007369518280029297
ell 729, elapsed: 0.0008521080017089844
ell 728, elapsed: 0.0006670951843261719
ell 727, elapsed: 0.0005869865417480469
ell 726, elapsed: 0.0007290840148925781
ell 725, elapsed: 0.0005829334259033203
ell 724, elapsed: 0.0005030632019042969
ell 723, elapsed: 0.0008189678192138672
ell 722, elapsed: 0.0007090568542480469
ell 721, elapsed: 0.000576019287109375
ell 720, elapsed: 0.0007159709930419922
ell 719, elapsed: 0.0008189678192138672
ell 718, elapsed: 0.0005140304565429688
ell 717, elapsed: 0.0007109642028808594
ell 716, elapsed: 0.0005109310150146484
ell 715, elapsed: 0.0008308887481689453
ell 714, elapsed: 0.0004820823669433594
ell 713, elapsed: 0.0005869865417480469
ell 712, elapsed: 0.0004971027374267578
ell 711, elapsed: 0.0004918575286865234
ell 710, elapsed: 0.0006139278411865234
ell 709, elapsed: 0.0006880760192871094
ell 708, elapsed: 0.0005929470062255859
ell 707, elapsed: 0.0006771087646484375
ell 706, elapsed: 0.0006182193756103516
ell 705, elapsed: 0.0006010532379150391
ell 704, elapsed: 0.0008230209350585938
ell 703, elapsed: 0.0008399486541748047
ell 702, elapsed: 0.0006110668182373047
ell 701, elapsed: 0.0006010532379150391
ell 700, elapsed: 0.000431060791015625
ell 699, elapsed: 0.000743865966796875
ell 698, elapsed: 0.0005578994750976562
ell 697, elapsed: 0.0006458759307861328
ell 696, elapsed: 0.00040793418884277344
ell 695, elapsed: 0.0007729530334472656
ell 694, elapsed: 0.0005979537963867188
ell 693, elapsed: 0.0008060932159423828
ell 692, elapsed: 0.0007348060607910156
ell 691, elapsed: 0.000804901123046875
ell 690, elapsed: 0.0004971027374267578
ell 689, elapsed: 0.0005640983581542969
ell 688, elapsed: 0.0007119178771972656
ell 687, elapsed: 0.0008509159088134766
ell 686, elapsed: 0.0005338191986083984
ell 685, elapsed: 0.0008368492126464844
ell 684, elapsed: 0.0007688999176025391
ell 683, elapsed: 0.0008080005645751953
ell 682, elapsed: 0.00047588348388671875
ell 681, elapsed: 0.000476837158203125
ell 680, elapsed: 0.0005888938903808594
ell 679, elapsed: 0.0005948543548583984
ell 678, elapsed: 0.00045299530029296875
ell 677, elapsed: 0.0007519721984863281
ell 676, elapsed: 0.0008521080017089844
ell 675, elapsed: 0.0007488727569580078
ell 674, elapsed: 0.0008080005645751953
ell 673, elapsed: 0.0007960796356201172
ell 672, elapsed: 0.0008618831634521484
ell 671, elapsed: 0.0008928775787353516
ell 670, elapsed: 0.0007910728454589844
ell 669, elapsed: 0.0006270408630371094
ell 668, elapsed: 0.0006458759307861328
ell 667, elapsed: 0.0006349086761474609
ell 666, elapsed: 0.0005030632019042969
ell 665, elapsed: 0.0007450580596923828
ell 664, elapsed: 0.0006310939788818359
ell 663, elapsed: 0.0008540153503417969
ell 662, elapsed: 0.0007481575012207031
ell 661, elapsed: 0.0007739067077636719
ell 660, elapsed: 0.0004799365997314453
ell 659, elapsed: 0.0005810260772705078
ell 658, elapsed: 0.0005271434783935547
ell 657, elapsed: 0.0006949901580810547
ell 656, elapsed: 0.0004031658172607422
ell 655, elapsed: 0.0006740093231201172
ell 654, elapsed: 0.0006339550018310547
ell 653, elapsed: 0.0005328655242919922
ell 652, elapsed: 0.0008130073547363281
ell 651, elapsed: 0.0008759498596191406
ell 650, elapsed: 0.0006799697875976562
ell 649, elapsed: 0.0008559226989746094
ell 648, elapsed: 0.0005161762237548828
ell 647, elapsed: 0.0008838176727294922
ell 646, elapsed: 0.000492095947265625
ell 645, elapsed: 0.0007469654083251953
ell 644, elapsed: 0.0007650852203369141
ell 643, elapsed: 0.0008330345153808594
ell 642, elapsed: 0.0006921291351318359
ell 641, elapsed: 0.0005929470062255859
ell 640, elapsed: 0.0007221698760986328
ell 639, elapsed: 0.0008101463317871094
ell 638, elapsed: 0.0006918907165527344
ell 637, elapsed: 0.000823974609375
ell 636, elapsed: 0.0006840229034423828
ell 635, elapsed: 0.0008649826049804688
ell 634, elapsed: 0.0005259513854980469
ell 633, elapsed: 0.0007328987121582031
ell 632, elapsed: 0.0006477832794189453
ell 631, elapsed: 0.0007731914520263672
ell 630, elapsed: 0.0006649494171142578
ell 629, elapsed: 0.0007669925689697266
ell 628, elapsed: 0.0004761219024658203
ell 627, elapsed: 0.0007069110870361328
ell 626, elapsed: 0.0006401538848876953
ell 625, elapsed: 0.0008268356323242188
ell 624, elapsed: 0.0006690025329589844
ell 623, elapsed: 0.0007541179656982422
ell 622, elapsed: 0.0005238056182861328
ell 621, elapsed: 0.0007541179656982422
ell 620, elapsed: 0.0006270408630371094
ell 619, elapsed: 0.0007610321044921875
ell 618, elapsed: 0.0006539821624755859
ell 617, elapsed: 0.0007810592651367188
ell 616, elapsed: 0.0006549358367919922
ell 615, elapsed: 0.0006299018859863281
ell 614, elapsed: 0.0005481243133544922
ell 613, elapsed: 0.0007529258728027344
ell 612, elapsed: 0.0006589889526367188
ell 611, elapsed: 0.0007729530334472656
ell 610, elapsed: 0.0006520748138427734
ell 609, elapsed: 0.0006020069122314453
ell 608, elapsed: 0.000514984130859375
ell 607, elapsed: 0.0006768703460693359
ell 606, elapsed: 0.0005421638488769531
ell 605, elapsed: 0.0007531642913818359
ell 604, elapsed: 0.0006229877471923828
ell 603, elapsed: 0.0006470680236816406
ell 602, elapsed: 0.0005190372467041016
ell 601, elapsed: 0.0006620883941650391
ell 600, elapsed: 0.0003948211669921875
ell 599, elapsed: 0.0007050037384033203
ell 598, elapsed: 0.0004482269287109375
ell 597, elapsed: 0.0007140636444091797
ell 596, elapsed: 0.0006451606750488281
ell 595, elapsed: 0.0007750988006591797
ell 594, elapsed: 0.0006089210510253906
ell 593, elapsed: 0.0006880760192871094
ell 592, elapsed: 0.000659942626953125
ell 591, elapsed: 0.000804901123046875
ell 590, elapsed: 0.0004410743713378906
ell 589, elapsed: 0.0006248950958251953
ell 588, elapsed: 0.0006549358367919922
ell 587, elapsed: 0.0006229877471923828
ell 586, elapsed: 0.0004069805145263672
ell 585, elapsed: 0.0007450580596923828
ell 584, elapsed: 0.0005600452423095703
ell 583, elapsed: 0.0004889965057373047
ell 582, elapsed: 0.0005021095275878906
ell 581, elapsed: 0.0007541179656982422
ell 580, elapsed: 0.0005490779876708984
ell 579, elapsed: 0.0007500648498535156
ell 578, elapsed: 0.0007109642028808594
ell 577, elapsed: 0.0007090568542480469
ell 576, elapsed: 0.0005509853363037109
ell 575, elapsed: 0.0007300376892089844
ell 574, elapsed: 0.0006589889526367188
ell 573, elapsed: 0.0006339550018310547
ell 572, elapsed: 0.0005159378051757812
ell 571, elapsed: 0.0006220340728759766
ell 570, elapsed: 0.00040912628173828125
ell 569, elapsed: 0.0006968975067138672
ell 568, elapsed: 0.0006489753723144531
ell 567, elapsed: 0.0007679462432861328
ell 566, elapsed: 0.0006659030914306641
ell 565, elapsed: 0.0007600784301757812
ell 564, elapsed: 0.0005970001220703125
ell 563, elapsed: 0.0006618499755859375
ell 562, elapsed: 0.00041103363037109375
ell 561, elapsed: 0.0007390975952148438
ell 560, elapsed: 0.0005958080291748047
ell 559, elapsed: 0.0006990432739257812
ell 558, elapsed: 0.00061798095703125
ell 557, elapsed: 0.0007650852203369141
ell 556, elapsed: 0.00044608116149902344
ell 555, elapsed: 0.0004990100860595703
ell 554, elapsed: 0.0005269050598144531
ell 553, elapsed: 0.0007519721984863281
ell 552, elapsed: 0.0006551742553710938
ell 551, elapsed: 0.0006239414215087891
ell 550, elapsed: 0.0004119873046875
ell 549, elapsed: 0.00048804283142089844
ell 548, elapsed: 0.0005269050598144531
ell 547, elapsed: 0.0007529258728027344
ell 546, elapsed: 0.0005559921264648438
ell 545, elapsed: 0.0006139278411865234
ell 544, elapsed: 0.0005550384521484375
ell 543, elapsed: 0.0005211830139160156
ell 542, elapsed: 0.0006809234619140625
ell 541, elapsed: 0.0007309913635253906
ell 540, elapsed: 0.0005030632019042969
ell 539, elapsed: 0.0006301403045654297
ell 538, elapsed: 0.0006439685821533203
ell 537, elapsed: 0.0007269382476806641
ell 536, elapsed: 0.0005390644073486328
ell 535, elapsed: 0.0006048679351806641
ell 534, elapsed: 0.0005559921264648438
ell 533, elapsed: 0.0007429122924804688
ell 532, elapsed: 0.0005888938903808594
ell 531, elapsed: 0.0006492137908935547
ell 530, elapsed: 0.0006949901580810547
ell 529, elapsed: 0.0007469654083251953
ell 528, elapsed: 0.0006470680236816406
ell 527, elapsed: 0.0007569789886474609
ell 526, elapsed: 0.0006501674652099609
ell 525, elapsed: 0.000820159912109375
ell 524, elapsed: 0.0004818439483642578
ell 523, elapsed: 0.0006880760192871094
ell 522, elapsed: 0.0005059242248535156
ell 521, elapsed: 0.00047397613525390625
ell 520, elapsed: 0.0004050731658935547
ell 519, elapsed: 0.0006878376007080078
ell 518, elapsed: 0.0007131099700927734
ell 517, elapsed: 0.0006580352783203125
ell 516, elapsed: 0.0003960132598876953
ell 515, elapsed: 0.0007050037384033203
ell 514, elapsed: 0.0004611015319824219
ell 513, elapsed: 0.0004940032958984375
ell 512, elapsed: 0.00040602684020996094
ell 511, elapsed: 0.0005350112915039062
ell 510, elapsed: 0.0004248619079589844
ell 509, elapsed: 0.0006940364837646484
ell 508, elapsed: 0.0004088878631591797
ell 507, elapsed: 0.00048613548278808594
ell 506, elapsed: 0.0005779266357421875
ell 505, elapsed: 0.0005459785461425781
ell 504, elapsed: 0.0005199909210205078
ell 503, elapsed: 0.0006701946258544922
ell 502, elapsed: 0.0004849433898925781
ell 501, elapsed: 0.0007688999176025391
ell 500, elapsed: 0.0005459785461425781
ell 499, elapsed: 0.0005321502685546875
ell 498, elapsed: 0.0006840229034423828
ell 497, elapsed: 0.0007479190826416016
ell 496, elapsed: 0.0005929470062255859
ell 495, elapsed: 0.0007429122924804688
ell 494, elapsed: 0.0006499290466308594
ell 493, elapsed: 0.0008130073547363281
ell 492, elapsed: 0.0005939006805419922
ell 491, elapsed: 0.0006189346313476562
ell 490, elapsed: 0.00040411949157714844
ell 489, elapsed: 0.000476837158203125
ell 488, elapsed: 0.0004038810729980469
ell 487, elapsed: 0.0006451606750488281
ell 486, elapsed: 0.0006620883941650391
ell 485, elapsed: 0.0007030963897705078
ell 484, elapsed: 0.00043082237243652344
ell 483, elapsed: 0.0006959438323974609
ell 482, elapsed: 0.0004401206970214844
ell 481, elapsed: 0.0007030963897705078
ell 480, elapsed: 0.0004229545593261719
ell 479, elapsed: 0.0005199909210205078
ell 478, elapsed: 0.0005700588226318359
ell 477, elapsed: 0.0005660057067871094
ell 476, elapsed: 0.00045108795166015625
ell 475, elapsed: 0.0006680488586425781
ell 474, elapsed: 0.00047898292541503906
ell 473, elapsed: 0.000804901123046875
ell 472, elapsed: 0.0005679130554199219
ell 471, elapsed: 0.0007600784301757812
ell 470, elapsed: 0.0006558895111083984
ell 469, elapsed: 0.0007548332214355469
ell 468, elapsed: 0.0005099773406982422
ell 467, elapsed: 0.0007150173187255859
ell 466, elapsed: 0.0005869865417480469
ell 465, elapsed: 0.0005609989166259766
ell 464, elapsed: 0.0005650520324707031
ell 463, elapsed: 0.0006430149078369141
ell 462, elapsed: 0.0004391670227050781
ell 461, elapsed: 0.0007901191711425781
ell 460, elapsed: 0.0006539821624755859
ell 459, elapsed: 0.0006039142608642578
ell 458, elapsed: 0.0005190372467041016
ell 457, elapsed: 0.0007429122924804688
ell 456, elapsed: 0.0004210472106933594
ell 455, elapsed: 0.0007510185241699219
ell 454, elapsed: 0.0006279945373535156
ell 453, elapsed: 0.0007419586181640625
ell 452, elapsed: 0.000537872314453125
ell 451, elapsed: 0.0007009506225585938
ell 450, elapsed: 0.0006120204925537109
ell 449, elapsed: 0.000640869140625
ell 448, elapsed: 0.0005559921264648438
ell 447, elapsed: 0.0006561279296875
ell 446, elapsed: 0.0005030632019042969
ell 445, elapsed: 0.0006511211395263672
ell 444, elapsed: 0.0004010200500488281
ell 443, elapsed: 0.0006740093231201172
ell 442, elapsed: 0.0005159378051757812
ell 441, elapsed: 0.0005688667297363281
ell 440, elapsed: 0.00055694580078125
ell 439, elapsed: 0.0006909370422363281
ell 438, elapsed: 0.0006289482116699219
ell 437, elapsed: 0.0006279945373535156
ell 436, elapsed: 0.0004658699035644531
ell 435, elapsed: 0.0006968975067138672
ell 434, elapsed: 0.0006070137023925781
ell 433, elapsed: 0.0005869865417480469
ell 432, elapsed: 0.0005469322204589844
ell 431, elapsed: 0.0006608963012695312
ell 430, elapsed: 0.0006670951843261719
ell 429, elapsed: 0.0005040168762207031
ell 428, elapsed: 0.0005791187286376953
ell 427, elapsed: 0.0006129741668701172
ell 426, elapsed: 0.0006399154663085938
ell 425, elapsed: 0.0007009506225585938
ell 424, elapsed: 0.0006318092346191406
ell 423, elapsed: 0.0007219314575195312
ell 422, elapsed: 0.0005660057067871094
ell 421, elapsed: 0.0006618499755859375
ell 420, elapsed: 0.0004200935363769531
ell 419, elapsed: 0.0007009506225585938
ell 418, elapsed: 0.0007059574127197266
ell 417, elapsed: 0.0006048679351806641
ell 416, elapsed: 0.0004940032958984375
ell 415, elapsed: 0.0007359981536865234
ell 414, elapsed: 0.0004630088806152344
ell 413, elapsed: 0.0007162094116210938
ell 412, elapsed: 0.0006890296936035156
ell 411, elapsed: 0.0007491111755371094
ell 410, elapsed: 0.0005540847778320312
ell 409, elapsed: 0.0004811286926269531
ell 408, elapsed: 0.0006260871887207031
ell 407, elapsed: 0.0006210803985595703
ell 406, elapsed: 0.0006620883941650391
ell 405, elapsed: 0.0007681846618652344
ell 404, elapsed: 0.0006430149078369141
ell 403, elapsed: 0.0007669925689697266
ell 402, elapsed: 0.0006458759307861328
ell 401, elapsed: 0.000823974609375
ell 400, elapsed: 0.0004649162292480469
ell 399, elapsed: 0.00048804283142089844
ell 398, elapsed: 0.0005831718444824219
ell 397, elapsed: 0.0005819797515869141
ell 396, elapsed: 0.0006270408630371094
ell 395, elapsed: 0.0005288124084472656
ell 394, elapsed: 0.0006630420684814453
ell 393, elapsed: 0.0005331039428710938
ell 392, elapsed: 0.0006358623504638672
ell 391, elapsed: 0.0004971027374267578
ell 390, elapsed: 0.0005991458892822266
ell 389, elapsed: 0.0006718635559082031
ell 388, elapsed: 0.0005519390106201172
ell 387, elapsed: 0.0007660388946533203
ell 386, elapsed: 0.0006601810455322266
ell 385, elapsed: 0.0007648468017578125
ell 384, elapsed: 0.00047707557678222656
ell 383, elapsed: 0.0007469654083251953
ell 382, elapsed: 0.0006649494171142578
ell 381, elapsed: 0.0007178783416748047
ell 380, elapsed: 0.0006270408630371094
ell 379, elapsed: 0.0007340908050537109
ell 378, elapsed: 0.0005559921264648438
ell 377, elapsed: 0.0007171630859375
ell 376, elapsed: 0.0004899501800537109
ell 375, elapsed: 0.0007441043853759766
ell 374, elapsed: 0.0005230903625488281
ell 373, elapsed: 0.0006921291351318359
ell 372, elapsed: 0.0006260871887207031
ell 371, elapsed: 0.0007851123809814453
ell 370, elapsed: 0.0006279945373535156
ell 369, elapsed: 0.0007381439208984375
ell 368, elapsed: 0.0006430149078369141
ell 367, elapsed: 0.0007410049438476562
ell 366, elapsed: 0.0005321502685546875
ell 365, elapsed: 0.0006930828094482422
ell 364, elapsed: 0.0005807876586914062
ell 363, elapsed: 0.0005850791931152344
ell 362, elapsed: 0.0005121231079101562
ell 361, elapsed: 0.000743865966796875
ell 360, elapsed: 0.00048279762268066406
ell 359, elapsed: 0.0007238388061523438
ell 358, elapsed: 0.0005741119384765625
ell 357, elapsed: 0.0006468296051025391
ell 356, elapsed: 0.0004990100860595703
ell 355, elapsed: 0.0007519721984863281
ell 354, elapsed: 0.0006270408630371094
ell 353, elapsed: 0.0007581710815429688
ell 352, elapsed: 0.0006189346313476562
ell 351, elapsed: 0.0007450580596923828
ell 350, elapsed: 0.00048804283142089844
ell 349, elapsed: 0.0006639957427978516
ell 348, elapsed: 0.0006299018859863281
ell 347, elapsed: 0.0007529258728027344
ell 346, elapsed: 0.0005719661712646484
ell 345, elapsed: 0.0006518363952636719
ell 344, elapsed: 0.000640869140625
ell 343, elapsed: 0.0006570816040039062
ell 342, elapsed: 0.0006079673767089844
ell 341, elapsed: 0.0007610321044921875
ell 340, elapsed: 0.0006520748138427734
ell 339, elapsed: 0.0005500316619873047
ell 338, elapsed: 0.0005009174346923828
ell 337, elapsed: 0.0007688999176025391
ell 336, elapsed: 0.0006589889526367188
ell 335, elapsed: 0.0005540847778320312
ell 334, elapsed: 0.0005099773406982422
ell 333, elapsed: 0.0007560253143310547
ell 332, elapsed: 0.000637054443359375
ell 331, elapsed: 0.0005478858947753906
ell 330, elapsed: 0.0006029605865478516
ell 329, elapsed: 0.0005621910095214844
ell 328, elapsed: 0.00040912628173828125
ell 327, elapsed: 0.00061798095703125
ell 326, elapsed: 0.0006570816040039062
ell 325, elapsed: 0.0005500316619873047
ell 324, elapsed: 0.0006000995635986328
ell 323, elapsed: 0.0006051063537597656
ell 322, elapsed: 0.00049591064453125
ell 321, elapsed: 0.0006580352783203125
ell 320, elapsed: 0.0004570484161376953
ell 319, elapsed: 0.0007369518280029297
ell 318, elapsed: 0.0004909038543701172
ell 317, elapsed: 0.0006868839263916016
ell 316, elapsed: 0.00040984153747558594
ell 315, elapsed: 0.0006871223449707031
ell 314, elapsed: 0.0004229545593261719
ell 313, elapsed: 0.0005011558532714844
ell 312, elapsed: 0.0006351470947265625
ell 311, elapsed: 0.0007460117340087891
ell 310, elapsed: 0.0006461143493652344
ell 309, elapsed: 0.0007259845733642578
ell 308, elapsed: 0.0005350112915039062
ell 307, elapsed: 0.0007610321044921875
ell 306, elapsed: 0.0006470680236816406
ell 305, elapsed: 0.0005519390106201172
ell 304, elapsed: 0.0005271434783935547
ell 303, elapsed: 0.0007390975952148438
ell 302, elapsed: 0.000598907470703125
ell 301, elapsed: 0.0006699562072753906
ell 300, elapsed: 0.0005800724029541016
ell 299, elapsed: 0.0005571842193603516
ell 298, elapsed: 0.00041294097900390625
ell 297, elapsed: 0.00048089027404785156
ell 296, elapsed: 0.0004019737243652344
ell 295, elapsed: 0.0007112026214599609
ell 294, elapsed: 0.00043892860412597656
ell 293, elapsed: 0.0006761550903320312
ell 292, elapsed: 0.0005259513854980469
ell 291, elapsed: 0.0007059574127197266
ell 290, elapsed: 0.0006182193756103516
ell 289, elapsed: 0.0007500648498535156
ell 288, elapsed: 0.0004889965057373047
ell 287, elapsed: 0.0006730556488037109
ell 286, elapsed: 0.0004398822784423828
ell 285, elapsed: 0.0007159709930419922
ell 284, elapsed: 0.0005850791931152344
ell 283, elapsed: 0.0006480216979980469
ell 282, elapsed: 0.0005500316619873047
ell 281, elapsed: 0.0007491111755371094
ell 280, elapsed: 0.00048804283142089844
ell 279, elapsed: 0.0031991004943847656
ell 278, elapsed: 0.0006048679351806641
ell 277, elapsed: 0.0005538463592529297
ell 276, elapsed: 0.0004050731658935547
ell 275, elapsed: 0.0006248950958251953
ell 274, elapsed: 0.0006101131439208984
ell 273, elapsed: 0.0004971027374267578
ell 272, elapsed: 0.0006010532379150391
ell 271, elapsed: 0.0005459785461425781
ell 270, elapsed: 0.0006420612335205078
ell 269, elapsed: 0.0007550716400146484
ell 268, elapsed: 0.00047588348388671875
ell 267, elapsed: 0.0007429122924804688
ell 266, elapsed: 0.0005040168762207031
ell 265, elapsed: 0.0007441043853759766
ell 264, elapsed: 0.003665924072265625
ell 263, elapsed: 0.0006120204925537109
ell 262, elapsed: 0.0005660057067871094
ell 261, elapsed: 0.0007441043853759766
ell 260, elapsed: 0.000637054443359375
ell 259, elapsed: 0.0005409717559814453
ell 258, elapsed: 0.0005519390106201172
ell 257, elapsed: 0.0008091926574707031
ell 256, elapsed: 0.0006430149078369141
ell 255, elapsed: 0.0007450580596923828
ell 254, elapsed: 0.0006630420684814453
ell 253, elapsed: 0.0005970001220703125
ell 252, elapsed: 0.0005278587341308594
ell 251, elapsed: 0.0009570121765136719
ell 250, elapsed: 0.00047707557678222656
ell 249, elapsed: 0.0005629062652587891
ell 248, elapsed: 0.0004649162292480469
ell 247, elapsed: 0.0005619525909423828
ell 246, elapsed: 0.0004658699035644531
ell 245, elapsed: 0.0005540847778320312
ell 244, elapsed: 0.0004780292510986328
ell 243, elapsed: 0.00055694580078125
ell 242, elapsed: 0.0004611015319824219
ell 241, elapsed: 0.0005650520324707031
ell 240, elapsed: 0.0004611015319824219
ell 239, elapsed: 0.0005550384521484375
ell 238, elapsed: 0.0004601478576660156
ell 237, elapsed: 0.000576019287109375
ell 236, elapsed: 0.0004589557647705078
ell 235, elapsed: 0.0005559921264648438
ell 234, elapsed: 0.0004589557647705078
ell 233, elapsed: 0.0005519390106201172
ell 232, elapsed: 0.0004611015319824219
ell 231, elapsed: 0.00055694580078125
ell 230, elapsed: 0.0004730224609375
ell 229, elapsed: 0.0005559921264648438
ell 228, elapsed: 0.00045800209045410156
ell 227, elapsed: 0.0005521774291992188
ell 226, elapsed: 0.00045800209045410156
ell 225, elapsed: 0.0005578994750976562
ell 224, elapsed: 0.00046181678771972656
ell 223, elapsed: 0.0005488395690917969
ell 222, elapsed: 0.007910966873168945
ell 221, elapsed: 0.0006170272827148438
ell 220, elapsed: 0.0004620552062988281
ell 219, elapsed: 0.0005559921264648438
ell 218, elapsed: 0.0004591941833496094
ell 217, elapsed: 0.0005519390106201172
ell 216, elapsed: 0.00045990943908691406
ell 215, elapsed: 0.0005609989166259766
ell 214, elapsed: 0.0004761219024658203
ell 213, elapsed: 0.0005478858947753906
ell 212, elapsed: 0.0004591941833496094
ell 211, elapsed: 0.0005519390106201172
ell 210, elapsed: 0.0004611015319824219
ell 209, elapsed: 0.0005600452423095703
ell 208, elapsed: 0.0004630088806152344
ell 207, elapsed: 0.0005710124969482422
ell 206, elapsed: 0.0004601478576660156
ell 205, elapsed: 0.0005638599395751953
ell 204, elapsed: 0.0004601478576660156
ell 203, elapsed: 0.0005450248718261719
ell 202, elapsed: 0.0004608631134033203
ell 201, elapsed: 0.0005500316619873047
ell 200, elapsed: 0.0004611015319824219
ell 199, elapsed: 0.011628866195678711
ell 198, elapsed: 0.00047397613525390625
ell 197, elapsed: 0.0005640983581542969
ell 196, elapsed: 0.00045990943908691406
ell 195, elapsed: 0.0005571842193603516
ell 194, elapsed: 0.00045990943908691406
ell 193, elapsed: 0.0005629062652587891
ell 192, elapsed: 0.00046515464782714844
ell 191, elapsed: 0.0005490779876708984
ell 190, elapsed: 0.00047898292541503906
ell 189, elapsed: 0.0005631446838378906
ell 188, elapsed: 0.0004649162292480469
ell 187, elapsed: 0.0005521774291992188
ell 186, elapsed: 0.0004601478576660156
ell 185, elapsed: 0.0005550384521484375
ell 184, elapsed: 0.00045990943908691406
ell 183, elapsed: 0.0005660057067871094
ell 182, elapsed: 0.0004589557647705078
ell 181, elapsed: 0.0005440711975097656
ell 180, elapsed: 0.0004589557647705078
ell 179, elapsed: 0.0005509853363037109
ell 178, elapsed: 0.00045800209045410156
ell 177, elapsed: 0.0005509853363037109
ell 176, elapsed: 0.0004591941833496094
ell 175, elapsed: 0.013616085052490234
ell 174, elapsed: 0.0004680156707763672
ell 173, elapsed: 0.00055694580078125
ell 172, elapsed: 0.0004589557647705078
ell 171, elapsed: 0.0005500316619873047
ell 170, elapsed: 0.0004780292510986328
ell 169, elapsed: 0.0005679130554199219
ell 168, elapsed: 0.0004570484161376953
ell 167, elapsed: 0.0005438327789306641
ell 166, elapsed: 0.0004589557647705078
ell 165, elapsed: 0.0005519390106201172
ell 164, elapsed: 0.00045680999755859375
ell 163, elapsed: 0.0005769729614257812
ell 162, elapsed: 0.0004608631134033203
ell 161, elapsed: 0.0005519390106201172
ell 160, elapsed: 0.0004570484161376953
ell 159, elapsed: 0.0005609989166259766
ell 158, elapsed: 0.00045800209045410156
ell 157, elapsed: 0.0005409717559814453
ell 156, elapsed: 0.00045800209045410156
ell 155, elapsed: 0.0005629062652587891
ell 154, elapsed: 0.00045299530029296875
ell 153, elapsed: 0.0005481243133544922
ell 152, elapsed: 0.0004558563232421875
ell 151, elapsed: 0.000553131103515625
ell 150, elapsed: 0.00045490264892578125
ell 149, elapsed: 0.0005481243133544922
ell 148, elapsed: 0.004671812057495117
ell 147, elapsed: 0.0007829666137695312
ell 146, elapsed: 0.0004730224609375
ell 145, elapsed: 0.0004899501800537109
ell 144, elapsed: 0.0004429817199707031
ell 143, elapsed: 0.0007460117340087891
ell 142, elapsed: 0.0007078647613525391
ell 141, elapsed: 0.0007600784301757812
ell 140, elapsed: 0.0006241798400878906
ell 139, elapsed: 0.0006270408630371094
ell 138, elapsed: 0.0004019737243652344
ell 137, elapsed: 0.0004849433898925781
ell 136, elapsed: 0.0006248950958251953
ell 135, elapsed: 0.0007700920104980469
ell 134, elapsed: 0.0005140304565429688
ell 133, elapsed: 0.0004940032958984375
ell 132, elapsed: 0.0004050731658935547
ell 131, elapsed: 0.0004909038543701172
ell 130, elapsed: 0.0004019737243652344
ell 129, elapsed: 0.0007040500640869141
ell 128, elapsed: 0.000640869140625
ell 127, elapsed: 0.00061798095703125
ell 126, elapsed: 0.0004909038543701172
ell 125, elapsed: 0.0007359981536865234
ell 124, elapsed: 0.0004889965057373047
ell 123, elapsed: 0.0007338523864746094
ell 122, elapsed: 0.0006151199340820312
ell 121, elapsed: 0.0007600784301757812
ell 120, elapsed: 0.0005888938903808594
ell 119, elapsed: 0.0006749629974365234
ell 118, elapsed: 0.0005030632019042969
ell 117, elapsed: 0.0007710456848144531
ell 116, elapsed: 0.000614166259765625
ell 115, elapsed: 0.0005841255187988281
ell 114, elapsed: 0.0005338191986083984
ell 113, elapsed: 0.0006780624389648438
ell 112, elapsed: 0.0003979206085205078
ell 111, elapsed: 0.0004839897155761719
ell 110, elapsed: 0.0005948543548583984
ell 109, elapsed: 0.0007510185241699219
ell 108, elapsed: 0.0006489753723144531
ell 107, elapsed: 0.000640869140625
ell 106, elapsed: 0.0005640983581542969
ell 105, elapsed: 0.0006508827209472656
ell 104, elapsed: 0.0005409717559814453
ell 103, elapsed: 0.0006680488586425781
ell 102, elapsed: 0.0006268024444580078
ell 101, elapsed: 0.0007441043853759766
ell 100, elapsed: 0.0006330013275146484
ell 99, elapsed: 0.00061798095703125
ell 98, elapsed: 0.0005929470062255859
ell 97, elapsed: 0.0007030963897705078
ell 96, elapsed: 0.0006048679351806641
ell 95, elapsed: 0.0006761550903320312
ell 94, elapsed: 0.0006489753723144531
ell 93, elapsed: 0.0007681846618652344
ell 92, elapsed: 0.0006380081176757812
ell 91, elapsed: 0.0005860328674316406
ell 90, elapsed: 0.00039696693420410156
ell 89, elapsed: 0.000701904296875
ell 88, elapsed: 0.0006289482116699219
ell 87, elapsed: 0.0006301403045654297
ell 86, elapsed: 0.0006158351898193359
ell 85, elapsed: 0.0007200241088867188
ell 84, elapsed: 0.0004949569702148438
ell 83, elapsed: 0.0004911422729492188
ell 82, elapsed: 0.00040411949157714844
ell 81, elapsed: 0.0006480216979980469
ell 80, elapsed: 0.0006198883056640625
ell 79, elapsed: 0.00048804283142089844
ell 78, elapsed: 0.0004909038543701172
ell 77, elapsed: 0.0007321834564208984
ell 76, elapsed: 0.0006189346313476562
ell 75, elapsed: 0.0007121562957763672
ell 74, elapsed: 0.0004940032958984375
ell 73, elapsed: 0.0006721019744873047
ell 72, elapsed: 0.0005688667297363281
ell 71, elapsed: 0.0007309913635253906
ell 70, elapsed: 0.0006320476531982422
ell 69, elapsed: 0.0007197856903076172
ell 68, elapsed: 0.0007278919219970703
ell 67, elapsed: 0.0007541179656982422
ell 66, elapsed: 0.0005829334259033203
ell 65, elapsed: 0.0006392002105712891
ell 64, elapsed: 0.0005011558532714844
ell 63, elapsed: 0.0007460117340087891
ell 62, elapsed: 0.0005629062652587891
ell 61, elapsed: 0.0004909038543701172
ell 60, elapsed: 0.0003941059112548828
ell 59, elapsed: 0.0004870891571044922
ell 58, elapsed: 0.0006160736083984375
ell 57, elapsed: 0.0005621910095214844
ell 56, elapsed: 0.0005409717559814453
ell 55, elapsed: 0.0007739067077636719
ell 54, elapsed: 0.0004940032958984375
ell 53, elapsed: 0.0006570816040039062
ell 52, elapsed: 0.0003960132598876953
ell 51, elapsed: 0.0007338523864746094
ell 50, elapsed: 0.0006289482116699219
ell 49, elapsed: 0.00090789794921875
ell 48, elapsed: 0.0005180835723876953
ell 47, elapsed: 0.0007460117340087891
ell 46, elapsed: 0.0006568431854248047
ell 45, elapsed: 0.0007460117340087891
ell 44, elapsed: 0.0006380081176757812
ell 43, elapsed: 0.0007841587066650391
ell 42, elapsed: 0.000640869140625
ell 41, elapsed: 0.0005528926849365234
ell 40, elapsed: 0.0004029273986816406
ell 39, elapsed: 0.0004889965057373047
ell 38, elapsed: 0.0005950927734375
ell 37, elapsed: 0.0007190704345703125
ell 36, elapsed: 0.0005748271942138672
ell 35, elapsed: 0.0007510185241699219
ell 34, elapsed: 0.0005440711975097656
ell 33, elapsed: 0.0005819797515869141
ell 32, elapsed: 0.0005528926849365234
ell 31, elapsed: 0.0007119178771972656
ell 30, elapsed: 0.0006649494171142578
ell 29, elapsed: 0.0008609294891357422
ell 28, elapsed: 0.0004189014434814453
ell 27, elapsed: 0.00047397613525390625
ell 26, elapsed: 0.00041604042053222656
ell 25, elapsed: 0.0006089210510253906
ell 24, elapsed: 0.0005319118499755859
ell 23, elapsed: 0.0007181167602539062
ell 22, elapsed: 0.0006480216979980469
ell 21, elapsed: 0.0006079673767089844
ell 20, elapsed: 0.00074005126953125
ell 19, elapsed: 0.0007510185241699219
ell 18, elapsed: 0.00055694580078125
ell 17, elapsed: 0.0007770061492919922
ell 16, elapsed: 0.0006661415100097656
ell 15, elapsed: 0.0007338523864746094
ell 14, elapsed: 0.0006589889526367188
ell 13, elapsed: 0.0007491111755371094
ell 12, elapsed: 0.0006229877471923828
ell 11, elapsed: 0.0006740093231201172
ell 10, elapsed: 0.0006330013275146484
ell 9, elapsed: 0.0005910396575927734
ell 8, elapsed: 0.0006082057952880859
ell 7, elapsed: 0.0007722377777099609
ell 6, elapsed: 0.0006158351898193359
ell 5, elapsed: 0.0007719993591308594
ell 4, elapsed: 0.0006558895111083984
ell 3, elapsed: 0.0007839202880859375
ell 2, elapsed: 0.0005240440368652344
ell 1, elapsed: 0.0005970001220703125
ell 0, elapsed: 0.0006570816040039062
  0.800246 seconds (41.19 k allocations: 2.939 MiB)
elapsed: 0.0009198188781738281
step:          0.087415 sec (0 allocations: 0 byte, 0.0% gc time)
swapping:      0.00095 sec (0 allocations: 0 byte, 0.0% gc time)
calc_Mellell!: 0.01332 sec (0 allocations: 0 byte, 0.0% gc time)
  t0 :  0.00326 sec (0 allocations: 0 byte, 0.0% gc time)
  tm2 : 0.131898 sec (0 allocations: 0 byte, 0.0% gc time)
  tm2s: 0.002197 sec (0 allocations: 0 byte, 0.0% gc time)
  tm4 : 0.320356 sec (0 allocations: 0 byte, 0.0% gc time)
  tp2 : 0.0 sec (0 allocations: 0 byte, 0.0% gc time)
  tp2s: 0.0 sec (0 allocations: 0 byte, 0.0% gc time)
  tp4 : 0.0 sec (0 allocations: 0 byte, 0.0% gc time)
calc_wtdll!:   0.470984 sec (9.87 k allocations: 1.043 MB, 0.0% gc time)
calc_wljj!:    0.048891 sec (689 allocations: 10.766 KB, 0.0% gc time)
mult_prefac!:  0.0 sec (0 allocations: 0 byte, 0.0% gc time)
convert:       0.0 sec (0 allocations: 0 byte, 0.0% gc time)
write:         0.059724 sec (0 allocations: 0 byte, 0.0% gc time)
test_rand_2f1: 0.0 sec (0 allocations: 0 byte, 0.0% gc time)
Closing outfile out/Ml21-cache.bin...   0.020123 seconds
  0.000562 seconds (52 allocations: 28.297 KiB)
make_phi():   0.002438 seconds (8.20 k allocations: 238.016 KiB)
  0.151247 seconds (146.69 k allocations: 3.629 MiB)
tskip:       0.000803 sec (0 allocations: 0 byte, 0.0% gc time)
tread:       0.020752 sec (19 allocations: 10.688 KB, 0.0% gc time)
tmultphi:    0.010561 sec (0 allocations: 0 byte, 0.0% gc time)
tbrfft:      0.046135 sec (9.592 k allocations: 449.625 KB, 0.0% gc time)
tmultprefac: 0.030163 sec (0 allocations: 0 byte, 0.0% gc time)
toutfunc:    0.041467 sec (129.905 k allocations: 2.421 MB, 0.0% gc time)
Testing R=1.0 ... passed
Calculating fmax: 
  dlrec    = 4
  dlrecRg1 = -4
  q=1.1, R=0.9:	  0.413792 seconds (116.47 k allocations: 15.614 MiB)

  0.414038 seconds (116.50 k allocations: 15.647 MiB)
ℓ = 1202
Δℓ = 4
ΔℓRg1 = -4
N = 1600
q = 1.1
kmin = 1.0e-5
kmax = 100000.00000000004
χ0 = 0.023029999999999995
RR = RR.tsv
ℓmax = ℓmax.bin
f21 = f21.bin
kmin = 1.0e-5
kmax = 100000.0
dlrec    = 4
dlrecRg1 = -4
Output size: 5741568 bytes = 0.005347251892089844 GiB
Output size: 51264 bytes = 4.774332046508789e-5 GiB
Reading 'out/F21EllCache'...   0.000901 seconds (267 allocations: 84.656 KiB)
ellmax: 1202
lmaxcache: 1202
fell[:,1,1] = Complex{Float64}[1.3482014726274674e-57 - 3.302141236118086e-73im, 1.357860004724329e-57 - 3.3257978169518355e-73im]
ell 1202, elapsed: 2.384185791015625e-5
ell 1201, elapsed: 0.0003879070281982422
ell 1200, elapsed: 0.0003669261932373047
ell 1199, elapsed: 0.00035500526428222656
ell 1198, elapsed: 0.0003509521484375
ell 1002, elapsed: 0.00931096076965332
ell 1001, elapsed: 0.00037217140197753906
ell 1000, elapsed: 0.0003490447998046875
ell 999, elapsed: 0.00034809112548828125
ell 998, elapsed: 0.0003478527069091797
ell 902, elapsed: 0.004721164703369141
ell 901, elapsed: 0.0003581047058105469
ell 900, elapsed: 0.00033593177795410156
ell 899, elapsed: 0.0003421306610107422
ell 898, elapsed: 0.00037288665771484375
ell 802, elapsed: 0.004819154739379883
ell 801, elapsed: 0.00030994415283203125
ell 800, elapsed: 0.0002720355987548828
ell 799, elapsed: 0.0002639293670654297
ell 798, elapsed: 0.0002620220184326172
ell 702, elapsed: 0.0042498111724853516
ell 701, elapsed: 0.0004239082336425781
ell 700, elapsed: 0.0003108978271484375
ell 699, elapsed: 0.00028586387634277344
ell 698, elapsed: 0.00027680397033691406
ell 602, elapsed: 0.004624128341674805
ell 601, elapsed: 0.0004820823669433594
ell 600, elapsed: 0.00042891502380371094
ell 599, elapsed: 0.0002880096435546875
ell 598, elapsed: 0.0002779960632324219
ell 502, elapsed: 0.004127979278564453
ell 501, elapsed: 0.00040912628173828125
ell 500, elapsed: 0.0004119873046875
ell 499, elapsed: 0.0002789497375488281
ell 498, elapsed: 0.0002689361572265625
ell 402, elapsed: 0.004195213317871094
ell 401, elapsed: 0.00029397010803222656
ell 400, elapsed: 0.0002741813659667969
ell 399, elapsed: 0.00027108192443847656
ell 398, elapsed: 0.0002741813659667969
ell 302, elapsed: 0.004305839538574219
ell 301, elapsed: 0.0003631114959716797
ell 300, elapsed: 0.0002720355987548828
ell 299, elapsed: 0.00032210350036621094
ell 298, elapsed: 0.00027489662170410156
ell 202, elapsed: 0.00419306755065918
ell 201, elapsed: 0.0003230571746826172
ell 200, elapsed: 0.0003018379211425781
ell 199, elapsed: 0.00028896331787109375
ell 198, elapsed: 0.0002899169921875
ell 152, elapsed: 0.0023889541625976562
ell 151, elapsed: 0.00027298927307128906
ell 150, elapsed: 0.00026488304138183594
ell 149, elapsed: 0.0002598762512207031
ell 148, elapsed: 0.00026106834411621094
ell 127, elapsed: 0.0012311935424804688
ell 126, elapsed: 0.0002830028533935547
ell 125, elapsed: 0.0003459453582763672
ell 124, elapsed: 0.00028204917907714844
ell 123, elapsed: 0.00036787986755371094
ell 114, elapsed: 0.0006618499755859375
ell 113, elapsed: 0.00026297569274902344
ell 112, elapsed: 0.0002589225769042969
ell 111, elapsed: 0.0002589225769042969
ell 110, elapsed: 0.0002620220184326172
ell 102, elapsed: 0.0006659030914306641
ell 101, elapsed: 0.0002601146697998047
ell 100, elapsed: 0.00026106834411621094
ell 99, elapsed: 0.0002589225769042969
ell 98, elapsed: 0.0002601146697998047
ell 97, elapsed: 0.0005130767822265625
ell 96, elapsed: 0.00036787986755371094
ell 95, elapsed: 0.0003731250762939453
ell 94, elapsed: 0.0004229545593261719
ell 93, elapsed: 0.00032401084899902344
ell 92, elapsed: 0.00036406517028808594
ell 91, elapsed: 0.0003008842468261719
ell 90, elapsed: 0.0003609657287597656
ell 89, elapsed: 0.0002999305725097656
ell 88, elapsed: 0.0004138946533203125
ell 87, elapsed: 0.0003020763397216797
ell 86, elapsed: 0.0003590583801269531
ell 85, elapsed: 0.0003108978271484375
ell 84, elapsed: 0.00039196014404296875
ell 83, elapsed: 0.00031113624572753906
ell 82, elapsed: 0.0003688335418701172
ell 81, elapsed: 0.0004489421844482422
ell 80, elapsed: 0.0005168914794921875
ell 79, elapsed: 0.0003077983856201172
ell 78, elapsed: 0.0004260540008544922
ell 77, elapsed: 0.00032591819763183594
ell 76, elapsed: 0.0003719329833984375
ell 75, elapsed: 0.000308990478515625
ell 74, elapsed: 0.00037097930908203125
ell 73, elapsed: 0.00030994415283203125
ell 72, elapsed: 0.0003750324249267578
ell 71, elapsed: 0.00031113624572753906
ell 70, elapsed: 0.000370025634765625
ell 69, elapsed: 0.00030803680419921875
ell 68, elapsed: 0.0003879070281982422
ell 67, elapsed: 0.0003020763397216797
ell 66, elapsed: 0.0003771781921386719
ell 65, elapsed: 0.000308990478515625
ell 64, elapsed: 0.00040602684020996094
ell 63, elapsed: 0.0003151893615722656
ell 62, elapsed: 0.000370025634765625
ell 61, elapsed: 0.00030994415283203125
ell 60, elapsed: 0.00039696693420410156
ell 59, elapsed: 0.00030994415283203125
ell 58, elapsed: 0.00041604042053222656
ell 57, elapsed: 0.00032901763916015625
ell 56, elapsed: 0.0003879070281982422
ell 55, elapsed: 0.000308990478515625
ell 54, elapsed: 0.00038313865661621094
ell 53, elapsed: 0.0003120899200439453
ell 52, elapsed: 0.00036716461181640625
ell 51, elapsed: 0.00030994415283203125
ell 50, elapsed: 0.0005509853363037109
ell 49, elapsed: 0.00037980079650878906
ell 48, elapsed: 0.00039696693420410156
ell 47, elapsed: 0.0003361701965332031
ell 46, elapsed: 0.00038909912109375
ell 45, elapsed: 0.00033211708068847656
ell 44, elapsed: 0.00037980079650878906
ell 43, elapsed: 0.0003330707550048828
ell 42, elapsed: 0.0003821849822998047
ell 41, elapsed: 0.00032901763916015625
ell 40, elapsed: 0.0003750324249267578
ell 39, elapsed: 0.0003180503845214844
ell 38, elapsed: 0.0003819465637207031
ell 37, elapsed: 0.0003228187561035156
ell 36, elapsed: 0.00037407875061035156
ell 35, elapsed: 0.0004611015319824219
ell 34, elapsed: 0.0004990100860595703
ell 33, elapsed: 0.00031495094299316406
ell 32, elapsed: 0.00037789344787597656
ell 31, elapsed: 0.0003170967102050781
ell 30, elapsed: 0.0003669261932373047
ell 29, elapsed: 0.00030994415283203125
ell 28, elapsed: 0.00043487548828125
ell 27, elapsed: 0.0002999305725097656
ell 26, elapsed: 0.00036716461181640625
ell 25, elapsed: 0.0002999305725097656
ell 24, elapsed: 0.0003619194030761719
ell 23, elapsed: 0.0002949237823486328
ell 22, elapsed: 0.0003600120544433594
ell 21, elapsed: 0.0002961158752441406
ell 20, elapsed: 0.00035500526428222656
ell 19, elapsed: 0.00030112266540527344
ell 18, elapsed: 0.0003581047058105469
ell 17, elapsed: 0.00029397010803222656
ell 16, elapsed: 0.0006380081176757812
ell 15, elapsed: 0.0004189014434814453
ell 14, elapsed: 0.0003399848937988281
ell 13, elapsed: 0.00029015541076660156
ell 12, elapsed: 0.0003399848937988281
ell 11, elapsed: 0.0002830028533935547
ell 10, elapsed: 0.0003368854522705078
ell 9, elapsed: 0.00028395652770996094
ell 8, elapsed: 0.0003459453582763672
ell 7, elapsed: 0.00028705596923828125
ell 6, elapsed: 0.0005979537963867188
ell 5, elapsed: 0.0004730224609375
ell 4, elapsed: 0.0005640983581542969
ell 3, elapsed: 0.00046706199645996094
ell 2, elapsed: 0.0005669593811035156
ell 1, elapsed: 0.00047206878662109375
ell 0, elapsed: 0.0005640983581542969
  0.109505 seconds (10.83 k allocations: 697.938 KiB)
elapsed: 0.000682830810546875
step:          0.051065 sec (0 allocations: 0 byte, 0.0% gc time)
swapping:      0.000522 sec (0 allocations: 0 byte, 0.0% gc time)
calc_Mellell!: 0.001283 sec (0 allocations: 0 byte, 0.0% gc time)
  t0 :  0.000432 sec (0 allocations: 0 byte, 0.0% gc time)
  tm2 : 0.012696 sec (0 allocations: 0 byte, 0.0% gc time)
  tm2s: 0.000239 sec (0 allocations: 0 byte, 0.0% gc time)
  tm4 : 0.026546 sec (0 allocations: 0 byte, 0.0% gc time)
  tp2 : 0.0 sec (0 allocations: 0 byte, 0.0% gc time)
  tp2s: 0.0 sec (0 allocations: 0 byte, 0.0% gc time)
  tp4 : 0.0 sec (0 allocations: 0 byte, 0.0% gc time)
calc_wtdll!:   0.040349 sec (1.344 k allocations: 147.0 KB, 0.0% gc time)
calc_wljj!:    0.002333 sec (6 allocations: 96 byte, 0.0% gc time)
mult_prefac!:  0.0 sec (0 allocations: 0 byte, 0.0% gc time)
convert:       0.0 sec (0 allocations: 0 byte, 0.0% gc time)
write:         0.004143 sec (0 allocations: 0 byte, 0.0% gc time)
test_rand_2f1: 0.0 sec (0 allocations: 0 byte, 0.0% gc time)
Closing outfile out/Ml21-cache.bin...   0.003236 seconds
  0.000455 seconds (52 allocations: 28.297 KiB)
make_phi():   0.003317 seconds (8.20 k allocations: 238.016 KiB)
  0.022253 seconds (12.10 k allocations: 322.000 KiB)
tskip:       2.4e-5 sec (0 allocations: 0 byte, 0.0% gc time)
tread:       0.002778 sec (19 allocations: 2.172 KB, 0.0% gc time)
tmultphi:    0.001488 sec (0 allocations: 0 byte, 0.0% gc time)
tbrfft:      0.006725 sec (896 allocations: 42.0 KB, 0.0% gc time)
tmultprefac: 0.004801 sec (0 allocations: 0 byte, 0.0% gc time)
toutfunc:    0.006442 sec (10.528 k allocations: 206.5 KB, 0.0% gc time)
Testing R=0.9 ... passed
Calculating fmax: 
  dlrec    = 4
  dlrecRg1 = -4
  q=1.1, R=0.8:	  0.381203 seconds (113.61 k allocations: 15.166 MiB, 5.67% gc time)

  0.381544 seconds (113.66 k allocations: 15.200 MiB, 5.66% gc time)
ℓ = 1202
Δℓ = 4
ΔℓRg1 = -4
N = 1600
q = 1.1
kmin = 1.0e-5
kmax = 100000.00000000004
χ0 = 0.023029999999999995
RR = RR.tsv
ℓmax = ℓmax.bin
f21 = f21.bin
kmin = 1.0e-5
kmax = 100000.0
dlrec    = 4
dlrecRg1 = -4
Output size: 5741568 bytes = 0.005347251892089844 GiB
Output size: 51264 bytes = 4.774332046508789e-5 GiB
Reading 'out/F21EllCache'...   0.001013 seconds (267 allocations: 84.656 KiB)
ellmax: 1202
lmaxcache: 1202
fell[:,1,1] = Complex{Float64}[7.519068145690986e-120 - 1.8416405474382574e-135im, 7.541664537386155e-120 - 1.847175067190611e-135im]
ell 1202, elapsed: 2.09808349609375e-5
ell 1201, elapsed: 0.0005521774291992188
ell 1200, elapsed: 0.0004711151123046875
ell 1199, elapsed: 0.0004899501800537109
ell 1198, elapsed: 0.0004830360412597656
ell 1002, elapsed: 0.01066899299621582
ell 1001, elapsed: 0.0005691051483154297
ell 1000, elapsed: 0.0005669593811035156
ell 999, elapsed: 0.0005660057067871094
ell 998, elapsed: 0.0005590915679931641
ell 902, elapsed: 0.005212068557739258
ell 901, elapsed: 0.0004470348358154297
ell 900, elapsed: 0.0005609989166259766
ell 899, elapsed: 0.0005528926849365234
ell 898, elapsed: 0.000576019287109375
ell 802, elapsed: 0.005776166915893555
ell 801, elapsed: 0.0005300045013427734
ell 800, elapsed: 0.0005660057067871094
ell 799, elapsed: 0.000576019287109375
ell 798, elapsed: 0.0005578994750976562
ell 702, elapsed: 0.0053730010986328125
ell 701, elapsed: 0.0003800392150878906
ell 700, elapsed: 0.00035500526428222656
ell 699, elapsed: 0.0003509521484375
ell 698, elapsed: 0.0003521442413330078
ell 602, elapsed: 0.005360126495361328
ell 601, elapsed: 0.0003788471221923828
ell 600, elapsed: 0.0003581047058105469
ell 599, elapsed: 0.00034809112548828125
ell 598, elapsed: 0.0003590583801269531
ell 502, elapsed: 0.005240917205810547
ell 501, elapsed: 0.0003809928894042969
ell 500, elapsed: 0.00035691261291503906
ell 499, elapsed: 0.0003578662872314453
ell 498, elapsed: 0.0003559589385986328
ell 402, elapsed: 0.005424022674560547
ell 401, elapsed: 0.00039196014404296875
ell 400, elapsed: 0.00037980079650878906
ell 399, elapsed: 0.00035500526428222656
ell 398, elapsed: 0.00035691261291503906
ell 302, elapsed: 0.005259037017822266
ell 301, elapsed: 0.0005421638488769531
ell 300, elapsed: 0.00043487548828125
ell 299, elapsed: 0.0005059242248535156
ell 298, elapsed: 0.0005249977111816406
ell 202, elapsed: 0.005110979080200195
ell 201, elapsed: 0.0003898143768310547
ell 200, elapsed: 0.0003540515899658203
ell 199, elapsed: 0.00034809112548828125
ell 198, elapsed: 0.00047087669372558594
ell 152, elapsed: 0.0029370784759521484
ell 151, elapsed: 0.0003688335418701172
ell 150, elapsed: 0.00035381317138671875
ell 149, elapsed: 0.00035381317138671875
ell 148, elapsed: 0.00036215782165527344
ell 127, elapsed: 0.0016009807586669922
ell 126, elapsed: 0.0004329681396484375
ell 125, elapsed: 0.0005168914794921875
ell 124, elapsed: 0.00034809112548828125
ell 123, elapsed: 0.000492095947265625
ell 114, elapsed: 0.0009770393371582031
ell 113, elapsed: 0.0004410743713378906
ell 112, elapsed: 0.00055694580078125
ell 111, elapsed: 0.0005578994750976562
ell 110, elapsed: 0.0005619525909423828
ell 102, elapsed: 0.0012688636779785156
ell 101, elapsed: 0.0005218982696533203
ell 100, elapsed: 0.0005278587341308594
ell 99, elapsed: 0.0004949569702148438
ell 98, elapsed: 0.0005340576171875
ell 97, elapsed: 0.00041294097900390625
ell 96, elapsed: 0.0006508827209472656
ell 95, elapsed: 0.0004749298095703125
ell 94, elapsed: 0.00047898292541503906
ell 93, elapsed: 0.0003960132598876953
ell 92, elapsed: 0.0005700588226318359
ell 91, elapsed: 0.0005369186401367188
ell 90, elapsed: 0.0004799365997314453
ell 89, elapsed: 0.0003910064697265625
ell 88, elapsed: 0.0006539821624755859
ell 87, elapsed: 0.0005338191986083984
ell 86, elapsed: 0.00047206878662109375
ell 85, elapsed: 0.0005428791046142578
ell 84, elapsed: 0.0007569789886474609
ell 83, elapsed: 0.0005400180816650391
ell 82, elapsed: 0.0007410049438476562
ell 81, elapsed: 0.0005738735198974609
ell 80, elapsed: 0.0006148815155029297
ell 79, elapsed: 0.0006289482116699219
ell 78, elapsed: 0.0005679130554199219
ell 77, elapsed: 0.0004031658172607422
ell 76, elapsed: 0.0006721019744873047
ell 75, elapsed: 0.0006411075592041016
ell 74, elapsed: 0.0006399154663085938
ell 73, elapsed: 0.0005099773406982422
ell 72, elapsed: 0.0006189346313476562
ell 71, elapsed: 0.00039696693420410156
ell 70, elapsed: 0.0006818771362304688
ell 69, elapsed: 0.00043010711669921875
ell 68, elapsed: 0.0008242130279541016
ell 67, elapsed: 0.0005829334259033203
ell 66, elapsed: 0.0007510185241699219
ell 65, elapsed: 0.0006361007690429688
ell 64, elapsed: 0.0007469654083251953
ell 63, elapsed: 0.0008020401000976562
ell 62, elapsed: 0.0005970001220703125
ell 61, elapsed: 0.0005578994750976562
ell 60, elapsed: 0.00074005126953125
ell 59, elapsed: 0.0006301403045654297
ell 58, elapsed: 0.0007369518280029297
ell 57, elapsed: 0.000675201416015625
ell 56, elapsed: 0.0004780292510986328
ell 55, elapsed: 0.0005660057067871094
ell 54, elapsed: 0.0006680488586425781
ell 53, elapsed: 0.0005049705505371094
ell 52, elapsed: 0.0006549358367919922
ell 51, elapsed: 0.0007879734039306641
ell 50, elapsed: 0.0004839897155761719
ell 49, elapsed: 0.0004010200500488281
ell 48, elapsed: 0.0004799365997314453
ell 47, elapsed: 0.0004010200500488281
ell 46, elapsed: 0.0004870891571044922
ell 45, elapsed: 0.0004050731658935547
ell 44, elapsed: 0.0004889965057373047
ell 43, elapsed: 0.0005338191986083984
ell 42, elapsed: 0.0004930496215820312
ell 41, elapsed: 0.00041604042053222656
ell 40, elapsed: 0.000492095947265625
ell 39, elapsed: 0.00040411949157714844
ell 38, elapsed: 0.0004820823669433594
ell 37, elapsed: 0.0004639625549316406
ell 36, elapsed: 0.0007801055908203125
ell 35, elapsed: 0.0004429817199707031
ell 34, elapsed: 0.00047898292541503906
ell 33, elapsed: 0.0004909038543701172
ell 32, elapsed: 0.0006439685821533203
ell 31, elapsed: 0.0004119873046875
ell 30, elapsed: 0.00048279762268066406
ell 29, elapsed: 0.0004031658172607422
ell 28, elapsed: 0.0008831024169921875
ell 27, elapsed: 0.0006151199340820312
ell 26, elapsed: 0.0006589889526367188
ell 25, elapsed: 0.0005338191986083984
ell 24, elapsed: 0.0005869865417480469
ell 23, elapsed: 0.0003960132598876953
ell 22, elapsed: 0.0006058216094970703
ell 21, elapsed: 0.0004220008850097656
ell 20, elapsed: 0.0004639625549316406
ell 19, elapsed: 0.00039386749267578125
ell 18, elapsed: 0.0006628036499023438
ell 17, elapsed: 0.00043702125549316406
ell 16, elapsed: 0.0004730224609375
ell 15, elapsed: 0.0005350112915039062
[...]
ell 788, elapsed: 0.0008139610290527344
ell 782, elapsed: 0.002140045166015625
ell 781, elapsed: 0.0007710456848144531
ell 780, elapsed: 0.0007748603820800781
ell 779, elapsed: 0.0008099079132080078
ell 778, elapsed: 0.000782012939453125
ell 772, elapsed: 0.0014660358428955078
ell 771, elapsed: 0.0007719993591308594
ell 770, elapsed: 0.0007572174072265625
ell 769, elapsed: 0.0008080005645751953
ell 768, elapsed: 0.0007669925689697266
ell 762, elapsed: 0.0017349720001220703
ell 761, elapsed: 0.0009958744049072266
ell 760, elapsed: 0.0009860992431640625
ell 759, elapsed: 0.0009829998016357422
ell 758, elapsed: 0.0008130073547363281
ell 752, elapsed: 0.0014848709106445312
ell 751, elapsed: 0.0007691383361816406
ell 750, elapsed: 0.0007879734039306641
ell 749, elapsed: 0.0008080005645751953
ell 748, elapsed: 0.0007798671722412109
ell 742, elapsed: 0.0014879703521728516
ell 741, elapsed: 0.0007421970367431641
ell 740, elapsed: 0.0008008480072021484
ell 739, elapsed: 0.0007739067077636719
ell 738, elapsed: 0.0007569789886474609
ell 732, elapsed: 0.0014560222625732422
ell 731, elapsed: 0.0009469985961914062
ell 730, elapsed: 0.0009779930114746094
ell 729, elapsed: 0.0008230209350585938
ell 728, elapsed: 0.0007779598236083984
ell 722, elapsed: 0.0015399456024169922
ell 721, elapsed: 0.0008640289306640625
ell 720, elapsed: 0.0007700920104980469
ell 719, elapsed: 0.0007760524749755859
ell 718, elapsed: 0.0008578300476074219
ell 712, elapsed: 0.0015749931335449219
ell 711, elapsed: 0.0007750988006591797
ell 710, elapsed: 0.0007939338684082031
ell 709, elapsed: 0.0009150505065917969
ell 708, elapsed: 0.0009729862213134766
ell 702, elapsed: 0.0018019676208496094
ell 701, elapsed: 0.0007929801940917969
ell 700, elapsed: 0.0009379386901855469
ell 699, elapsed: 0.0007688999176025391
ell 698, elapsed: 0.0007851123809814453
ell 692, elapsed: 0.0015840530395507812
ell 691, elapsed: 0.0007770061492919922
ell 690, elapsed: 0.0007448196411132812
ell 689, elapsed: 0.0007572174072265625
ell 688, elapsed: 0.0008099079132080078
ell 682, elapsed: 0.0015480518341064453
ell 681, elapsed: 0.0008080005645751953
ell 680, elapsed: 0.0008101463317871094
ell 679, elapsed: 0.0007610321044921875
ell 678, elapsed: 0.0007967948913574219
ell 672, elapsed: 0.0015070438385009766
ell 671, elapsed: 0.0008001327514648438
ell 670, elapsed: 0.0007658004760742188
ell 669, elapsed: 0.0010461807250976562
ell 668, elapsed: 0.0007870197296142578
ell 662, elapsed: 0.00146484375
ell 661, elapsed: 0.0007708072662353516
ell 660, elapsed: 0.0014848709106445312
ell 659, elapsed: 0.0007789134979248047
ell 658, elapsed: 0.0007419586181640625
ell 652, elapsed: 0.0021750926971435547
ell 651, elapsed: 0.0008409023284912109
ell 650, elapsed: 0.0008258819580078125
ell 649, elapsed: 0.0008411407470703125
ell 648, elapsed: 0.0014810562133789062
ell 642, elapsed: 0.0014920234680175781
ell 641, elapsed: 0.0008530616760253906
ell 640, elapsed: 0.0016298294067382812
ell 639, elapsed: 0.0007700920104980469
ell 638, elapsed: 0.0007979869842529297
ell 632, elapsed: 0.002446889877319336
ell 631, elapsed: 0.0007719993591308594
ell 630, elapsed: 0.0013499259948730469
ell 629, elapsed: 0.0007932186126708984
ell 628, elapsed: 0.0007860660552978516
ell 622, elapsed: 0.0014948844909667969
ell 621, elapsed: 0.000782012939453125
ell 620, elapsed: 0.0009188652038574219
ell 619, elapsed: 0.0007829666137695312
ell 618, elapsed: 0.0007870197296142578
ell 612, elapsed: 0.0015249252319335938
ell 611, elapsed: 0.0007510185241699219
ell 610, elapsed: 0.0007700920104980469
ell 609, elapsed: 0.0007739067077636719
ell 608, elapsed: 0.0007779598236083984
ell 602, elapsed: 0.0015730857849121094
ell 601, elapsed: 0.0007841587066650391
ell 600, elapsed: 0.0007829666137695312
ell 599, elapsed: 0.0007710456848144531
ell 598, elapsed: 0.0008668899536132812
ell 592, elapsed: 0.00150299072265625
ell 591, elapsed: 0.0007410049438476562
ell 590, elapsed: 0.0007450580596923828
ell 589, elapsed: 0.000946044921875
ell 588, elapsed: 0.0008020401000976562
ell 582, elapsed: 0.0017368793487548828
ell 581, elapsed: 0.0007388591766357422
ell 580, elapsed: 0.0009500980377197266
ell 579, elapsed: 0.0007569789886474609
ell 578, elapsed: 0.0010759830474853516
ell 572, elapsed: 0.001692056655883789
ell 571, elapsed: 0.0009479522705078125
ell 570, elapsed: 0.0008108615875244141
ell 569, elapsed: 0.0008039474487304688
ell 568, elapsed: 0.0007789134979248047
ell 562, elapsed: 0.0017230510711669922
ell 561, elapsed: 0.0007588863372802734
ell 560, elapsed: 0.0007739067077636719
ell 559, elapsed: 0.0008699893951416016
ell 558, elapsed: 0.00078582763671875
ell 552, elapsed: 0.0017120838165283203
ell 551, elapsed: 0.0007359981536865234
ell 550, elapsed: 0.0011718273162841797
ell 549, elapsed: 0.0008080005645751953
ell 548, elapsed: 0.0008249282836914062
ell 542, elapsed: 0.001734018325805664
ell 541, elapsed: 0.0008130073547363281
ell 540, elapsed: 0.0008199214935302734
ell 539, elapsed: 0.0007910728454589844
ell 538, elapsed: 0.0008080005645751953
ell 532, elapsed: 0.001667022705078125
ell 531, elapsed: 0.0008192062377929688
ell 530, elapsed: 0.0008258819580078125
ell 529, elapsed: 0.000823974609375
ell 528, elapsed: 0.0009980201721191406
ell 522, elapsed: 0.0015709400177001953
ell 521, elapsed: 0.0008189678192138672
ell 520, elapsed: 0.0009469985961914062
ell 519, elapsed: 0.0008261203765869141
ell 518, elapsed: 0.0008099079132080078
ell 512, elapsed: 0.0015959739685058594
ell 511, elapsed: 0.0009708404541015625
ell 510, elapsed: 0.0008080005645751953
ell 509, elapsed: 0.0008199214935302734
ell 508, elapsed: 0.0008330345153808594
ell 502, elapsed: 0.001714944839477539
ell 501, elapsed: 0.0008301734924316406
ell 500, elapsed: 0.000823974609375
ell 499, elapsed: 0.0008089542388916016
ell 498, elapsed: 0.0009620189666748047
ell 492, elapsed: 0.0015261173248291016
ell 491, elapsed: 0.0008118152618408203
ell 490, elapsed: 0.000820159912109375
ell 489, elapsed: 0.0009610652923583984
ell 488, elapsed: 0.0008189678192138672
ell 482, elapsed: 0.0015740394592285156
ell 481, elapsed: 0.000982046127319336
ell 480, elapsed: 0.0008251667022705078
ell 479, elapsed: 0.0008118152618408203
ell 478, elapsed: 0.0008320808410644531
ell 472, elapsed: 0.0017368793487548828
ell 471, elapsed: 0.0008292198181152344
ell 470, elapsed: 0.0008039474487304688
ell 469, elapsed: 0.0008120536804199219
ell 468, elapsed: 0.0009698867797851562
ell 462, elapsed: 0.001725912094116211
ell 461, elapsed: 0.0007579326629638672
ell 460, elapsed: 0.0008211135864257812
ell 459, elapsed: 0.0009598731994628906
ell 458, elapsed: 0.0008389949798583984
ell 452, elapsed: 0.0017821788787841797
ell 451, elapsed: 0.0008838176727294922
ell 450, elapsed: 0.0008199214935302734
ell 449, elapsed: 0.001116037368774414
ell 448, elapsed: 0.0007998943328857422
ell 442, elapsed: 0.0016961097717285156
ell 441, elapsed: 0.0007951259613037109
ell 440, elapsed: 0.0007829666137695312
ell 439, elapsed: 0.0008051395416259766
ell 438, elapsed: 0.0008449554443359375
ell 432, elapsed: 0.0015251636505126953
ell 431, elapsed: 0.0008001327514648438
ell 430, elapsed: 0.0007917881011962891
ell 429, elapsed: 0.0008151531219482422
ell 428, elapsed: 0.0008020401000976562
ell 422, elapsed: 0.0015540122985839844
ell 421, elapsed: 0.0008139610290527344
ell 420, elapsed: 0.0008220672607421875
ell 419, elapsed: 0.0008099079132080078
ell 418, elapsed: 0.0008320808410644531
ell 412, elapsed: 0.0015919208526611328
ell 411, elapsed: 0.0008809566497802734
ell 410, elapsed: 0.000782012939453125
ell 409, elapsed: 0.0007848739624023438
ell 408, elapsed: 0.00080108642578125
ell 402, elapsed: 0.0016028881072998047
ell 401, elapsed: 0.0008189678192138672
ell 400, elapsed: 0.0008330345153808594
ell 399, elapsed: 0.000804901123046875
ell 398, elapsed: 0.0008540153503417969
ell 392, elapsed: 0.0015430450439453125
ell 391, elapsed: 0.0008149147033691406
ell 390, elapsed: 0.0008258819580078125
ell 389, elapsed: 0.0008790493011474609
ell 388, elapsed: 0.0008080005645751953
ell 382, elapsed: 0.0015451908111572266
ell 381, elapsed: 0.0008149147033691406
ell 380, elapsed: 0.0008959770202636719
ell 379, elapsed: 0.0008020401000976562
ell 378, elapsed: 0.0008080005645751953
ell 372, elapsed: 0.0015840530395507812
ell 371, elapsed: 0.0008158683776855469
ell 370, elapsed: 0.0008058547973632812
ell 369, elapsed: 0.0007979869842529297
ell 368, elapsed: 0.0008029937744140625
ell 362, elapsed: 0.0015540122985839844
ell 361, elapsed: 0.0008177757263183594
ell 360, elapsed: 0.0008068084716796875
ell 359, elapsed: 0.0008161067962646484
ell 358, elapsed: 0.0008349418640136719
ell 352, elapsed: 0.0015687942504882812
ell 351, elapsed: 0.0008480548858642578
ell 350, elapsed: 0.0008308887481689453
ell 349, elapsed: 0.0008349418640136719
ell 348, elapsed: 0.0008320808410644531
ell 342, elapsed: 0.0020279884338378906
ell 341, elapsed: 0.0008168220520019531
ell 340, elapsed: 0.0007851123809814453
ell 339, elapsed: 0.0007970333099365234
ell 338, elapsed: 0.0008211135864257812
ell 332, elapsed: 0.0015530586242675781
ell 331, elapsed: 0.0007910728454589844
ell 330, elapsed: 0.0007920265197753906
ell 329, elapsed: 0.0008120536804199219
ell 328, elapsed: 0.0010149478912353516
ell 322, elapsed: 0.0015480518341064453
ell 321, elapsed: 0.0010039806365966797
ell 320, elapsed: 0.0008220672607421875
ell 319, elapsed: 0.0008690357208251953
ell 318, elapsed: 0.0008440017700195312
ell 312, elapsed: 0.0015981197357177734
ell 311, elapsed: 0.0008168220520019531
ell 310, elapsed: 0.0008280277252197266
ell 309, elapsed: 0.0008001327514648438
ell 308, elapsed: 0.0008029937744140625
ell 302, elapsed: 0.0015788078308105469
ell 301, elapsed: 0.0011708736419677734
ell 300, elapsed: 0.0007810592651367188
ell 299, elapsed: 0.000823974609375
ell 298, elapsed: 0.0009031295776367188
ell 292, elapsed: 0.0018630027770996094
ell 291, elapsed: 0.0008111000061035156
ell 290, elapsed: 0.0008158683776855469
ell 289, elapsed: 0.0010809898376464844
ell 288, elapsed: 0.0008170604705810547
ell 282, elapsed: 0.0015659332275390625
ell 281, elapsed: 0.0008180141448974609
ell 280, elapsed: 0.0009210109710693359
ell 279, elapsed: 0.0008289813995361328
ell 278, elapsed: 0.0008299350738525391
ell 272, elapsed: 0.001703023910522461
ell 271, elapsed: 0.0008900165557861328
ell 270, elapsed: 0.0008118152618408203
ell 269, elapsed: 0.0008947849273681641
ell 268, elapsed: 0.0008308887481689453
ell 262, elapsed: 0.0015439987182617188
ell 261, elapsed: 0.0008418560028076172
ell 260, elapsed: 0.0008351802825927734
ell 259, elapsed: 0.0008308887481689453
ell 258, elapsed: 0.0008170604705810547
ell 252, elapsed: 0.0015370845794677734
ell 251, elapsed: 0.0008189678192138672
ell 250, elapsed: 0.0008361339569091797
ell 249, elapsed: 0.0008268356323242188
ell 248, elapsed: 0.0008139610290527344
ell 242, elapsed: 0.001589059829711914
ell 241, elapsed: 0.0008900165557861328
ell 240, elapsed: 0.0008299350738525391
ell 239, elapsed: 0.0008230209350585938
ell 238, elapsed: 0.0008471012115478516
ell 232, elapsed: 0.0016298294067382812
ell 231, elapsed: 0.0008299350738525391
ell 230, elapsed: 0.0008060932159423828
ell 229, elapsed: 0.0008189678192138672
ell 228, elapsed: 0.000804901123046875
ell 222, elapsed: 0.0029108524322509766
ell 221, elapsed: 0.0007729530334472656
ell 220, elapsed: 0.0009691715240478516
ell 219, elapsed: 0.0010569095611572266
ell 218, elapsed: 0.0008070468902587891
ell 212, elapsed: 0.0015609264373779297
ell 211, elapsed: 0.0008261203765869141
ell 210, elapsed: 0.0007939338684082031
ell 209, elapsed: 0.0007798671722412109
ell 208, elapsed: 0.0007870197296142578
ell 202, elapsed: 0.0015459060668945312
ell 201, elapsed: 0.0008280277252197266
ell 200, elapsed: 0.0008208751678466797
ell 199, elapsed: 0.0008301734924316406
ell 198, elapsed: 0.003793001174926758
ell 192, elapsed: 0.0020279884338378906
ell 191, elapsed: 0.0008308887481689453
ell 190, elapsed: 0.000823974609375
ell 189, elapsed: 0.0008409023284912109
ell 188, elapsed: 0.0008130073547363281
ell 182, elapsed: 0.0015971660614013672
ell 181, elapsed: 0.00086212158203125
ell 180, elapsed: 0.0008258819580078125
ell 179, elapsed: 0.0008130073547363281
ell 178, elapsed: 0.0008070468902587891
ell 172, elapsed: 0.0016009807586669922
ell 171, elapsed: 0.0008089542388916016
ell 170, elapsed: 0.0008180141448974609
ell 169, elapsed: 0.0008261203765869141
ell 168, elapsed: 0.0008428096771240234
ell 162, elapsed: 0.0016741752624511719
ell 161, elapsed: 0.0008258819580078125
ell 160, elapsed: 0.0008280277252197266
ell 159, elapsed: 0.0009169578552246094
ell 158, elapsed: 0.0008258819580078125
ell 152, elapsed: 0.00152587890625
ell 151, elapsed: 0.00080108642578125
ell 150, elapsed: 0.0008881092071533203
ell 149, elapsed: 0.0007898807525634766
ell 148, elapsed: 0.0008339881896972656
ell 142, elapsed: 0.0016379356384277344
ell 141, elapsed: 0.0008428096771240234
ell 140, elapsed: 0.0008180141448974609
ell 139, elapsed: 0.0008120536804199219
ell 138, elapsed: 0.000820159912109375
ell 132, elapsed: 0.0017931461334228516
ell 131, elapsed: 0.0007719993591308594
ell 130, elapsed: 0.0008170604705810547
ell 129, elapsed: 0.0008199214935302734
ell 128, elapsed: 0.0007770061492919922
ell 122, elapsed: 0.0014870166778564453
ell 121, elapsed: 0.0008149147033691406
ell 120, elapsed: 0.0007789134979248047
ell 119, elapsed: 0.0008208751678466797
ell 118, elapsed: 0.0008039474487304688
ell 112, elapsed: 0.001528024673461914
ell 111, elapsed: 0.0008230209350585938
ell 110, elapsed: 0.0008289813995361328
ell 109, elapsed: 0.0007748603820800781
ell 108, elapsed: 0.000782012939453125
ell 102, elapsed: 0.0015330314636230469
ell 101, elapsed: 0.003136873245239258
ell 100, elapsed: 0.003145933151245117
ell 99, elapsed: 0.0031499862670898438
ell 98, elapsed: 0.0033979415893554688
ell 92, elapsed: 0.00592803955078125
ell 91, elapsed: 0.0039010047912597656
ell 90, elapsed: 0.003177165985107422
ell 89, elapsed: 0.0034449100494384766
ell 88, elapsed: 0.0042188167572021484
ell 82, elapsed: 0.006072044372558594
ell 81, elapsed: 0.0034780502319335938
ell 80, elapsed: 0.003170013427734375
ell 79, elapsed: 0.0031790733337402344
ell 78, elapsed: 0.00333404541015625
ell 72, elapsed: 0.006442070007324219
ell 71, elapsed: 0.004419088363647461
ell 70, elapsed: 0.0033659934997558594
ell 69, elapsed: 0.0036640167236328125
ell 68, elapsed: 0.004043102264404297
ell 62, elapsed: 0.00609898567199707
ell 61, elapsed: 0.0032660961151123047
ell 60, elapsed: 0.0032989978790283203
ell 59, elapsed: 0.003582000732421875
ell 58, elapsed: 0.00316619873046875
ell 52, elapsed: 0.005915164947509766
ell 51, elapsed: 0.0034949779510498047
ell 50, elapsed: 0.0034830570220947266
ell 49, elapsed: 0.003337860107421875
ell 48, elapsed: 0.0034978389739990234
ell 42, elapsed: 0.006185054779052734
ell 41, elapsed: 0.003180980682373047
ell 40, elapsed: 0.003939151763916016
ell 39, elapsed: 0.0034427642822265625
ell 38, elapsed: 0.0034558773040771484
ell 32, elapsed: 0.005935192108154297
ell 31, elapsed: 0.004152059555053711
ell 30, elapsed: 0.0045011043548583984
ell 29, elapsed: 0.0045049190521240234
ell 28, elapsed: 0.004214048385620117
ell 22, elapsed: 0.006795167922973633
ell 21, elapsed: 0.004292011260986328
ell 20, elapsed: 0.0034928321838378906
ell 19, elapsed: 0.004603147506713867
ell 18, elapsed: 0.004559040069580078
ell 12, elapsed: 0.013914108276367188
ell 11, elapsed: 0.0041730403900146484
ell 10, elapsed: 0.004194021224975586
ell 9, elapsed: 0.003528118133544922
ell 8, elapsed: 0.003484010696411133
  0.787349 seconds (66.75 k allocations: 12.139 MiB)
elapsed: 0.004358053207397461
step:          0.069842 sec (0 allocations: 0 byte, 0.0% gc time)
swapping:      0.000786 sec (0 allocations: 0 byte, 0.0% gc time)
calc_Mellell!: 0.038783 sec (0 allocations: 0 byte, 0.0% gc time)
  t0 :  0.011597 sec (0 allocations: 0 byte, 0.0% gc time)
  tm2 : 0.081665 sec (0 allocations: 0 byte, 0.0% gc time)
  tm2s: 0.008751 sec (0 allocations: 0 byte, 0.0% gc time)
  tm4 : 0.184326 sec (0 allocations: 0 byte, 0.0% gc time)
  tp2 : 0.0 sec (0 allocations: 0 byte, 0.0% gc time)
  tp2s: 0.0 sec (0 allocations: 0 byte, 0.0% gc time)
  tp4 : 0.0 sec (0 allocations: 0 byte, 0.0% gc time)
calc_wtdll!:   0.550385 sec (49.2 k allocations: 11.133 MB, 0.0% gc time)
calc_wljj!:    0.041173 sec (69 allocations: 1.078 KB, 0.0% gc time)
mult_prefac!:  0.0 sec (0 allocations: 0 byte, 0.0% gc time)
convert:       0.0 sec (0 allocations: 0 byte, 0.0% gc time)
write:         0.036647 sec (0 allocations: 0 byte, 0.0% gc time)
test_rand_2f1: 0.0 sec (0 allocations: 0 byte, 0.0% gc time)
Closing outfile out/MlCache/MlCache.bin...   0.000010 seconds
xi, l=0, nu=0:   0.399493 seconds (551.85 k allocations: 26.842 MiB, 5.27% gc time)
xi, l=0, nu=-2:  0.002624 seconds (144 allocations: 149.562 KiB)
Created 'out/xi.tsv'.
  q=1.1, R=0.6:	  0.778040 seconds (291.08 k allocations: 38.895 MiB, 3.12% gc time)
  q=1.1, R=0.7:	  0.868468 seconds (304.75 k allocations: 40.996 MiB, 1.61% gc time)
  q=1.1, R=0.8:	  0.862604 seconds (299.14 k allocations: 40.132 MiB, 1.10% gc time)
  q=1.1, R=0.9:	  0.952455 seconds (293.57 k allocations: 39.286 MiB)
  q=1.1, R=0.998:	 21.659328 seconds (10.67 M allocations: 823.453 MiB, 0.82% gc time)
  q=1.1, R=1.0:	  0.004766 seconds (10.24 k allocations: 768.375 KiB)

ℓ = 1000
Δℓ = 4
ΔℓRg1 = -4
N = 4096
q = 1.1
kmin = 1.0e-5
kmax = 1000.0
χ0 = 0.001
RR = RR.tsv
ℓmax = ℓmax.bin
f21 = f21.bin
kmin = 1.0e-5
kmax = 1000.0
dlrec    = 4
dlrecRg1 = -4
Output size: 1573632 bytes = 0.0014655590057373047 GiB
Output size: 786816 bytes = 0.0007327795028686523 GiB
Reading 'out/F21EllCache'...   0.001650 seconds (268 allocations: 533.531 KiB)
ellmax: 1002
lmaxcache: 1000
fell[:,1,1] = Complex{Float64}[1.7262928128202118e-224 - 4.2281979352226944e-240im, 1.7282693092099662e-224 - 4.233038955177176e-240im]
ell 1002, elapsed: 3.409385681152344e-5
ell 1001, elapsed: 0.0013930797576904297
ell 1000, elapsed: 0.0011708736419677734
ell 999, elapsed: 0.008162975311279297
ell 998, elapsed: 0.007193088531494141
ell 44, elapsed: 0.6283359527587891
ell 43, elapsed: 0.006052970886230469
ell 42, elapsed: 0.006197929382324219
ell 41, elapsed: 0.006868839263916016
ell 40, elapsed: 0.0077359676361083984
  0.680793 seconds (4.55 k allocations: 320.031 KiB)
elapsed: 0.00721287727355957
step:          0.621395 sec (0 allocations: 0 byte, 0.0% gc time)
swapping:      0.000621 sec (0 allocations: 0 byte, 0.0% gc time)
calc_Mellell!: 0.001283 sec (0 allocations: 0 byte, 0.0% gc time)
  t0 :  0.000976 sec (0 allocations: 0 byte, 0.0% gc time)
  tm2 : 0.012369 sec (0 allocations: 0 byte, 0.0% gc time)
  tm2s: 0.000815 sec (0 allocations: 0 byte, 0.0% gc time)
  tm4 : 0.035489 sec (0 allocations: 0 byte, 0.0% gc time)
  tp2 : 0.0 sec (0 allocations: 0 byte, 0.0% gc time)
  tp2s: 0.0 sec (0 allocations: 0 byte, 0.0% gc time)
  tp4 : 0.0 sec (0 allocations: 0 byte, 0.0% gc time)
calc_wtdll!:   0.050012 sec (480 allocations: 52.5 KB, 0.0% gc time)
calc_wljj!:    0.001992 sec (1 allocations: 16 byte, 0.0% gc time)
mult_prefac!:  0.0 sec (0 allocations: 0 byte, 0.0% gc time)
convert:       0.0 sec (0 allocations: 0 byte, 0.0% gc time)
write:         0.001065 sec (0 allocations: 0 byte, 0.0% gc time)
test_rand_2f1: 0.0 sec (0 allocations: 0 byte, 0.0% gc time)
Closing outfile out/MlCache/MlCache.bin...   0.001299 seconds
  0.490310 seconds (54 allocations: 67.203 KiB)
make_phi():   0.009845 seconds (80 allocations: 276.297 KiB)
  0.004226 seconds (108 allocations: 5.812 KiB)
tskip:       1.0e-6 sec (0 allocations: 0 byte, 0.0% gc time)
tread:       0.000659 sec (19 allocations: 1.312 KB, 0.0% gc time)
tmultphi:    0.000372 sec (0 allocations: 0 byte, 0.0% gc time)
tbrfft:      0.001369 sec (96 allocations: 4.5 KB, 0.0% gc time)
tmultprefac: 0.00167 sec (0 allocations: 0 byte, 0.0% gc time)
toutfunc:    0.000252 sec (0 allocations: 0 byte, 0.0% gc time)
Created 'out/wl42_jj00.tsv'.
Created 'out/wl42_jj02.tsv'.
   Testing TwoFAST tests passed 
