Current time is 2020-10-25T23:17:24.173
Julia Version 1.5.3-pre.13
Commit 3de1115e9c (2020-10-23 21:58 UTC)
Platform Info:
  OS: Linux (x86_64-linux-gnu)
  CPU: AMD EPYC 7502 32-Core Processor
  WORD_SIZE: 64
  LIBM: libopenlibm
  LLVM: libLLVM-9.0.1 (ORCJIT, znver2)
Environment:
  JULIA_DEPOT_PATH = ::/usr/local/share/julia
  JULIA_NUM_THREADS = 2
  JULIA_MAX_NUM_PRECOMPILE_FILES = 9223372036854775807
  JULIA_PKG_SERVER = 

Starting installation at 2020-10-25T23:17:27.607
  Resolving package versions...
  Installed Readables ──────────────────── v0.3.3
  Installed MKL_jll ────────────────────── v2020.2.254+0
  Installed OpenSpecFun_jll ────────────── v0.5.3+4
  Installed GenericSVD ─────────────────── v0.3.0
  Installed SpecialFunctions ───────────── v0.10.3
  Installed FFTW ───────────────────────── v1.2.4
  Installed GenericSchur ───────────────── v0.4.0
  Installed Artifacts ──────────────────── v1.3.0
  Installed CompilerSupportLibraries_jll ─ v0.3.4+0
  Installed AbstractFFTs ───────────────── v0.5.0
  Installed FFTW_jll ───────────────────── v3.3.9+6
  Installed IntelOpenMP_jll ────────────── v2018.0.3+0
  Installed BinaryProvider ─────────────── v0.5.10
  Installed Reexport ───────────────────── v0.2.0
  Installed JLLWrappers ────────────────── v1.1.3
  Installed ArbNumerics ────────────────── v1.2.1
  Installed TwoFAST ────────────────────── v0.1.3
Updating `~/.julia/environments/v1.5/Project.toml`
  [0dd23c3e] + TwoFAST v0.1.3
Updating `~/.julia/environments/v1.5/Manifest.toml`
  [621f4979] + AbstractFFTs v0.5.0
  [7e558dbc] + ArbNumerics v1.2.1
  [56f22d72] + Artifacts v1.3.0
  [b99e7846] + BinaryProvider v0.5.10
  [e66e0078] + CompilerSupportLibraries_jll v0.3.4+0
  [7a1cc6ca] + FFTW v1.2.4
  [f5851436] + FFTW_jll v3.3.9+6
  [01680d73] + GenericSVD v0.3.0
  [c145ed77] + GenericSchur v0.4.0
  [1d5cc7b8] + IntelOpenMP_jll v2018.0.3+0
  [692b3bcd] + JLLWrappers v1.1.3
  [856f044c] + MKL_jll v2020.2.254+0
  [efe28fd5] + OpenSpecFun_jll v0.5.3+4
  [0d4725de] + Readables v0.3.3
  [189a3867] + Reexport v0.2.0
  [276daf66] + SpecialFunctions v0.10.3
  [0dd23c3e] + TwoFAST v0.1.3
  [2a0f44e3] + Base64
  [ade2ca70] + Dates
  [8bb1440f] + DelimitedFiles
  [8ba89e20] + Distributed
  [b77e0a4c] + InteractiveUtils
  [76f85450] + LibGit2
  [8f399da3] + Libdl
  [37e2e46d] + LinearAlgebra
  [56ddb016] + Logging
  [d6f4376e] + Markdown
  [a63ad114] + Mmap
  [44cfe95a] + Pkg
  [de0858da] + Printf
  [3fa0cd96] + REPL
  [9a3f8284] + Random
  [ea8e919c] + SHA
  [9e88b42a] + Serialization
  [6462fe0b] + Sockets
  [8dfed614] + Test
  [cf7118a7] + UUIDs
  [4ec0a83e] + Unicode
   Building FFTW ───────→ `~/.julia/packages/FFTW/DMUbN/deps/build.log`
   Building ArbNumerics → `~/.julia/packages/ArbNumerics/joGFm/deps/build.log`
Starting tests at 2020-10-25T23:17:59.316
    Testing TwoFAST
Status `/tmp/jl_j1pHoY/Project.toml`
  [7e558dbc] ArbNumerics v1.2.1
  [39dd38d3] Dierckx v0.5.0
  [7a1cc6ca] FFTW v1.2.4
  [276daf66] SpecialFunctions v0.10.3
  [0dd23c3e] TwoFAST v0.1.3
  [8bb1440f] DelimitedFiles
  [37e2e46d] LinearAlgebra
  [56ddb016] Logging
  [8dfed614] Test
Status `/tmp/jl_j1pHoY/Manifest.toml`
  [621f4979] AbstractFFTs v0.5.0
  [7e558dbc] ArbNumerics v1.2.1
  [56f22d72] Artifacts v1.3.0
  [b99e7846] BinaryProvider v0.5.10
  [e66e0078] CompilerSupportLibraries_jll v0.3.4+0
  [39dd38d3] Dierckx v0.5.0
  [cd4c43a9] Dierckx_jll v0.0.1+0
  [7a1cc6ca] FFTW v1.2.4
  [f5851436] FFTW_jll v3.3.9+6
  [01680d73] GenericSVD v0.3.0
  [c145ed77] GenericSchur v0.4.0
  [1d5cc7b8] IntelOpenMP_jll v2018.0.3+0
  [692b3bcd] JLLWrappers v1.1.3
  [856f044c] MKL_jll v2020.2.254+0
  [efe28fd5] OpenSpecFun_jll v0.5.3+4
  [0d4725de] Readables v0.3.3
  [189a3867] Reexport v0.2.0
  [276daf66] SpecialFunctions v0.10.3
  [0dd23c3e] TwoFAST v0.1.3
  [2a0f44e3] Base64
  [ade2ca70] Dates
  [8bb1440f] DelimitedFiles
  [8ba89e20] Distributed
  [b77e0a4c] InteractiveUtils
  [76f85450] LibGit2
  [8f399da3] Libdl
  [37e2e46d] LinearAlgebra
  [56ddb016] Logging
  [d6f4376e] Markdown
  [a63ad114] Mmap
  [44cfe95a] Pkg
  [de0858da] Printf
  [3fa0cd96] REPL
  [9a3f8284] Random
  [ea8e919c] SHA
  [9e88b42a] Serialization
  [6462fe0b] Sockets
  [8dfed614] Test
  [cf7118a7] UUIDs
  [4ec0a83e] Unicode
t = 0.0 sec (0 allocations: 0 byte, 0.0% gc time)
typeof(t) = NamedTuple{(:value, :time, :bytes, :gctime, :gcstats),Tuple{DataType,Float64,Int64,Float64,Base.GC_Diff}}
TwoFAST.PerformanceStats.TimedType = Union{NamedTuple{(:value, :time, :bytes, :gctime, :gcstats),Tuple{T,Float64,Int64,Float64,Base.GC_Diff}}, Tuple{Any,Float64,Int64,Float64,Base.GC_Diff}} where T
t = 0.0 sec (0 allocations: 0 byte, 0.0% gc time)
t: 0.0 sec (0 allocations: 0 byte, 0.0% gc time)
Testing ξ(r), ℓ=0, ν=-1 ... passed
Testing ξ(r), ℓ=0, ν=0 ... passed
Testing ξ(r), ℓ=0, ν=1 ... passed
Testing ξ(r), ℓ=0, ν=2 ... passed
Testing ξ(r), ℓ=0, ν=3 ... passed
Testing ξ(r), ℓ=1, ν=0 ... passed
Testing ξ(r), ℓ=1, ν=1 ... passed
Testing ξ(r), ℓ=1, ν=2 ... passed
Testing ξ(r), ℓ=1, ν=3 ... passed
Testing ξ(r), ℓ=2, ν=-1 ... passed
Testing ξ(r), ℓ=2, ν=0 ... passed
Testing ξ(r), ℓ=2, ν=1 ... passed
Testing ξ(r), ℓ=2, ν=2 ... passed
Testing ξ(r), ℓ=2, ν=3 ... passed
Testing ξ(r), ℓ=3, ν=-1 ... passed
Testing ξ(r), ℓ=3, ν=0 ... passed
Testing ξ(r), ℓ=3, ν=1 ... passed
Testing ξ(r), ℓ=3, ν=2 ... passed
Testing ξ(r), ℓ=3, ν=3 ... passed
Testing ξ(r), ℓ=4, ν=-1 ... passed
Testing ξ(r), ℓ=4, ν=0 ... passed
Testing ξ(r), ℓ=4, ν=1 ... passed
Testing ξ(r), ℓ=4, ν=2 ... passed
Testing ξ(r), ℓ=4, ν=3 ... passed
Testing ξ(r) ... passed
Testing ξ′(r) ... passed
Testing ξ″(r) ... passed
Calculating fmax: 
  dlrec    = 4
  dlrecRg1 = -4
  q=1.1, R=1.1:	  3.759525 seconds (1.19 M allocations: 67.981 MiB, 1.18% gc time)

  3.812025 seconds (1.20 M allocations: 68.666 MiB, 1.82% gc time)
ℓ = 1202
Δℓ = 4
ΔℓRg1 = -4
N = 1600
q = 1.1
kmin = 1.0e-5
kmax = 100000.00000000004
χ0 = 0.023029999999999995
RR = RR.tsv
ℓmax = ℓmax.bin
f21 = f21.bin
kmin = 1.0e-5
kmax = 100000.0
dlrec    = 4
dlrecRg1 = -4
Output size: 5741568 bytes = 0.005347251892089844 GiB
Output size: 51264 bytes = 4.774332046508789e-5 GiB
Reading 'out/F21EllCache'...   0.674012 seconds (406.85 k allocations: 21.350 MiB)
ellmax: 1202
lmaxcache: 1202
fell[:,1,1] = Complex{Float64}[3.9583795592771634e-52 - 9.695233714158177e-68im, 3.990121772925759e-52 - 9.772979714843386e-68im]
ell 1202, elapsed: 0.006288051605224609
ell 1201, elapsed: 1.8734948635101318
ell 1200, elapsed: 0.0004019737243652344
ell 1199, elapsed: 0.0003750324249267578
ell 1198, elapsed: 0.00037479400634765625
ell 1002, elapsed: 0.00814509391784668
ell 1001, elapsed: 0.0003800392150878906
ell 1000, elapsed: 0.00038695335388183594
ell 999, elapsed: 0.0003750324249267578
ell 998, elapsed: 0.00037288665771484375
ell 902, elapsed: 0.004176139831542969
ell 901, elapsed: 0.0003788471221923828
ell 900, elapsed: 0.0003771781921386719
ell 899, elapsed: 0.00037384033203125
ell 898, elapsed: 0.0003750324249267578
ell 802, elapsed: 0.004148960113525391
ell 801, elapsed: 0.0003788471221923828
ell 800, elapsed: 0.0003731250762939453
ell 799, elapsed: 0.00038814544677734375
ell 798, elapsed: 0.0003750324249267578
ell 702, elapsed: 0.004199028015136719
ell 701, elapsed: 0.0003819465637207031
ell 700, elapsed: 0.0003781318664550781
ell 699, elapsed: 0.0003781318664550781
ell 698, elapsed: 0.0003769397735595703
ell 602, elapsed: 0.004187107086181641
ell 601, elapsed: 0.0003819465637207031
ell 600, elapsed: 0.0003771781921386719
ell 599, elapsed: 0.0003781318664550781
ell 598, elapsed: 0.00037598609924316406
ell 502, elapsed: 0.0042078495025634766
ell 501, elapsed: 0.00037980079650878906
ell 500, elapsed: 0.0003790855407714844
ell 499, elapsed: 0.00037598609924316406
ell 498, elapsed: 0.00037598609924316406
ell 402, elapsed: 0.0041811466217041016
ell 401, elapsed: 0.0003781318664550781
ell 400, elapsed: 0.00037384033203125
ell 399, elapsed: 0.0003769397735595703
ell 398, elapsed: 0.00037407875061035156
ell 302, elapsed: 0.0041887760162353516
ell 301, elapsed: 0.0004010200500488281
ell 300, elapsed: 0.0003719329833984375
ell 299, elapsed: 0.00037598609924316406
ell 298, elapsed: 0.00037097930908203125
ell 202, elapsed: 0.004151821136474609
ell 201, elapsed: 0.000370025634765625
ell 200, elapsed: 0.00036787986755371094
ell 199, elapsed: 0.0003681182861328125
ell 198, elapsed: 0.0003790855407714844
ell 152, elapsed: 0.002173900604248047
ell 151, elapsed: 0.0003688335418701172
ell 150, elapsed: 0.0003769397735595703
ell 149, elapsed: 0.000370025634765625
ell 148, elapsed: 0.00037097930908203125
ell 127, elapsed: 0.001219034194946289
ell 126, elapsed: 0.0003719329833984375
ell 125, elapsed: 0.000370025634765625
ell 124, elapsed: 0.0003809928894042969
ell 123, elapsed: 0.0003750324249267578
ell 114, elapsed: 0.0007269382476806641
ell 113, elapsed: 0.0003719329833984375
ell 112, elapsed: 0.00037407875061035156
ell 111, elapsed: 0.00037288665771484375
ell 110, elapsed: 0.0003840923309326172
ell 102, elapsed: 0.0007410049438476562
ell 101, elapsed: 0.0003769397735595703
ell 100, elapsed: 0.0003781318664550781
ell 99, elapsed: 0.0003771781921386719
ell 98, elapsed: 0.0003769397735595703
ell 97, elapsed: 0.00041794776916503906
ell 96, elapsed: 0.0004210472106933594
ell 95, elapsed: 0.00041604042053222656
ell 94, elapsed: 0.00041484832763671875
ell 93, elapsed: 0.00044608116149902344
ell 92, elapsed: 0.0004150867462158203
ell 91, elapsed: 0.0004220008850097656
ell 90, elapsed: 0.0004169940948486328
ell 89, elapsed: 0.00041294097900390625
ell 88, elapsed: 0.0004220008850097656
ell 87, elapsed: 0.00041985511779785156
ell 86, elapsed: 0.0004241466522216797
ell 85, elapsed: 0.0004229545593261719
ell 84, elapsed: 0.000453948974609375
ell 83, elapsed: 0.0004189014434814453
ell 82, elapsed: 0.0004169940948486328
ell 81, elapsed: 0.0004229545593261719
ell 80, elapsed: 0.0004220008850097656
ell 79, elapsed: 0.00041413307189941406
ell 78, elapsed: 0.00043511390686035156
ell 77, elapsed: 0.0004189014434814453
ell 76, elapsed: 0.00043201446533203125
ell 75, elapsed: 0.00043892860412597656
ell 74, elapsed: 0.0004241466522216797
ell 73, elapsed: 0.00041484832763671875
ell 72, elapsed: 0.0004169940948486328
ell 71, elapsed: 0.0004220008850097656
ell 70, elapsed: 0.0004200935363769531
ell 69, elapsed: 0.0004210472106933594
ell 68, elapsed: 0.00041794776916503906
ell 67, elapsed: 0.00041794776916503906
ell 66, elapsed: 0.0005128383636474609
ell 65, elapsed: 0.0004150867462158203
ell 64, elapsed: 0.0004220008850097656
ell 63, elapsed: 0.0004119873046875
ell 62, elapsed: 0.00041294097900390625
ell 61, elapsed: 0.0004210472106933594
ell 60, elapsed: 0.0004150867462158203
ell 59, elapsed: 0.0004220008850097656
ell 58, elapsed: 0.00041294097900390625
ell 57, elapsed: 0.00043392181396484375
ell 56, elapsed: 0.0004210472106933594
ell 55, elapsed: 0.00041294097900390625
ell 54, elapsed: 0.0004169940948486328
ell 53, elapsed: 0.0004150867462158203
ell 52, elapsed: 0.0004100799560546875
ell 51, elapsed: 0.0004189014434814453
ell 50, elapsed: 0.00041604042053222656
ell 49, elapsed: 0.0004210472106933594
ell 48, elapsed: 0.00043320655822753906
ell 47, elapsed: 0.0004150867462158203
ell 46, elapsed: 0.0004169940948486328
ell 45, elapsed: 0.0004138946533203125
ell 44, elapsed: 0.0004169940948486328
ell 43, elapsed: 0.00041222572326660156
ell 42, elapsed: 0.00041103363037109375
ell 41, elapsed: 0.00041794776916503906
ell 40, elapsed: 0.00041413307189941406
ell 39, elapsed: 0.0004191398620605469
ell 38, elapsed: 0.00041794776916503906
ell 37, elapsed: 0.00041413307189941406
ell 36, elapsed: 0.0004169940948486328
ell 35, elapsed: 0.0004131793975830078
ell 34, elapsed: 0.0004291534423828125
ell 33, elapsed: 0.0004169940948486328
ell 32, elapsed: 0.0004169940948486328
ell 31, elapsed: 0.0004248619079589844
ell 30, elapsed: 0.0004220008850097656
ell 29, elapsed: 0.0004470348358154297
ell 28, elapsed: 0.0004229545593261719
ell 27, elapsed: 0.00041413307189941406
ell 26, elapsed: 0.0004189014434814453
ell 25, elapsed: 0.0004241466522216797
ell 24, elapsed: 0.0004229545593261719
ell 23, elapsed: 0.00041413307189941406
ell 22, elapsed: 0.0004239082336425781
ell 21, elapsed: 0.0004169940948486328
ell 20, elapsed: 0.0004329681396484375
ell 19, elapsed: 0.00042700767517089844
ell 18, elapsed: 0.0004200935363769531
ell 17, elapsed: 0.0004229545593261719
ell 16, elapsed: 0.00041794776916503906
ell 15, elapsed: 0.00041794776916503906
ell 14, elapsed: 0.00042700767517089844
ell 13, elapsed: 0.000415802001953125
ell 12, elapsed: 0.0004210472106933594
ell 11, elapsed: 0.00045418739318847656
ell 10, elapsed: 0.00041794776916503906
ell 9, elapsed: 0.00041985511779785156
ell 8, elapsed: 0.0004169940948486328
ell 7, elapsed: 0.0004260540008544922
ell 6, elapsed: 0.00041794776916503906
ell 5, elapsed: 0.0004208087921142578
ell 4, elapsed: 0.00042700767517089844
ell 3, elapsed: 0.0004210472106933594
ell 2, elapsed: 0.0004439353942871094
ell 1, elapsed: 0.0004210472106933594
ell 0, elapsed: 0.0004220008850097656
  2.369057 seconds (1.83 M allocations: 90.089 MiB, 2.39% gc time)
elapsed: 0.0005059242248535156
step:          0.659457 sec (519.449 k allocations: 25.954 MB, 0.0% gc time)
swapping:      0.000365 sec (0 allocations: 0 byte, 0.0% gc time)
calc_Mellell!: 0.428266 sec (342.648 k allocations: 17.381 MB, 0.0% gc time)
  t0 :  0.0 sec (0 allocations: 0 byte, 0.0% gc time)
  tm2 : 0.0 sec (0 allocations: 0 byte, 0.0% gc time)
  tm2s: 0.0 sec (0 allocations: 0 byte, 0.0% gc time)
  tm4 : 0.0 sec (0 allocations: 0 byte, 0.0% gc time)
  tp2 : 0.0 sec (0 allocations: 0 byte, 0.0% gc time)
  tp2s: 0.0 sec (0 allocations: 0 byte, 0.0% gc time)
  tp4 : 0.0 sec (0 allocations: 0 byte, 0.0% gc time)
calc_wtdll!:   0.887017 sec (487.995 k allocations: 24.553 MB, 3.65% gc time)
calc_wljj!:    0.001963 sec (6 allocations: 96 byte, 0.0% gc time)
mult_prefac!:  0.0 sec (0 allocations: 0 byte, 0.0% gc time)
convert:       0.0 sec (0 allocations: 0 byte, 0.0% gc time)
write:         0.002546 sec (0 allocations: 0 byte, 0.0% gc time)
test_rand_2f1: 0.0 sec (0 allocations: 0 byte, 0.0% gc time)
Closing outfile out/Ml21-cache.bin...   0.000006 seconds
  0.826388 seconds (8.33 k allocations: 412.422 KiB)
make_phi():   0.007861 seconds (8.18 k allocations: 237.766 KiB)
  0.221233 seconds (111.47 k allocations: 5.553 MiB)
tskip:       1.7e-5 sec (0 allocations: 0 byte, 0.0% gc time)
tread:       0.002155 sec (17 allocations: 2.125 KB, 0.0% gc time)
tmultphi:    0.034104 sec (23.398 k allocations: 1.246 MB, 0.0% gc time)
tbrfft:      0.003059 sec (0 allocations: 0 byte, 0.0% gc time)
tmultprefac: 0.001674 sec (0 allocations: 0 byte, 0.0% gc time)
toutfunc:    0.146443 sec (86.334 k allocations: 4.172 MB, 0.0% gc time)
Testing R=1.1 ... passed
Calculating fmax: 
  dlrec    = 4
  dlrecRg1 = -4
  q=1.1, R=1.0:	  0.001117 seconds (3.20 k allocations: 275.344 KiB)

  0.001235 seconds (3.25 k allocations: 310.312 KiB)
ℓ = 1202
Δℓ = 4
ΔℓRg1 = -4
N = 1600
q = 1.1
kmin = 1.0e-5
kmax = 100000.00000000004
χ0 = 0.023029999999999995
RR = RR.tsv
ℓmax = ℓmax.bin
f21 = f21.bin
kmin = 1.0e-5
kmax = 100000.0
dlrec    = 4
dlrecRg1 = -4
Output size: 61465536 bytes = 0.05724424123764038 GiB
Output size: 51264 bytes = 4.774332046508789e-5 GiB
Reading 'out/F21EllCache'...   0.000851 seconds (237 allocations: 85.453 KiB)
ellmax: 1202
lmaxcache: 1202
fell[:,1,1] = Complex{Float64}[809.6031528389767 - 1.9829558194077161e-13im, 0.0 + 0.0im]
ell 1202, elapsed: 1.6927719116210938e-5
ell 1201, elapsed: 0.012353897094726562
ell 1200, elapsed: 0.012256145477294922
ell 1199, elapsed: 0.00030803680419921875
ell 1198, elapsed: 0.00027108192443847656
ell 1197, elapsed: 0.00031304359436035156
ell 1196, elapsed: 0.0002880096435546875
ell 1195, elapsed: 0.00028586387634277344
ell 1194, elapsed: 0.0002880096435546875
ell 1193, elapsed: 0.00028896331787109375
ell 1192, elapsed: 0.0002899169921875
ell 1191, elapsed: 0.00028204917907714844
ell 1190, elapsed: 0.00030803680419921875
ell 1189, elapsed: 0.0002849102020263672
ell 1188, elapsed: 0.0002880096435546875
ell 1187, elapsed: 0.0003039836883544922
ell 1186, elapsed: 0.0003170967102050781
ell 1185, elapsed: 0.0002961158752441406
ell 1184, elapsed: 0.00028896331787109375
ell 1183, elapsed: 0.00028705596923828125
ell 1182, elapsed: 0.0002880096435546875
ell 1181, elapsed: 0.0002830028533935547
ell 1180, elapsed: 0.00028705596923828125
ell 1179, elapsed: 0.00028204917907714844
ell 1178, elapsed: 0.00028514862060546875
ell 1177, elapsed: 0.000308990478515625
ell 1176, elapsed: 0.00028586387634277344
ell 1175, elapsed: 0.0002942085266113281
ell 1174, elapsed: 0.0002899169921875
ell 1173, elapsed: 0.0003979206085205078
ell 1172, elapsed: 0.002087116241455078
ell 1171, elapsed: 0.000782012939453125
ell 1170, elapsed: 0.00031185150146484375
ell 1169, elapsed: 0.0002849102020263672
ell 1168, elapsed: 0.00031685829162597656
ell 1167, elapsed: 0.0002899169921875
ell 1166, elapsed: 0.00028514862060546875
ell 1165, elapsed: 0.0002949237823486328
ell 1164, elapsed: 0.0002799034118652344
ell 1163, elapsed: 0.000286102294921875
ell 1162, elapsed: 0.0002911090850830078
ell 1161, elapsed: 0.0002779960632324219
ell 1160, elapsed: 0.00028514862060546875
ell 1159, elapsed: 0.00028896331787109375
ell 1158, elapsed: 0.0002791881561279297
ell 1157, elapsed: 0.0003008842468261719
ell 1156, elapsed: 0.0002880096435546875
ell 1155, elapsed: 0.0003190040588378906
ell 1154, elapsed: 0.0002789497375488281
ell 1153, elapsed: 0.0002818107604980469
ell 1152, elapsed: 0.0002918243408203125
ell 1151, elapsed: 0.0002810955047607422
ell 1150, elapsed: 0.00029206275939941406
ell 1149, elapsed: 0.00028204917907714844
ell 1148, elapsed: 0.00029015541076660156
ell 1147, elapsed: 0.0002810955047607422
ell 1146, elapsed: 0.00028395652770996094
ell 1145, elapsed: 0.0002899169921875
ell 1144, elapsed: 0.0002880096435546875
ell 1143, elapsed: 0.000286102294921875
ell 1142, elapsed: 0.0003249645233154297
ell 1141, elapsed: 0.0002799034118652344
ell 1140, elapsed: 0.00029397010803222656
ell 1139, elapsed: 0.0002789497375488281
ell 1138, elapsed: 0.00028586387634277344
ell 1137, elapsed: 0.0002789497375488281
ell 1136, elapsed: 0.0002830028533935547
ell 1135, elapsed: 0.00029087066650390625
ell 1134, elapsed: 0.00028204917907714844
ell 1133, elapsed: 0.00028896331787109375
ell 1132, elapsed: 0.0002789497375488281
ell 1131, elapsed: 0.0002818107604980469
ell 1130, elapsed: 0.00028204917907714844
ell 1129, elapsed: 0.0003020763397216797
ell 1128, elapsed: 0.0002868175506591797
ell 1127, elapsed: 0.00028395652770996094
ell 1126, elapsed: 0.0002779960632324219
ell 1125, elapsed: 0.00028896331787109375
ell 1124, elapsed: 0.00028014183044433594
ell 1123, elapsed: 0.000286102294921875
ell 1122, elapsed: 0.0002779960632324219
ell 1121, elapsed: 0.0002808570861816406
ell 1120, elapsed: 0.0002810955047607422
ell 1119, elapsed: 0.0002779960632324219
ell 1118, elapsed: 0.00028204917907714844
ell 1117, elapsed: 0.00028204917907714844
ell 1116, elapsed: 0.0003249645233154297
ell 1115, elapsed: 0.00028395652770996094
ell 1114, elapsed: 0.0002739429473876953
ell 1113, elapsed: 0.00027680397033691406
ell 1112, elapsed: 0.0002620220184326172
ell 1111, elapsed: 0.00027489662170410156
ell 1110, elapsed: 0.0002758502960205078
ell 1109, elapsed: 0.0002770423889160156
ell 1108, elapsed: 0.0002810955047607422
ell 1107, elapsed: 0.0002760887145996094
ell 1106, elapsed: 0.00028204917907714844
ell 1105, elapsed: 0.0002789497375488281
ell 1104, elapsed: 0.00027680397033691406
ell 1103, elapsed: 0.0002808570861816406
ell 1102, elapsed: 0.0002791881561279297
ell 1101, elapsed: 0.0002770423889160156
ell 1100, elapsed: 0.0002770423889160156
ell 1099, elapsed: 0.0002789497375488281
ell 1098, elapsed: 0.00028014183044433594
ell 1097, elapsed: 0.0002830028533935547
ell 1096, elapsed: 0.00028204917907714844
ell 1095, elapsed: 0.00026798248291015625
ell 1094, elapsed: 0.0002720355987548828
ell 1093, elapsed: 0.00028204917907714844
ell 1092, elapsed: 0.0002779960632324219
ell 1091, elapsed: 0.0002758502960205078
ell 1090, elapsed: 0.0002808570861816406
ell 1089, elapsed: 0.0003688335418701172
ell 1088, elapsed: 0.00028204917907714844
ell 1087, elapsed: 0.0002830028533935547
ell 1086, elapsed: 0.0002830028533935547
ell 1085, elapsed: 0.0002751350402832031
ell 1084, elapsed: 0.0002830028533935547
ell 1083, elapsed: 0.00029397010803222656
ell 1082, elapsed: 0.00028014183044433594
ell 1081, elapsed: 0.00028896331787109375
ell 1080, elapsed: 0.0002880096435546875
ell 1079, elapsed: 0.0002899169921875
ell 1078, elapsed: 0.00029397010803222656
ell 1077, elapsed: 0.0002808570861816406
ell 1076, elapsed: 0.0003178119659423828
ell 1075, elapsed: 0.000286102294921875
ell 1074, elapsed: 0.00028204917907714844
ell 1073, elapsed: 0.00028705596923828125
ell 1072, elapsed: 0.000286102294921875
ell 1071, elapsed: 0.0002930164337158203
ell 1070, elapsed: 0.00029206275939941406
ell 1069, elapsed: 0.0002830028533935547
ell 1068, elapsed: 0.00029206275939941406
ell 1067, elapsed: 0.0002789497375488281
ell 1066, elapsed: 0.0002880096435546875
ell 1065, elapsed: 0.0002789497375488281
ell 1064, elapsed: 0.00028014183044433594
ell 1063, elapsed: 0.0003249645233154297
ell 1062, elapsed: 0.0002830028533935547
ell 1061, elapsed: 0.00028705596923828125
ell 1060, elapsed: 0.0002830028533935547
ell 1059, elapsed: 0.0002849102020263672
ell 1058, elapsed: 0.00029087066650390625
ell 1057, elapsed: 0.0002849102020263672
ell 1056, elapsed: 0.00028896331787109375
ell 1055, elapsed: 0.0002899169921875
ell 1054, elapsed: 0.00028204917907714844
ell 1053, elapsed: 0.0002880096435546875
ell 1052, elapsed: 0.00028395652770996094
ell 1051, elapsed: 0.00030612945556640625
ell 1050, elapsed: 0.0003337860107421875
ell 1049, elapsed: 0.0002961158752441406
ell 1048, elapsed: 0.00028896331787109375
ell 1047, elapsed: 0.000286102294921875
ell 1046, elapsed: 0.0002911090850830078
ell 1045, elapsed: 0.0002880096435546875
ell 1044, elapsed: 0.0002999305725097656
ell 1043, elapsed: 0.0002880096435546875
ell 1042, elapsed: 0.0002841949462890625
ell 1041, elapsed: 0.0002892017364501953
ell 1040, elapsed: 0.0002830028533935547
ell 1039, elapsed: 0.00028896331787109375
ell 1038, elapsed: 0.00030493736267089844
ell 1037, elapsed: 0.0003180503845214844
ell 1036, elapsed: 0.00029587745666503906
ell 1035, elapsed: 0.0002799034118652344
ell 1034, elapsed: 0.000286102294921875
ell 1033, elapsed: 0.00028514862060546875
ell 1032, elapsed: 0.00028896331787109375
ell 1031, elapsed: 0.00029397010803222656
ell 1030, elapsed: 0.000286102294921875
ell 1029, elapsed: 0.0002961158752441406
ell 1028, elapsed: 0.00028705596923828125
ell 1027, elapsed: 0.0002799034118652344
ell 1026, elapsed: 0.0002880096435546875
ell 1025, elapsed: 0.0002880096435546875
ell 1024, elapsed: 0.0003399848937988281
ell 1023, elapsed: 0.0002849102020263672
ell 1022, elapsed: 0.00029397010803222656
ell 1021, elapsed: 0.0002980232238769531
ell 1020, elapsed: 0.0002598762512207031
ell 1019, elapsed: 0.000286102294921875
ell 1018, elapsed: 0.00026917457580566406
ell 1017, elapsed: 0.00028705596923828125
ell 1016, elapsed: 0.0002999305725097656
ell 1015, elapsed: 0.00024700164794921875
ell 1014, elapsed: 0.0003039836883544922
ell 1013, elapsed: 0.00030493736267089844
ell 1012, elapsed: 0.0002989768981933594
ell 1011, elapsed: 0.00030493736267089844
ell 1010, elapsed: 0.0002880096435546875
ell 1009, elapsed: 0.0002999305725097656
ell 1008, elapsed: 0.0002930164337158203
ell 1007, elapsed: 0.00026798248291015625
ell 1006, elapsed: 0.000263214111328125
ell 1005, elapsed: 0.0002779960632324219
ell 1004, elapsed: 0.0002460479736328125
ell 1003, elapsed: 0.00025391578674316406
ell 1002, elapsed: 0.00029206275939941406
ell 1001, elapsed: 0.0002830028533935547
ell 1000, elapsed: 0.00028705596923828125
ell 999, elapsed: 0.0002930164337158203
ell 998, elapsed: 0.0003387928009033203
ell 997, elapsed: 0.0002911090850830078
ell 996, elapsed: 0.00029206275939941406
ell 995, elapsed: 0.0002799034118652344
ell 994, elapsed: 0.0002968311309814453
ell 993, elapsed: 0.0002880096435546875
ell 992, elapsed: 0.0002880096435546875
ell 991, elapsed: 0.00029397010803222656
ell 990, elapsed: 0.0002880096435546875
ell 989, elapsed: 0.0003039836883544922
ell 988, elapsed: 0.0002899169921875
ell 987, elapsed: 0.0002989768981933594
ell 986, elapsed: 0.0003230571746826172
ell 985, elapsed: 0.0002899169921875
ell 984, elapsed: 0.00029587745666503906
ell 983, elapsed: 0.00030303001403808594
ell 982, elapsed: 0.00030112266540527344
ell 981, elapsed: 0.00029397010803222656
ell 980, elapsed: 0.0002918243408203125
ell 979, elapsed: 0.0002989768981933594
ell 978, elapsed: 0.0002880096435546875
ell 977, elapsed: 0.00030303001403808594
ell 976, elapsed: 0.0002849102020263672
ell 975, elapsed: 0.0002930164337158203
ell 974, elapsed: 0.00029587745666503906
ell 973, elapsed: 0.0004220008850097656
ell 972, elapsed: 0.00032901763916015625
ell 971, elapsed: 0.00029206275939941406
ell 970, elapsed: 0.0002899169921875
ell 969, elapsed: 0.0002970695495605469
ell 968, elapsed: 0.00029587745666503906
ell 967, elapsed: 0.00030994415283203125
ell 966, elapsed: 0.00029087066650390625
ell 965, elapsed: 0.00029587745666503906
ell 964, elapsed: 0.00030112266540527344
ell 963, elapsed: 0.0002970695495605469
ell 962, elapsed: 0.0002980232238769531
ell 961, elapsed: 0.0003349781036376953
ell 960, elapsed: 0.0002880096435546875
ell 959, elapsed: 0.00029397010803222656
ell 958, elapsed: 0.0002951622009277344
ell 957, elapsed: 0.00029206275939941406
ell 956, elapsed: 0.00028705596923828125
ell 955, elapsed: 0.00029587745666503906
ell 954, elapsed: 0.00028705596923828125
ell 953, elapsed: 0.0002880096435546875
ell 952, elapsed: 0.0003070831298828125
ell 951, elapsed: 0.0002818107604980469
ell 950, elapsed: 0.0003008842468261719
ell 949, elapsed: 0.00029397010803222656
ell 948, elapsed: 0.0002899169921875
ell 947, elapsed: 0.00024509429931640625
ell 946, elapsed: 0.0002410411834716797
ell 945, elapsed: 0.000247955322265625
ell 944, elapsed: 0.00023698806762695312
ell 943, elapsed: 0.00023508071899414062
ell 942, elapsed: 0.0002460479736328125
ell 941, elapsed: 0.00023698806762695312
ell 940, elapsed: 0.00024318695068359375
ell 939, elapsed: 0.00023794174194335938
ell 938, elapsed: 0.00023508071899414062
ell 937, elapsed: 0.0002510547637939453
ell 936, elapsed: 0.00024008750915527344
ell 935, elapsed: 0.000247955322265625
ell 934, elapsed: 0.00023794174194335938
ell 933, elapsed: 0.00023698806762695312
ell 932, elapsed: 0.00035190582275390625
ell 931, elapsed: 0.00030422210693359375
ell 930, elapsed: 0.0003058910369873047
ell 929, elapsed: 0.0002830028533935547
ell 928, elapsed: 0.00029015541076660156
ell 927, elapsed: 0.0003161430358886719
ell 926, elapsed: 0.0002830028533935547
ell 925, elapsed: 0.0002989768981933594
ell 924, elapsed: 0.0002911090850830078
ell 923, elapsed: 0.0002880096435546875
ell 922, elapsed: 0.00029397010803222656
ell 921, elapsed: 0.0002899169921875
ell 920, elapsed: 0.0003490447998046875
ell 919, elapsed: 0.0002951622009277344
ell 918, elapsed: 0.00029397010803222656
ell 917, elapsed: 0.0002949237823486328
ell 916, elapsed: 0.0002989768981933594
ell 915, elapsed: 0.0002989768981933594
ell 914, elapsed: 0.0002949237823486328
ell 913, elapsed: 0.0003039836883544922
ell 912, elapsed: 0.00028705596923828125
ell 911, elapsed: 0.00030803680419921875
ell 910, elapsed: 0.0002980232238769531
ell 909, elapsed: 0.0002911090850830078
ell 908, elapsed: 0.00030612945556640625
ell 907, elapsed: 0.00032210350036621094
ell 906, elapsed: 0.0002949237823486328
ell 905, elapsed: 0.00031113624572753906
ell 904, elapsed: 0.00028896331787109375
ell 903, elapsed: 0.0003070831298828125
ell 902, elapsed: 0.00029206275939941406
ell 901, elapsed: 0.00030303001403808594
ell 900, elapsed: 0.0002918243408203125
ell 899, elapsed: 0.0002930164337158203
ell 898, elapsed: 0.0003039836883544922
ell 897, elapsed: 0.0002970695495605469
ell 896, elapsed: 0.0003039836883544922
ell 895, elapsed: 0.0003261566162109375
ell 894, elapsed: 0.0002911090850830078
ell 893, elapsed: 0.00029778480529785156
ell 892, elapsed: 0.0002930164337158203
ell 891, elapsed: 0.0002980232238769531
ell 890, elapsed: 0.00028705596923828125
ell 889, elapsed: 0.0002980232238769531
ell 888, elapsed: 0.0002849102020263672
ell 887, elapsed: 0.0002949237823486328
ell 886, elapsed: 0.0003020763397216797
ell 885, elapsed: 0.0002930164337158203
ell 884, elapsed: 0.0003108978271484375
ell 883, elapsed: 0.00029397010803222656
ell 882, elapsed: 0.00035190582275390625
ell 881, elapsed: 0.0002980232238769531
ell 880, elapsed: 0.0002980232238769531
ell 879, elapsed: 0.00029587745666503906
ell 878, elapsed: 0.0002880096435546875
ell 877, elapsed: 0.0003018379211425781
ell 876, elapsed: 0.0003008842468261719
ell 875, elapsed: 0.0002899169921875
ell 874, elapsed: 0.00030493736267089844
ell 873, elapsed: 0.0002880096435546875
ell 872, elapsed: 0.0002989768981933594
ell 871, elapsed: 0.00029397010803222656
ell 870, elapsed: 0.0003159046173095703
ell 869, elapsed: 0.0002951622009277344
ell 868, elapsed: 0.0002911090850830078
ell 867, elapsed: 0.0003020763397216797
ell 866, elapsed: 0.0002899169921875
ell 865, elapsed: 0.00029397010803222656
ell 864, elapsed: 0.0002989768981933594
ell 863, elapsed: 0.0003001689910888672
ell 862, elapsed: 0.0002880096435546875
ell 861, elapsed: 0.00029206275939941406
ell 860, elapsed: 0.0002961158752441406
ell 859, elapsed: 0.0002911090850830078
ell 858, elapsed: 0.00030112266540527344
ell 857, elapsed: 0.00031304359436035156
ell 856, elapsed: 0.0002899169921875
ell 855, elapsed: 0.0002980232238769531
ell 854, elapsed: 0.0002899169921875
ell 853, elapsed: 0.0002989768981933594
ell 852, elapsed: 0.0002880096435546875
ell 851, elapsed: 0.00029587745666503906
ell 850, elapsed: 0.0002849102020263672
ell 849, elapsed: 0.0002849102020263672
ell 848, elapsed: 0.0002942085266113281
ell 847, elapsed: 0.0002830028533935547
ell 846, elapsed: 0.00028395652770996094
ell 845, elapsed: 0.0002810955047607422
ell 844, elapsed: 0.0003390312194824219
ell 843, elapsed: 0.0002868175506591797
ell 842, elapsed: 0.0002830028533935547
ell 841, elapsed: 0.00029397010803222656
ell 840, elapsed: 0.0003008842468261719
ell 839, elapsed: 0.0003008842468261719
ell 838, elapsed: 0.0002899169921875
ell 837, elapsed: 0.0002830028533935547
ell 836, elapsed: 0.0002930164337158203
ell 835, elapsed: 0.0002970695495605469
ell 834, elapsed: 0.00029087066650390625
ell 833, elapsed: 0.00028896331787109375
ell 832, elapsed: 0.0003261566162109375
ell 831, elapsed: 0.0002770423889160156
ell 830, elapsed: 0.0002841949462890625
ell 829, elapsed: 0.00029087066650390625
ell 828, elapsed: 0.0002818107604980469
ell 827, elapsed: 0.00029206275939941406
ell 826, elapsed: 0.0002911090850830078
ell 825, elapsed: 0.0002830028533935547
ell 824, elapsed: 0.0002970695495605469
ell 823, elapsed: 0.0002830028533935547
ell 822, elapsed: 0.0002961158752441406
ell 821, elapsed: 0.0002880096435546875
ell 820, elapsed: 0.0002949237823486328
ell 819, elapsed: 0.00031185150146484375
ell 818, elapsed: 0.00028896331787109375
ell 817, elapsed: 0.0002880096435546875
ell 816, elapsed: 0.0002701282501220703
ell 815, elapsed: 0.00027298927307128906
ell 814, elapsed: 0.0002789497375488281
ell 813, elapsed: 0.0002830028533935547
ell 812, elapsed: 0.00029206275939941406
ell 811, elapsed: 0.0002892017364501953
ell 810, elapsed: 0.0002961158752441406
ell 809, elapsed: 0.00029206275939941406
ell 808, elapsed: 0.00029397010803222656
ell 807, elapsed: 0.0002880096435546875
ell 806, elapsed: 0.00033593177795410156
ell 805, elapsed: 0.00029087066650390625
ell 804, elapsed: 0.0002949237823486328
ell 803, elapsed: 0.0002930164337158203
ell 802, elapsed: 0.0002892017364501953
ell 801, elapsed: 0.0002980232238769531
ell 800, elapsed: 0.0002880096435546875
ell 799, elapsed: 0.00028705596923828125
ell 798, elapsed: 0.0002949237823486328
ell 797, elapsed: 0.0002918243408203125
ell 796, elapsed: 0.00029587745666503906
ell 795, elapsed: 0.00028204917907714844
ell 794, elapsed: 0.0002830028533935547
ell 793, elapsed: 0.0003559589385986328
ell 792, elapsed: 0.0002841949462890625
ell 791, elapsed: 0.00030803680419921875
ell 790, elapsed: 0.00028395652770996094
ell 789, elapsed: 0.0002930164337158203
ell 788, elapsed: 0.0002849102020263672
ell 787, elapsed: 0.0002911090850830078
ell 786, elapsed: 0.00029206275939941406
ell 785, elapsed: 0.00028705596923828125
ell 784, elapsed: 0.0003020763397216797
ell 783, elapsed: 0.0002911090850830078
ell 782, elapsed: 0.00028395652770996094
ell 781, elapsed: 0.00029397010803222656
ell 780, elapsed: 0.00033283233642578125
ell 779, elapsed: 0.00028705596923828125
ell 778, elapsed: 0.00028514862060546875
ell 777, elapsed: 0.0002980232238769531
ell 776, elapsed: 0.0002830028533935547
ell 775, elapsed: 0.0002911090850830078
ell 774, elapsed: 0.00029206275939941406
ell 773, elapsed: 0.00028586387634277344
ell 772, elapsed: 0.00028705596923828125
ell 771, elapsed: 0.0002779960632324219
ell 770, elapsed: 0.0002989768981933594
ell 769, elapsed: 0.00028705596923828125
ell 768, elapsed: 0.0002968311309814453
ell 767, elapsed: 0.00032591819763183594
ell 766, elapsed: 0.000286102294921875
ell 765, elapsed: 0.0003020763397216797
ell 764, elapsed: 0.00029087066650390625
ell 763, elapsed: 0.0002830028533935547
ell 762, elapsed: 0.0002951622009277344
ell 761, elapsed: 0.0002849102020263672
ell 760, elapsed: 0.0002949237823486328
ell 759, elapsed: 0.00029206275939941406
ell 758, elapsed: 0.00029397010803222656
ell 757, elapsed: 0.00028514862060546875
ell 756, elapsed: 0.00028586387634277344
ell 755, elapsed: 0.00032591819763183594
ell 754, elapsed: 0.0003001689910888672
ell 753, elapsed: 0.0003001689910888672
ell 752, elapsed: 0.0003001689910888672
ell 751, elapsed: 0.0002949237823486328
ell 750, elapsed: 0.0003008842468261719
ell 749, elapsed: 0.0003058910369873047
ell 748, elapsed: 0.0003058910369873047
ell 747, elapsed: 0.0002949237823486328
ell 746, elapsed: 0.0003058910369873047
ell 745, elapsed: 0.0002911090850830078
ell 744, elapsed: 0.0002970695495605469
ell 743, elapsed: 0.0002999305725097656
ell 742, elapsed: 0.00034117698669433594
ell 741, elapsed: 0.0002980232238769531
ell 740, elapsed: 0.0002949237823486328
ell 739, elapsed: 0.00030303001403808594
ell 738, elapsed: 0.0002949237823486328
ell 737, elapsed: 0.0002999305725097656
ell 736, elapsed: 0.0002999305725097656
ell 735, elapsed: 0.00029087066650390625
ell 734, elapsed: 0.0003018379211425781
ell 733, elapsed: 0.0003039836883544922
ell 732, elapsed: 0.0002930164337158203
ell 731, elapsed: 0.00030803680419921875
ell 730, elapsed: 0.0003190040588378906
ell 729, elapsed: 0.0002930164337158203
ell 728, elapsed: 0.0002930164337158203
ell 727, elapsed: 0.0002918243408203125
ell 726, elapsed: 0.0002868175506591797
ell 725, elapsed: 0.0002930164337158203
ell 724, elapsed: 0.0003008842468261719
ell 723, elapsed: 0.0002970695495605469
ell 722, elapsed: 0.0003020763397216797
ell 721, elapsed: 0.00029397010803222656
ell 720, elapsed: 0.00029206275939941406
ell 719, elapsed: 0.00029397010803222656
ell 718, elapsed: 0.0002999305725097656
ell 717, elapsed: 0.0003249645233154297
ell 716, elapsed: 0.0002830028533935547
ell 715, elapsed: 0.0002918243408203125
ell 714, elapsed: 0.000286102294921875
ell 713, elapsed: 0.00028896331787109375
ell 712, elapsed: 0.00029206275939941406
ell 711, elapsed: 0.0002810955047607422
ell 710, elapsed: 0.0002918243408203125
ell 709, elapsed: 0.00029397010803222656
ell 708, elapsed: 0.00030303001403808594
ell 707, elapsed: 0.0002980232238769531
ell 706, elapsed: 0.00028705596923828125
ell 705, elapsed: 0.0002942085266113281
ell 704, elapsed: 0.0003299713134765625
ell 703, elapsed: 0.0002911090850830078
ell 702, elapsed: 0.0002989768981933594
ell 701, elapsed: 0.0002899169921875
ell 700, elapsed: 0.0002980232238769531
ell 699, elapsed: 0.0002930164337158203
ell 698, elapsed: 0.0002970695495605469
ell 697, elapsed: 0.00028204917907714844
ell 696, elapsed: 0.00029087066650390625
ell 695, elapsed: 0.00028204917907714844
ell 694, elapsed: 0.00028705596923828125
ell 693, elapsed: 0.00029206275939941406
ell 692, elapsed: 0.00033211708068847656
ell 691, elapsed: 0.0002968311309814453
ell 690, elapsed: 0.0002789497375488281
ell 689, elapsed: 0.0002799034118652344
ell 688, elapsed: 0.0002899169921875
ell 687, elapsed: 0.00028705596923828125
ell 686, elapsed: 0.00030517578125
ell 685, elapsed: 0.0002899169921875
ell 684, elapsed: 0.00030112266540527344
ell 683, elapsed: 0.0002968311309814453
ell 682, elapsed: 0.0002911090850830078
ell 681, elapsed: 0.0003001689910888672
ell 680, elapsed: 0.00029587745666503906
ell 679, elapsed: 0.0030150413513183594
ell 678, elapsed: 0.0002989768981933594
ell 677, elapsed: 0.0002899169921875
ell 676, elapsed: 0.00032401084899902344
ell 675, elapsed: 0.00032210350036621094
ell 674, elapsed: 0.0002930164337158203
ell 673, elapsed: 0.00029015541076660156
ell 672, elapsed: 0.00028896331787109375
ell 671, elapsed: 0.00028705596923828125
ell 670, elapsed: 0.0002799034118652344
ell 669, elapsed: 0.0002989768981933594
ell 668, elapsed: 0.0002849102020263672
ell 667, elapsed: 0.00029397010803222656
ell 666, elapsed: 0.00028705596923828125
ell 665, elapsed: 0.00029778480529785156
ell 664, elapsed: 0.0002849102020263672
ell 663, elapsed: 0.00030303001403808594
ell 662, elapsed: 0.0003478527069091797
ell 661, elapsed: 0.0002808570861816406
ell 660, elapsed: 0.00029015541076660156
ell 659, elapsed: 0.00028586387634277344
ell 658, elapsed: 0.00028896331787109375
ell 657, elapsed: 0.0002880096435546875
ell 656, elapsed: 0.0002949237823486328
ell 655, elapsed: 0.0002999305725097656
ell 654, elapsed: 0.0002880096435546875
ell 653, elapsed: 0.0002899169921875
ell 652, elapsed: 0.0002880096435546875
ell 651, elapsed: 0.0002880096435546875
ell 650, elapsed: 0.0002968311309814453
ell 649, elapsed: 0.0003199577331542969
ell 648, elapsed: 0.0002980232238769531
ell 647, elapsed: 0.0002930164337158203
ell 646, elapsed: 0.0002818107604980469
ell 645, elapsed: 0.0002930164337158203
ell 644, elapsed: 0.0002830028533935547
ell 643, elapsed: 0.00029206275939941406
ell 642, elapsed: 0.00028705596923828125
ell 641, elapsed: 0.00029397010803222656
ell 640, elapsed: 0.00029206275939941406
ell 639, elapsed: 0.00028586387634277344
ell 638, elapsed: 0.00028395652770996094
ell 637, elapsed: 0.00028514862060546875
ell 636, elapsed: 0.0003390312194824219
ell 635, elapsed: 0.0002830028533935547
ell 634, elapsed: 0.00029206275939941406
ell 633, elapsed: 0.00028014183044433594
ell 632, elapsed: 0.0002830028533935547
ell 631, elapsed: 0.00028705596923828125
ell 630, elapsed: 0.0002789497375488281
ell 629, elapsed: 0.0002849102020263672
ell 628, elapsed: 0.0002799034118652344
ell 627, elapsed: 0.00028514862060546875
ell 626, elapsed: 0.0002911090850830078
ell 625, elapsed: 0.0002789497375488281
ell 624, elapsed: 0.00029087066650390625
ell 623, elapsed: 0.0003452301025390625
ell 622, elapsed: 0.0002830028533935547
ell 621, elapsed: 0.0002799034118652344
ell 620, elapsed: 0.0002779960632324219
ell 619, elapsed: 0.0002810955047607422
ell 618, elapsed: 0.0002808570861816406
ell 617, elapsed: 0.00028204917907714844
ell 616, elapsed: 0.0002789497375488281
ell 615, elapsed: 0.0002770423889160156
ell 614, elapsed: 0.00028395652770996094
ell 613, elapsed: 0.0002799034118652344
ell 612, elapsed: 0.00028395652770996094
ell 611, elapsed: 0.00028204917907714844
ell 610, elapsed: 0.00033402442932128906
ell 609, elapsed: 0.0002789497375488281
ell 608, elapsed: 0.0002770423889160156
ell 607, elapsed: 0.0002808570861816406
ell 606, elapsed: 0.0002739429473876953
ell 605, elapsed: 0.000286102294921875
ell 604, elapsed: 0.0002849102020263672
ell 603, elapsed: 0.00028705596923828125
ell 602, elapsed: 0.00027489662170410156
ell 601, elapsed: 0.0002770423889160156
ell 600, elapsed: 0.0002849102020263672
ell 599, elapsed: 0.00028204917907714844
ell 598, elapsed: 0.00029397010803222656
ell 597, elapsed: 0.00031304359436035156
ell 596, elapsed: 0.0002779960632324219
ell 595, elapsed: 0.00028896331787109375
ell 594, elapsed: 0.00028395652770996094
ell 593, elapsed: 0.00029206275939941406
ell 592, elapsed: 0.0002810955047607422
ell 591, elapsed: 0.0002970695495605469
ell 590, elapsed: 0.0002818107604980469
ell 589, elapsed: 0.0002810955047607422
ell 588, elapsed: 0.00028705596923828125
ell 587, elapsed: 0.0002849102020263672
ell 586, elapsed: 0.000286102294921875
ell 585, elapsed: 0.0002880096435546875
ell 584, elapsed: 0.0003190040588378906
ell 583, elapsed: 0.0002951622009277344
ell 582, elapsed: 0.00029206275939941406
ell 581, elapsed: 0.00029397010803222656
ell 580, elapsed: 0.0002799034118652344
ell 579, elapsed: 0.0002949237823486328
ell 578, elapsed: 0.00029087066650390625
ell 577, elapsed: 0.00028586387634277344
ell 576, elapsed: 0.0002818107604980469
ell 575, elapsed: 0.0002810955047607422
ell 574, elapsed: 0.0002949237823486328
ell 573, elapsed: 0.0002779960632324219
ell 572, elapsed: 0.0002989768981933594
ell 571, elapsed: 0.0003299713134765625
ell 570, elapsed: 0.000286102294921875
ell 569, elapsed: 0.00029397010803222656
ell 568, elapsed: 0.00028014183044433594
ell 567, elapsed: 0.0002849102020263672
ell 566, elapsed: 0.0002849102020263672
ell 565, elapsed: 0.0002868175506591797
ell 564, elapsed: 0.00029397010803222656
ell 563, elapsed: 0.0002810955047607422
ell 562, elapsed: 0.0002918243408203125
ell 561, elapsed: 0.0002808570861816406
ell 560, elapsed: 0.0002868175506591797
ell 559, elapsed: 0.0002899169921875
ell 558, elapsed: 0.0003159046173095703
ell 557, elapsed: 0.0002911090850830078
ell 556, elapsed: 0.00028705596923828125
ell 555, elapsed: 0.0002868175506591797
ell 554, elapsed: 0.0002720355987548828
ell 553, elapsed: 0.0002739429473876953
ell 552, elapsed: 0.0002911090850830078
ell 551, elapsed: 0.0002849102020263672
ell 550, elapsed: 0.0002880096435546875
ell 549, elapsed: 0.00028204917907714844
ell 548, elapsed: 0.00029087066650390625
ell 547, elapsed: 0.0002849102020263672
ell 546, elapsed: 0.0002841949462890625
ell 545, elapsed: 0.00038886070251464844
ell 544, elapsed: 0.0002830028533935547
ell 543, elapsed: 0.0002949237823486328
ell 542, elapsed: 0.0002830028533935547
ell 541, elapsed: 0.0002739429473876953
ell 540, elapsed: 0.0002899169921875
ell 539, elapsed: 0.0002868175506591797
ell 538, elapsed: 0.000286102294921875
ell 537, elapsed: 0.00028204917907714844
ell 536, elapsed: 0.00028204917907714844
ell 535, elapsed: 0.00028395652770996094
ell 534, elapsed: 0.0002779960632324219
ell 533, elapsed: 0.0002918243408203125
ell 532, elapsed: 0.00031495094299316406
ell 531, elapsed: 0.0002880096435546875
ell 530, elapsed: 0.00029206275939941406
ell 529, elapsed: 0.00028896331787109375
ell 528, elapsed: 0.0002810955047607422
ell 527, elapsed: 0.0002830028533935547
ell 526, elapsed: 0.00028586387634277344
ell 525, elapsed: 0.00028204917907714844
ell 524, elapsed: 0.00028395652770996094
ell 523, elapsed: 0.0002899169921875
ell 522, elapsed: 0.00028204917907714844
ell 521, elapsed: 0.00028705596923828125
ell 520, elapsed: 0.0002799034118652344
ell 519, elapsed: 0.0003261566162109375
ell 518, elapsed: 0.0002810955047607422
ell 517, elapsed: 0.0002930164337158203
ell 516, elapsed: 0.0002880096435546875
ell 515, elapsed: 0.0002779960632324219
ell 514, elapsed: 0.0002911090850830078
ell 513, elapsed: 0.0002830028533935547
ell 512, elapsed: 0.0003008842468261719
ell 511, elapsed: 0.0002830028533935547
ell 510, elapsed: 0.0002899169921875
ell 509, elapsed: 0.00028705596923828125
ell 508, elapsed: 0.00028514862060546875
ell 507, elapsed: 0.0002930164337158203
ell 506, elapsed: 0.00033783912658691406
ell 505, elapsed: 0.0002880096435546875
ell 504, elapsed: 0.00028586387634277344
ell 503, elapsed: 0.00028705596923828125
ell 502, elapsed: 0.00028705596923828125
ell 501, elapsed: 0.00028896331787109375
ell 500, elapsed: 0.0002911090850830078
ell 499, elapsed: 0.0002830028533935547
ell 498, elapsed: 0.0002899169921875
ell 497, elapsed: 0.0002808570861816406
ell 496, elapsed: 0.00028705596923828125
ell 495, elapsed: 0.0002868175506591797
ell 494, elapsed: 0.00028395652770996094
ell 493, elapsed: 0.0003170967102050781
ell 492, elapsed: 0.00028395652770996094
ell 491, elapsed: 0.0002849102020263672
ell 490, elapsed: 0.00028896331787109375
ell 489, elapsed: 0.0002779960632324219
ell 488, elapsed: 0.0002949237823486328
ell 487, elapsed: 0.00029587745666503906
ell 486, elapsed: 0.00029206275939941406
ell 485, elapsed: 0.0002841949462890625
ell 484, elapsed: 0.00028705596923828125
ell 483, elapsed: 0.0002930164337158203
ell 482, elapsed: 0.00028705596923828125
ell 481, elapsed: 0.00029397010803222656
ell 480, elapsed: 0.0003228187561035156
ell 479, elapsed: 0.0002899169921875
ell 478, elapsed: 0.0002918243408203125
ell 477, elapsed: 0.0002849102020263672
ell 476, elapsed: 0.00029206275939941406
ell 475, elapsed: 0.00028705596923828125
ell 474, elapsed: 0.00029277801513671875
ell 473, elapsed: 0.00028395652770996094
ell 472, elapsed: 0.00028586387634277344
ell 471, elapsed: 0.00030303001403808594
ell 470, elapsed: 0.0002911090850830078
ell 469, elapsed: 0.0002911090850830078
ell 468, elapsed: 0.0002930164337158203
ell 467, elapsed: 0.00034999847412109375
ell 466, elapsed: 0.00028395652770996094
ell 465, elapsed: 0.0002849102020263672
ell 464, elapsed: 0.0002949237823486328
ell 463, elapsed: 0.00028395652770996094
ell 462, elapsed: 0.0002970695495605469
ell 461, elapsed: 0.0002961158752441406
ell 460, elapsed: 0.000286102294921875
ell 459, elapsed: 0.0002980232238769531
ell 458, elapsed: 0.00028395652770996094
ell 457, elapsed: 0.0002989768981933594
ell 456, elapsed: 0.0002770423889160156
ell 455, elapsed: 0.0003161430358886719
ell 454, elapsed: 0.0002830028533935547
ell 453, elapsed: 0.00028514862060546875
ell 452, elapsed: 0.00029587745666503906
ell 451, elapsed: 0.00028395652770996094
ell 450, elapsed: 0.0002911090850830078
ell 449, elapsed: 0.00028705596923828125
ell 448, elapsed: 0.00029397010803222656
ell 447, elapsed: 0.0002791881561279297
ell 446, elapsed: 0.0002930164337158203
ell 445, elapsed: 0.00028395652770996094
ell 444, elapsed: 0.0002789497375488281
ell 443, elapsed: 0.00028896331787109375
ell 442, elapsed: 0.0002770423889160156
ell 441, elapsed: 0.00026679039001464844
ell 440, elapsed: 0.0002617835998535156
ell 439, elapsed: 0.00025200843811035156
ell 438, elapsed: 0.00026106834411621094
ell 437, elapsed: 0.00025391578674316406
ell 436, elapsed: 0.00026297569274902344
ell 435, elapsed: 0.0002510547637939453
ell 434, elapsed: 0.0002541542053222656
ell 433, elapsed: 0.00026106834411621094
ell 432, elapsed: 0.0002529621124267578
ell 431, elapsed: 0.000263214111328125
ell 430, elapsed: 0.0002551078796386719
ell 429, elapsed: 0.0002498626708984375
ell 428, elapsed: 0.0002601146697998047
ell 427, elapsed: 0.00030112266540527344
ell 426, elapsed: 0.0002830028533935547
ell 425, elapsed: 0.00028014183044433594
ell 424, elapsed: 0.0002892017364501953
ell 423, elapsed: 0.00027108192443847656
ell 422, elapsed: 0.00027489662170410156
ell 421, elapsed: 0.0002849102020263672
ell 420, elapsed: 0.00028014183044433594
ell 419, elapsed: 0.0002849102020263672
ell 418, elapsed: 0.0002849102020263672
ell 417, elapsed: 0.0002841949462890625
ell 416, elapsed: 0.0002789497375488281
ell 415, elapsed: 0.00028395652770996094
ell 414, elapsed: 0.0003390312194824219
ell 413, elapsed: 0.00028395652770996094
ell 412, elapsed: 0.00028705596923828125
ell 411, elapsed: 0.0002779960632324219
ell 410, elapsed: 0.0002791881561279297
ell 409, elapsed: 0.0002880096435546875
ell 408, elapsed: 0.000286102294921875
ell 407, elapsed: 0.0002930164337158203
ell 406, elapsed: 0.0002760887145996094
ell 405, elapsed: 0.0002989768981933594
ell 404, elapsed: 0.0002779960632324219
ell 403, elapsed: 0.00028014183044433594
ell 402, elapsed: 0.00028705596923828125
ell 401, elapsed: 0.0003190040588378906
ell 400, elapsed: 0.0002911090850830078
ell 399, elapsed: 0.0002868175506591797
ell 398, elapsed: 0.0002930164337158203
ell 397, elapsed: 0.0002951622009277344
ell 396, elapsed: 0.0002849102020263672
ell 395, elapsed: 0.0003151893615722656
ell 394, elapsed: 0.00029206275939941406
ell 393, elapsed: 0.0002949237823486328
ell 392, elapsed: 0.00028705596923828125
ell 391, elapsed: 0.000286102294921875
ell 390, elapsed: 0.0002980232238769531
ell 389, elapsed: 0.0002911090850830078
ell 388, elapsed: 0.00033402442932128906
ell 387, elapsed: 0.0002880096435546875
ell 386, elapsed: 0.00030803680419921875
ell 385, elapsed: 0.00028896331787109375
ell 384, elapsed: 0.00029587745666503906
ell 383, elapsed: 0.00029587745666503906
ell 382, elapsed: 0.00028896331787109375
ell 381, elapsed: 0.0002968311309814453
ell 380, elapsed: 0.00028395652770996094
ell 379, elapsed: 0.000286102294921875
ell 378, elapsed: 0.00030112266540527344
ell 377, elapsed: 0.0002868175506591797
ell 376, elapsed: 0.0002980232238769531
ell 375, elapsed: 0.00033783912658691406
ell 374, elapsed: 0.0003001689910888672
ell 373, elapsed: 0.0002999305725097656
ell 372, elapsed: 0.00029015541076660156
ell 371, elapsed: 0.0002989768981933594
ell 370, elapsed: 0.0002951622009277344
ell 369, elapsed: 0.00030303001403808594
ell 368, elapsed: 0.00029206275939941406
ell 367, elapsed: 0.00028896331787109375
ell 366, elapsed: 0.00029921531677246094
ell 365, elapsed: 0.00029015541076660156
ell 364, elapsed: 0.0002970695495605469
ell 363, elapsed: 0.0003218650817871094
ell 362, elapsed: 0.0002961158752441406
ell 361, elapsed: 0.0002849102020263672
ell 360, elapsed: 0.0002999305725097656
ell 359, elapsed: 0.0002970695495605469
ell 358, elapsed: 0.00029587745666503906
ell 357, elapsed: 0.0002949237823486328
ell 356, elapsed: 0.0002899169921875
ell 355, elapsed: 0.0003039836883544922
ell 354, elapsed: 0.00028896331787109375
ell 353, elapsed: 0.0002899169921875
ell 352, elapsed: 0.0002930164337158203
ell 351, elapsed: 0.0002868175506591797
ell 350, elapsed: 0.0003199577331542969
ell 349, elapsed: 0.0002880096435546875
ell 348, elapsed: 0.0002880096435546875
ell 347, elapsed: 0.0002999305725097656
ell 346, elapsed: 0.000286102294921875
ell 345, elapsed: 0.00029397010803222656
ell 344, elapsed: 0.00029587745666503906
ell 343, elapsed: 0.0002930164337158203
ell 342, elapsed: 0.000286102294921875
ell 341, elapsed: 0.000286102294921875
ell 340, elapsed: 0.00029206275939941406
ell 339, elapsed: 0.0002892017364501953
ell 338, elapsed: 0.00029206275939941406
ell 337, elapsed: 0.0003371238708496094
ell 336, elapsed: 0.00028586387634277344
ell 335, elapsed: 0.0002918243408203125
ell 334, elapsed: 0.0002880096435546875
ell 333, elapsed: 0.00029206275939941406
ell 332, elapsed: 0.00029206275939941406
ell 331, elapsed: 0.00029397010803222656
ell 330, elapsed: 0.00028586387634277344
ell 329, elapsed: 0.0002911090850830078
ell 328, elapsed: 0.00029206275939941406
ell 327, elapsed: 0.00029087066650390625
ell 326, elapsed: 0.0002949237823486328
ell 325, elapsed: 0.0002880096435546875
ell 324, elapsed: 0.0003159046173095703
ell 323, elapsed: 0.00029087066650390625
ell 322, elapsed: 0.00028896331787109375
ell 321, elapsed: 0.0002968311309814453
ell 320, elapsed: 0.00029397010803222656
ell 319, elapsed: 0.0002970695495605469
ell 318, elapsed: 0.0002880096435546875
ell 317, elapsed: 0.00029087066650390625
ell 316, elapsed: 0.0002989768981933594
ell 315, elapsed: 0.00028705596923828125
ell 314, elapsed: 0.0002989768981933594
ell 313, elapsed: 0.00029397010803222656
ell 312, elapsed: 0.0003879070281982422
ell 311, elapsed: 0.0002930164337158203
ell 310, elapsed: 0.00028896331787109375
ell 309, elapsed: 0.00030303001403808594
ell 308, elapsed: 0.0002970695495605469
ell 307, elapsed: 0.0003001689910888672
ell 306, elapsed: 0.0002899169921875
ell 305, elapsed: 0.0002899169921875
ell 304, elapsed: 0.0002892017364501953
ell 303, elapsed: 0.00029087066650390625
ell 302, elapsed: 0.00030493736267089844
ell 301, elapsed: 0.0002880096435546875
ell 300, elapsed: 0.0003001689910888672
ell 299, elapsed: 0.0003180503845214844
ell 298, elapsed: 0.0002949237823486328
ell 297, elapsed: 0.0002930164337158203
ell 296, elapsed: 0.0002880096435546875
ell 295, elapsed: 0.0002961158752441406
ell 294, elapsed: 0.0002880096435546875
ell 293, elapsed: 0.0002980232238769531
ell 292, elapsed: 0.0002911090850830078
ell 291, elapsed: 0.00029206275939941406
ell 290, elapsed: 0.00030612945556640625
ell 289, elapsed: 0.00029087066650390625
ell 288, elapsed: 0.0002999305725097656
ell 287, elapsed: 0.00029397010803222656
ell 286, elapsed: 0.0002930164337158203
ell 285, elapsed: 0.0003058910369873047
ell 284, elapsed: 0.0002930164337158203
ell 283, elapsed: 0.00030493736267089844
ell 282, elapsed: 0.0002980232238769531
ell 281, elapsed: 0.00029587745666503906
ell 280, elapsed: 0.00029206275939941406
ell 279, elapsed: 0.00028705596923828125
ell 278, elapsed: 0.0002911090850830078
ell 277, elapsed: 0.00029087066650390625
ell 276, elapsed: 0.0002951622009277344
ell 275, elapsed: 0.00030112266540527344
ell 274, elapsed: 0.00035500526428222656
ell 273, elapsed: 0.0002899169921875
ell 272, elapsed: 0.0002989768981933594
ell 271, elapsed: 0.00029921531677246094
ell 270, elapsed: 0.00029587745666503906
ell 269, elapsed: 0.000308990478515625
ell 268, elapsed: 0.0002951622009277344
ell 267, elapsed: 0.0002930164337158203
ell 266, elapsed: 0.0003018379211425781
ell 265, elapsed: 0.0002999305725097656
ell 264, elapsed: 0.00029587745666503906
ell 263, elapsed: 0.00028896331787109375
ell 262, elapsed: 0.00029397010803222656
ell 261, elapsed: 0.00034117698669433594
ell 260, elapsed: 0.0002868175506591797
ell 259, elapsed: 0.0002989768981933594
ell 258, elapsed: 0.0002880096435546875
ell 257, elapsed: 0.0002949237823486328
ell 256, elapsed: 0.0002949237823486328
ell 255, elapsed: 0.0002841949462890625
ell 254, elapsed: 0.0003039836883544922
ell 253, elapsed: 0.00028896331787109375
ell 252, elapsed: 0.0003018379211425781
ell 251, elapsed: 0.00029206275939941406
ell 250, elapsed: 0.00031304359436035156
ell 249, elapsed: 0.0003409385681152344
ell 248, elapsed: 0.00029587745666503906
ell 247, elapsed: 0.00029587745666503906
ell 246, elapsed: 0.0002899169921875
ell 245, elapsed: 0.0002970695495605469
ell 244, elapsed: 0.00028896331787109375
ell 243, elapsed: 0.0002899169921875
ell 242, elapsed: 0.00030112266540527344
ell 241, elapsed: 0.0002899169921875
ell 240, elapsed: 0.0003020763397216797
ell 239, elapsed: 0.0002849102020263672
ell 238, elapsed: 0.0002970695495605469
ell 237, elapsed: 0.00028395652770996094
ell 236, elapsed: 0.0003170967102050781
ell 235, elapsed: 0.00029397010803222656
ell 234, elapsed: 0.0002849102020263672
ell 233, elapsed: 0.0003039836883544922
ell 232, elapsed: 0.00028777122497558594
ell 231, elapsed: 0.00029587745666503906
ell 230, elapsed: 0.0002911090850830078
ell 229, elapsed: 0.000286102294921875
ell 228, elapsed: 0.0002911090850830078
ell 227, elapsed: 0.00028896331787109375
ell 226, elapsed: 0.00029206275939941406
ell 225, elapsed: 0.0002880096435546875
ell 224, elapsed: 0.00029206275939941406
ell 223, elapsed: 0.0003230571746826172
ell 222, elapsed: 0.0002930164337158203
ell 221, elapsed: 0.0002989768981933594
ell 220, elapsed: 0.00028705596923828125
ell 219, elapsed: 0.00029087066650390625
ell 218, elapsed: 0.0002849102020263672
ell 217, elapsed: 0.00029397010803222656
ell 216, elapsed: 0.0002951622009277344
ell 215, elapsed: 0.0002880096435546875
ell 214, elapsed: 0.0002951622009277344
ell 213, elapsed: 0.000286102294921875
ell 212, elapsed: 0.00028896331787109375
ell 211, elapsed: 0.000286102294921875
ell 210, elapsed: 0.0003228187561035156
ell 209, elapsed: 0.00026607513427734375
ell 208, elapsed: 0.0002598762512207031
ell 207, elapsed: 0.00026297569274902344
ell 206, elapsed: 0.00025391578674316406
ell 205, elapsed: 0.00025391578674316406
ell 204, elapsed: 0.00026488304138183594
ell 203, elapsed: 0.0002579689025878906
ell 202, elapsed: 0.00026106834411621094
ell 201, elapsed: 0.0002582073211669922
ell 200, elapsed: 0.0002589225769042969
ell 199, elapsed: 0.0002560615539550781
ell 198, elapsed: 0.00025200843811035156
ell 197, elapsed: 0.0002620220184326172
ell 196, elapsed: 0.00030303001403808594
ell 195, elapsed: 0.00028705596923828125
ell 194, elapsed: 0.0002830028533935547
ell 193, elapsed: 0.00028896331787109375
ell 192, elapsed: 0.0002880096435546875
ell 191, elapsed: 0.00028395652770996094
ell 190, elapsed: 0.0002961158752441406
ell 189, elapsed: 0.0002830028533935547
ell 188, elapsed: 0.00029206275939941406
ell 187, elapsed: 0.000286102294921875
ell 186, elapsed: 0.00029087066650390625
ell 185, elapsed: 0.00029087066650390625
ell 184, elapsed: 0.0002918243408203125
ell 183, elapsed: 0.0003428459167480469
ell 182, elapsed: 0.000286102294921875
ell 181, elapsed: 0.00028705596923828125
ell 180, elapsed: 0.0002942085266113281
ell 179, elapsed: 0.00028514862060546875
ell 178, elapsed: 0.00029397010803222656
ell 177, elapsed: 0.00028395652770996094
ell 176, elapsed: 0.00029087066650390625
ell 175, elapsed: 0.0002880096435546875
ell 174, elapsed: 0.00028586387634277344
ell 173, elapsed: 0.0002999305725097656
ell 172, elapsed: 0.00028586387634277344
ell 171, elapsed: 0.0002911090850830078
ell 170, elapsed: 0.00031304359436035156
ell 169, elapsed: 0.00029397010803222656
ell 168, elapsed: 0.00028395652770996094
ell 167, elapsed: 0.0002849102020263672
ell 166, elapsed: 0.0002880096435546875
ell 165, elapsed: 0.00028705596923828125
ell 164, elapsed: 0.00028586387634277344
ell 163, elapsed: 0.00028514862060546875
ell 162, elapsed: 0.0002899169921875
ell 161, elapsed: 0.0002930164337158203
ell 160, elapsed: 0.0002899169921875
ell 159, elapsed: 0.0002911090850830078
ell 158, elapsed: 0.00028705596923828125
ell 157, elapsed: 0.0003230571746826172
ell 156, elapsed: 0.00029206275939941406
ell 155, elapsed: 0.0002911090850830078
ell 154, elapsed: 0.0002970695495605469
ell 153, elapsed: 0.0002899169921875
ell 152, elapsed: 0.00029587745666503906
ell 151, elapsed: 0.0002930164337158203
ell 150, elapsed: 0.0002918243408203125
ell 149, elapsed: 0.0002949237823486328
ell 148, elapsed: 0.00028705596923828125
ell 147, elapsed: 0.0002951622009277344
ell 146, elapsed: 0.00028896331787109375
ell 145, elapsed: 0.00029397010803222656
ell 144, elapsed: 0.0003459453582763672
ell 143, elapsed: 0.0002880096435546875
ell 142, elapsed: 0.0003039836883544922
ell 141, elapsed: 0.00029397010803222656
ell 140, elapsed: 0.00029397010803222656
ell 139, elapsed: 0.0003008842468261719
ell 138, elapsed: 0.0002961158752441406
ell 137, elapsed: 0.0002911090850830078
ell 136, elapsed: 0.0002951622009277344
ell 135, elapsed: 0.00029397010803222656
ell 134, elapsed: 0.00029087066650390625
ell 133, elapsed: 0.0002930164337158203
ell 132, elapsed: 0.00034499168395996094
ell 131, elapsed: 0.0003180503845214844
ell 130, elapsed: 0.0003020763397216797
ell 129, elapsed: 0.0002949237823486328
ell 128, elapsed: 0.0002989768981933594
ell 127, elapsed: 0.00028896331787109375
ell 126, elapsed: 0.0002980232238769531
ell 125, elapsed: 0.00028705596923828125
ell 124, elapsed: 0.0002892017364501953
ell 123, elapsed: 0.0002930164337158203
ell 122, elapsed: 0.00028896331787109375
ell 121, elapsed: 0.0002970695495605469
ell 120, elapsed: 0.0002899169921875
ell 119, elapsed: 0.0003228187561035156
ell 118, elapsed: 0.00028896331787109375
ell 117, elapsed: 0.0002892017364501953
ell 116, elapsed: 0.0002911090850830078
ell 115, elapsed: 0.0002849102020263672
ell 114, elapsed: 0.00031185150146484375
ell 113, elapsed: 0.00028705596923828125
ell 112, elapsed: 0.0002880096435546875
ell 111, elapsed: 0.0002899169921875
ell 110, elapsed: 0.0002880096435546875
ell 109, elapsed: 0.0002849102020263672
ell 108, elapsed: 0.0002880096435546875
ell 107, elapsed: 0.0002980232238769531
ell 106, elapsed: 0.0003418922424316406
ell 105, elapsed: 0.0002880096435546875
ell 104, elapsed: 0.0002951622009277344
ell 103, elapsed: 0.00028514862060546875
ell 102, elapsed: 0.00029277801513671875
ell 101, elapsed: 0.00028395652770996094
ell 100, elapsed: 0.0002880096435546875
ell 99, elapsed: 0.0002911090850830078
ell 98, elapsed: 0.00028395652770996094
ell 97, elapsed: 0.0002911090850830078
ell 96, elapsed: 0.0002880096435546875
ell 95, elapsed: 0.00029015541076660156
ell 94, elapsed: 0.0002961158752441406
ell 93, elapsed: 0.0002930164337158203
ell 92, elapsed: 0.0002961158752441406
ell 91, elapsed: 0.0002911090850830078
ell 90, elapsed: 0.0002899169921875
ell 89, elapsed: 0.0002868175506591797
ell 88, elapsed: 0.00029087066650390625
ell 87, elapsed: 0.00029087066650390625
ell 86, elapsed: 0.00028705596923828125
ell 85, elapsed: 0.0002951622009277344
ell 84, elapsed: 0.00029087066650390625
ell 83, elapsed: 0.00029587745666503906
ell 82, elapsed: 0.00028586387634277344
ell 81, elapsed: 0.0003581047058105469
ell 80, elapsed: 0.00029397010803222656
ell 79, elapsed: 0.00029087066650390625
ell 78, elapsed: 0.0002930164337158203
ell 77, elapsed: 0.00029015541076660156
ell 76, elapsed: 0.00029397010803222656
ell 75, elapsed: 0.00029206275939941406
ell 74, elapsed: 0.000286102294921875
ell 73, elapsed: 0.0002970695495605469
ell 72, elapsed: 0.0002880096435546875
ell 71, elapsed: 0.0002989768981933594
ell 70, elapsed: 0.0002880096435546875
ell 69, elapsed: 0.0002970695495605469
ell 68, elapsed: 0.00033402442932128906
ell 67, elapsed: 0.00029015541076660156
ell 66, elapsed: 0.0003039836883544922
ell 65, elapsed: 0.00028586387634277344
ell 64, elapsed: 0.00029397010803222656
ell 63, elapsed: 0.0002868175506591797
ell 62, elapsed: 0.0002880096435546875
ell 61, elapsed: 0.00029587745666503906
ell 60, elapsed: 0.00028896331787109375
ell 59, elapsed: 0.0002918243408203125
ell 58, elapsed: 0.0002899169921875
ell 57, elapsed: 0.0002930164337158203
ell 56, elapsed: 0.0002980232238769531
ell 55, elapsed: 0.00034809112548828125
ell 54, elapsed: 0.0002970695495605469
ell 53, elapsed: 0.00029206275939941406
ell 52, elapsed: 0.0003190040588378906
ell 51, elapsed: 0.0002918243408203125
ell 50, elapsed: 0.00029397010803222656
ell 49, elapsed: 0.00029087066650390625
ell 48, elapsed: 0.00029206275939941406
ell 47, elapsed: 0.00029778480529785156
ell 46, elapsed: 0.00028896331787109375
ell 45, elapsed: 0.0002930164337158203
ell 44, elapsed: 0.0002880096435546875
ell 43, elapsed: 0.0003299713134765625
ell 42, elapsed: 0.0003008842468261719
ell 41, elapsed: 0.00028896331787109375
ell 40, elapsed: 0.0003018379211425781
ell 39, elapsed: 0.00028777122497558594
ell 38, elapsed: 0.0002880096435546875
ell 37, elapsed: 0.0002968311309814453
ell 36, elapsed: 0.0002880096435546875
ell 35, elapsed: 0.0002989768981933594
ell 34, elapsed: 0.0002899169921875
ell 33, elapsed: 0.0002942085266113281
ell 32, elapsed: 0.0002868175506591797
ell 31, elapsed: 0.00028896331787109375
ell 30, elapsed: 0.00032019615173339844
ell 29, elapsed: 0.00028896331787109375
ell 28, elapsed: 0.00029015541076660156
ell 27, elapsed: 0.0002968311309814453
ell 26, elapsed: 0.00029087066650390625
ell 25, elapsed: 0.0002880096435546875
ell 24, elapsed: 0.0002911090850830078
ell 23, elapsed: 0.00029397010803222656
ell 22, elapsed: 0.00028896331787109375
ell 21, elapsed: 0.0003008842468261719
ell 20, elapsed: 0.00028705596923828125
ell 19, elapsed: 0.0002968311309814453
ell 18, elapsed: 0.00028705596923828125
ell 17, elapsed: 0.0003330707550048828
ell 16, elapsed: 0.0002970695495605469
ell 15, elapsed: 0.00028896331787109375
ell 14, elapsed: 0.0002970695495605469
ell 13, elapsed: 0.0002918243408203125
ell 12, elapsed: 0.00028586387634277344
ell 11, elapsed: 0.0002970695495605469
ell 10, elapsed: 0.00028896331787109375
ell 9, elapsed: 0.00029397010803222656
ell 8, elapsed: 0.0002918243408203125
ell 7, elapsed: 0.00029587745666503906
ell 6, elapsed: 0.0002899169921875
ell 5, elapsed: 0.0002951622009277344
ell 4, elapsed: 0.0003159046173095703
ell 3, elapsed: 0.0002899169921875
ell 2, elapsed: 0.0002980232238769531
ell 1, elapsed: 0.00029206275939941406
ell 0, elapsed: 0.00029015541076660156
  0.402680 seconds (46.76 k allocations: 3.103 MiB)
elapsed: 0.0003559589385986328
step:          0.045942 sec (0 allocations: 0 byte, 0.0% gc time)
swapping:      0.000498 sec (0 allocations: 0 byte, 0.0% gc time)
calc_Mellell!: 0.005215 sec (0 allocations: 0 byte, 0.0% gc time)
  t0 :  0.001448 sec (0 allocations: 0 byte, 0.0% gc time)
  tm2 : 0.067759 sec (0 allocations: 0 byte, 0.0% gc time)
  tm2s: 0.000943 sec (0 allocations: 0 byte, 0.0% gc time)
  tm4 : 0.162193 sec (0 allocations: 0 byte, 0.0% gc time)
  tp2 : 0.0 sec (0 allocations: 0 byte, 0.0% gc time)
  tp2s: 0.0 sec (0 allocations: 0 byte, 0.0% gc time)
  tp4 : 0.0 sec (0 allocations: 0 byte, 0.0% gc time)
calc_wtdll!:   0.259214 sec (9.936 k allocations: 1.048 MB, 0.0% gc time)
calc_wljj!:    0.021021 sec (689 allocations: 10.766 KB, 0.0% gc time)
mult_prefac!:  0.0 sec (0 allocations: 0 byte, 0.0% gc time)
convert:       0.0 sec (0 allocations: 0 byte, 0.0% gc time)
write:         0.029988 sec (0 allocations: 0 byte, 0.0% gc time)
test_rand_2f1: 0.0 sec (0 allocations: 0 byte, 0.0% gc time)
Closing outfile out/Ml21-cache.bin...   0.000008 seconds
  0.000358 seconds (34 allocations: 27.906 KiB)
make_phi():   0.001335 seconds (8.18 k allocations: 237.766 KiB)
  0.116022 seconds (141.90 k allocations: 3.483 MiB)
tskip:       0.000624 sec (0 allocations: 0 byte, 0.0% gc time)
tread:       0.021963 sec (17 allocations: 10.641 KB, 0.0% gc time)
tmultphi:    0.008229 sec (0 allocations: 0 byte, 0.0% gc time)
tbrfft:      0.030805 sec (0 allocations: 0 byte, 0.0% gc time)
tmultprefac: 0.019074 sec (0 allocations: 0 byte, 0.0% gc time)
toutfunc:    0.03237 sec (127.507 k allocations: 2.312 MB, 0.0% gc time)
Testing R=1.0 ... passed
Calculating fmax: 
  dlrec    = 4
  dlrecRg1 = -4
  q=1.1, R=0.9:	  0.219033 seconds (105.72 k allocations: 15.273 MiB)

  0.219174 seconds (105.77 k allocations: 15.307 MiB)
ℓ = 1202
Δℓ = 4
ΔℓRg1 = -4
N = 1600
q = 1.1
kmin = 1.0e-5
kmax = 100000.00000000004
χ0 = 0.023029999999999995
RR = RR.tsv
ℓmax = ℓmax.bin
f21 = f21.bin
kmin = 1.0e-5
kmax = 100000.0
dlrec    = 4
dlrecRg1 = -4
Output size: 5741568 bytes = 0.005347251892089844 GiB
Output size: 51264 bytes = 4.774332046508789e-5 GiB
Reading 'out/F21EllCache'...   0.000835 seconds (237 allocations: 85.453 KiB)
ellmax: 1202
lmaxcache: 1202
fell[:,1,1] = Complex{Float64}[1.3482014726274674e-57 - 3.302141236118086e-73im, 1.357860004724329e-57 - 3.3257978169518355e-73im]
ell 1202, elapsed: 8.821487426757812e-6
ell 1201, elapsed: 0.00028395652770996094
ell 1200, elapsed: 0.0002617835998535156
ell 1199, elapsed: 0.0002620220184326172
ell 1198, elapsed: 0.0002579689025878906
ell 1002, elapsed: 0.007838010787963867
ell 1001, elapsed: 0.0002799034118652344
ell 1000, elapsed: 0.00024700164794921875
ell 999, elapsed: 0.00024008750915527344
ell 998, elapsed: 0.0002410411834716797
ell 902, elapsed: 0.00408482551574707
ell 901, elapsed: 0.0002560615539550781
ell 900, elapsed: 0.00024700164794921875
ell 899, elapsed: 0.00025200843811035156
ell 898, elapsed: 0.00024890899658203125
ell 802, elapsed: 0.004148006439208984
ell 801, elapsed: 0.0002560615539550781
ell 800, elapsed: 0.000247955322265625
ell 799, elapsed: 0.0002510547637939453
ell 798, elapsed: 0.0002498626708984375
ell 702, elapsed: 0.004137992858886719
ell 701, elapsed: 0.0002560615539550781
ell 700, elapsed: 0.0002770423889160156
ell 699, elapsed: 0.0002529621124267578
ell 698, elapsed: 0.00025010108947753906
ell 602, elapsed: 0.004139900207519531
ell 601, elapsed: 0.0002570152282714844
ell 600, elapsed: 0.0002498626708984375
ell 599, elapsed: 0.00025010108947753906
ell 598, elapsed: 0.000247955322265625
ell 502, elapsed: 0.00415802001953125
ell 501, elapsed: 0.0002548694610595703
ell 500, elapsed: 0.000247955322265625
ell 499, elapsed: 0.00024890899658203125
ell 498, elapsed: 0.000247955322265625
ell 402, elapsed: 0.004140138626098633
ell 401, elapsed: 0.0002551078796386719
ell 400, elapsed: 0.0002579689025878906
ell 399, elapsed: 0.0003998279571533203
ell 398, elapsed: 0.00025200843811035156
ell 302, elapsed: 0.0041370391845703125
ell 301, elapsed: 0.0002598762512207031
ell 300, elapsed: 0.000247955322265625
ell 299, elapsed: 0.00025010108947753906
ell 298, elapsed: 0.0002491474151611328
ell 202, elapsed: 0.004174947738647461
ell 201, elapsed: 0.00025391578674316406
ell 200, elapsed: 0.0002429485321044922
ell 199, elapsed: 0.0002429485321044922
ell 198, elapsed: 0.0002391338348388672
ell 152, elapsed: 0.002090930938720703
ell 151, elapsed: 0.00024199485778808594
ell 150, elapsed: 0.00024390220642089844
ell 149, elapsed: 0.00025391578674316406
ell 148, elapsed: 0.00024819374084472656
ell 127, elapsed: 0.0011019706726074219
ell 126, elapsed: 0.0002460479736328125
ell 125, elapsed: 0.0002529621124267578
ell 124, elapsed: 0.000286102294921875
ell 123, elapsed: 0.00025010108947753906
ell 114, elapsed: 0.0006160736083984375
ell 113, elapsed: 0.00025200843811035156
ell 112, elapsed: 0.0002460479736328125
ell 111, elapsed: 0.00024390220642089844
ell 110, elapsed: 0.00024509429931640625
ell 102, elapsed: 0.0005691051483154297
ell 101, elapsed: 0.0002429485321044922
ell 100, elapsed: 0.0002460479736328125
ell 99, elapsed: 0.00025010108947753906
ell 98, elapsed: 0.0002529621124267578
ell 97, elapsed: 0.00035500526428222656
ell 96, elapsed: 0.0002911090850830078
ell 95, elapsed: 0.0002989768981933594
ell 94, elapsed: 0.0002880096435546875
ell 93, elapsed: 0.00028586387634277344
ell 92, elapsed: 0.00028896331787109375
ell 91, elapsed: 0.00028514862060546875
ell 90, elapsed: 0.0002970695495605469
ell 89, elapsed: 0.0002868175506591797
ell 88, elapsed: 0.00028395652770996094
ell 87, elapsed: 0.00029206275939941406
ell 86, elapsed: 0.00028896331787109375
ell 85, elapsed: 0.00028705596923828125
ell 84, elapsed: 0.00032711029052734375
ell 83, elapsed: 0.0002779960632324219
ell 82, elapsed: 0.0002949237823486328
ell 81, elapsed: 0.0002830028533935547
ell 80, elapsed: 0.00028705596923828125
ell 79, elapsed: 0.0002810955047607422
ell 78, elapsed: 0.0002799034118652344
ell 77, elapsed: 0.0002789497375488281
ell 76, elapsed: 0.0002810955047607422
ell 75, elapsed: 0.0002911090850830078
ell 74, elapsed: 0.0002830028533935547
ell 73, elapsed: 0.0002770423889160156
ell 72, elapsed: 0.0002942085266113281
ell 71, elapsed: 0.00034689903259277344
ell 70, elapsed: 0.0002949237823486328
ell 69, elapsed: 0.0002841949462890625
ell 68, elapsed: 0.0002799034118652344
ell 67, elapsed: 0.00028705596923828125
ell 66, elapsed: 0.0002849102020263672
ell 65, elapsed: 0.00028896331787109375
ell 64, elapsed: 0.00028014183044433594
ell 63, elapsed: 0.0002830028533935547
ell 62, elapsed: 0.0002980232238769531
ell 61, elapsed: 0.0002880096435546875
ell 60, elapsed: 0.0002880096435546875
ell 59, elapsed: 0.000286102294921875
ell 58, elapsed: 0.0003190040588378906
ell 57, elapsed: 0.0002930164337158203
ell 56, elapsed: 0.00028896331787109375
ell 55, elapsed: 0.00028586387634277344
ell 54, elapsed: 0.0002830028533935547
ell 53, elapsed: 0.0002918243408203125
ell 52, elapsed: 0.00029206275939941406
ell 51, elapsed: 0.0002880096435546875
ell 50, elapsed: 0.00029087066650390625
ell 49, elapsed: 0.00029015541076660156
ell 48, elapsed: 0.00029587745666503906
ell 47, elapsed: 0.00028896331787109375
ell 46, elapsed: 0.0002880096435546875
ell 45, elapsed: 0.0003941059112548828
ell 44, elapsed: 0.00028014183044433594
ell 43, elapsed: 0.0002899169921875
ell 42, elapsed: 0.0002808570861816406
ell 41, elapsed: 0.0002751350402832031
ell 40, elapsed: 0.000286102294921875
ell 39, elapsed: 0.0002849102020263672
ell 38, elapsed: 0.00028705596923828125
ell 37, elapsed: 0.00028395652770996094
ell 36, elapsed: 0.0002899169921875
ell 35, elapsed: 0.0002892017364501953
ell 34, elapsed: 0.0002830028533935547
ell 33, elapsed: 0.0002951622009277344
ell 32, elapsed: 0.00032901763916015625
ell 31, elapsed: 0.0002779960632324219
ell 30, elapsed: 0.000286102294921875
ell 29, elapsed: 0.00028395652770996094
ell 28, elapsed: 0.000286102294921875
ell 27, elapsed: 0.0002770423889160156
ell 26, elapsed: 0.00028705596923828125
ell 25, elapsed: 0.0002911090850830078
ell 24, elapsed: 0.0002849102020263672
ell 23, elapsed: 0.0003020763397216797
ell 22, elapsed: 0.000286102294921875
ell 21, elapsed: 0.00028514862060546875
ell 20, elapsed: 0.00029397010803222656
ell 19, elapsed: 0.00032901763916015625
ell 18, elapsed: 0.0002949237823486328
ell 17, elapsed: 0.00028586387634277344
ell 16, elapsed: 0.0002808570861816406
ell 15, elapsed: 0.0002980232238769531
ell 14, elapsed: 0.00029015541076660156
ell 13, elapsed: 0.00029206275939941406
ell 12, elapsed: 0.0002849102020263672
ell 11, elapsed: 0.00028395652770996094
ell 10, elapsed: 0.00028896331787109375
ell 9, elapsed: 0.0002849102020263672
ell 8, elapsed: 0.00029587745666503906
ell 7, elapsed: 0.0002830028533935547
ell 6, elapsed: 0.0003349781036376953
ell 5, elapsed: 0.00028896331787109375
ell 4, elapsed: 0.00028395652770996094
ell 3, elapsed: 0.0002899169921875
ell 2, elapsed: 0.00028514862060546875
ell 1, elapsed: 0.0002810955047607422
ell 0, elapsed: 0.0002880096435546875
  0.091505 seconds (11.54 k allocations: 720.062 KiB)
elapsed: 0.0003521442413330078
step:          0.046286 sec (0 allocations: 0 byte, 0.0% gc time)
swapping:      0.000388 sec (0 allocations: 0 byte, 0.0% gc time)
calc_Mellell!: 0.000757 sec (0 allocations: 0 byte, 0.0% gc time)
  t0 :  0.000262 sec (0 allocations: 0 byte, 0.0% gc time)
  tm2 : 0.009338 sec (0 allocations: 0 byte, 0.0% gc time)
  tm2s: 0.000205 sec (0 allocations: 0 byte, 0.0% gc time)
  tm4 : 0.022964 sec (0 allocations: 0 byte, 0.0% gc time)
  tp2 : 0.0 sec (0 allocations: 0 byte, 0.0% gc time)
  tp2s: 0.0 sec (0 allocations: 0 byte, 0.0% gc time)
  tp4 : 0.0 sec (0 allocations: 0 byte, 0.0% gc time)
calc_wtdll!:   0.033096 sec (1.344 k allocations: 147.0 KB, 0.0% gc time)
calc_wljj!:    0.00212 sec (6 allocations: 96 byte, 0.0% gc time)
mult_prefac!:  0.0 sec (0 allocations: 0 byte, 0.0% gc time)
convert:       0.0 sec (0 allocations: 0 byte, 0.0% gc time)
write:         0.002959 sec (0 allocations: 0 byte, 0.0% gc time)
test_rand_2f1: 0.0 sec (0 allocations: 0 byte, 0.0% gc time)
Closing outfile out/Ml21-cache.bin...   0.000007 seconds
  0.000198 seconds (34 allocations: 27.906 KiB)
make_phi():   0.001299 seconds (8.18 k allocations: 237.766 KiB)
  0.010630 seconds (11.65 k allocations: 308.688 KiB)
tskip:       1.4e-5 sec (0 allocations: 0 byte, 0.0% gc time)
tread:       0.002008 sec (17 allocations: 2.125 KB, 0.0% gc time)
tmultphi:    0.000765 sec (0 allocations: 0 byte, 0.0% gc time)
tbrfft:      0.002821 sec (0 allocations: 0 byte, 0.0% gc time)
tmultprefac: 0.001803 sec (0 allocations: 0 byte, 0.0% gc time)
toutfunc:    0.003032 sec (10.304 k allocations: 196.0 KB, 0.0% gc time)
Testing R=0.9 ... passed
Calculating fmax: 
  dlrec    = 4
  dlrecRg1 = -4
  q=1.1, R=0.8:	  0.175320 seconds (103.21 k allocations: 14.840 MiB)

  0.175455 seconds (103.26 k allocations: 14.874 MiB)
ℓ = 1202
Δℓ = 4
ΔℓRg1 = -4
N = 1600
q = 1.1
kmin = 1.0e-5
kmax = 100000.00000000004
χ0 = 0.023029999999999995
RR = RR.tsv
ℓmax = ℓmax.bin
f21 = f21.bin
kmin = 1.0e-5
kmax = 100000.0
dlrec    = 4
dlrecRg1 = -4
Output size: 5741568 bytes = 0.005347251892089844 GiB
Output size: 51264 bytes = 4.774332046508789e-5 GiB
Reading 'out/F21EllCache'...   0.000833 seconds (237 allocations: 85.453 KiB)
ellmax: 1202
lmaxcache: 1202
fell[:,1,1] = Complex{Float64}[7.519068145690986e-120 - 1.8416405474382574e-135im, 7.541664537386155e-120 - 1.847175067190611e-135im]
ell 1202, elapsed: 1.1920928955078125e-5
ell 1201, elapsed: 0.00028896331787109375
ell 1200, elapsed: 0.00027298927307128906
ell 1199, elapsed: 0.0002689361572265625
ell 1198, elapsed: 0.00026607513427734375
ell 1002, elapsed: 0.007829904556274414
ell 1001, elapsed: 0.00025010108947753906
ell 1000, elapsed: 0.00024199485778808594
ell 999, elapsed: 0.000244140625
ell 998, elapsed: 0.00024008750915527344
ell 902, elapsed: 0.0038602352142333984
ell 901, elapsed: 0.00024580955505371094
ell 900, elapsed: 0.00023484230041503906
ell 899, elapsed: 0.0002448558807373047
ell 898, elapsed: 0.00028204917907714844
ell 802, elapsed: 0.003840923309326172
ell 801, elapsed: 0.0002551078796386719
ell 800, elapsed: 0.00024008750915527344
ell 799, elapsed: 0.00024509429931640625
ell 798, elapsed: 0.000244140625
ell 702, elapsed: 0.003911018371582031
ell 701, elapsed: 0.0002498626708984375
ell 700, elapsed: 0.0002510547637939453
ell 699, elapsed: 0.0002498626708984375
ell 698, elapsed: 0.000247955322265625
ell 602, elapsed: 0.004083871841430664
ell 601, elapsed: 0.00026106834411621094
ell 600, elapsed: 0.0002589225769042969
ell 599, elapsed: 0.0002510547637939453
ell 598, elapsed: 0.0002560615539550781
ell 502, elapsed: 0.004077911376953125
ell 501, elapsed: 0.00025916099548339844
ell 500, elapsed: 0.00028514862060546875
ell 499, elapsed: 0.00025010108947753906
ell 498, elapsed: 0.00035500526428222656
ell 402, elapsed: 0.00407099723815918
ell 401, elapsed: 0.0002567768096923828
ell 400, elapsed: 0.00025391578674316406
ell 399, elapsed: 0.000247955322265625
ell 398, elapsed: 0.0002541542053222656
ell 302, elapsed: 0.004030942916870117
ell 301, elapsed: 0.0002560615539550781
ell 300, elapsed: 0.0002532005310058594
ell 299, elapsed: 0.0002460479736328125
ell 298, elapsed: 0.0002529621124267578
ell 202, elapsed: 0.00396418571472168
ell 201, elapsed: 0.0002510547637939453
ell 200, elapsed: 0.0002460479736328125
ell 199, elapsed: 0.00024700164794921875
ell 198, elapsed: 0.00029015541076660156
ell 152, elapsed: 0.002012014389038086
ell 151, elapsed: 0.00024199485778808594
ell 150, elapsed: 0.00024509429931640625
ell 149, elapsed: 0.0002429485321044922
ell 148, elapsed: 0.0002429485321044922
ell 127, elapsed: 0.0010750293731689453
ell 126, elapsed: 0.0002391338348388672
ell 125, elapsed: 0.00024318695068359375
ell 124, elapsed: 0.00024390220642089844
ell 123, elapsed: 0.0002410411834716797
ell 114, elapsed: 0.0006070137023925781
ell 113, elapsed: 0.0002448558807373047
ell 112, elapsed: 0.000247955322265625
ell 111, elapsed: 0.00024008750915527344
ell 110, elapsed: 0.0002448558807373047
ell 102, elapsed: 0.0005497932434082031
ell 101, elapsed: 0.00024819374084472656
ell 100, elapsed: 0.0002751350402832031
ell 99, elapsed: 0.0002410411834716797
ell 98, elapsed: 0.0002429485321044922
ell 97, elapsed: 0.00029587745666503906
ell 96, elapsed: 0.0002818107604980469
ell 95, elapsed: 0.0002849102020263672
ell 94, elapsed: 0.0002949237823486328
ell 93, elapsed: 0.0002830028533935547
ell 92, elapsed: 0.00028896331787109375
ell 91, elapsed: 0.00028014183044433594
ell 90, elapsed: 0.0002880096435546875
ell 89, elapsed: 0.0002849102020263672
ell 88, elapsed: 0.00028204917907714844
ell 87, elapsed: 0.0002899169921875
ell 86, elapsed: 0.0043849945068359375
ell 85, elapsed: 0.00047707557678222656
ell 84, elapsed: 0.0003349781036376953
ell 83, elapsed: 0.0002849102020263672
ell 82, elapsed: 0.0002918243408203125
ell 81, elapsed: 0.00028705596923828125
ell 80, elapsed: 0.0002892017364501953
ell 79, elapsed: 0.0002849102020263672
ell 78, elapsed: 0.00029206275939941406
ell 77, elapsed: 0.00028014183044433594
ell 76, elapsed: 0.0002830028533935547
ell 75, elapsed: 0.0002880096435546875
ell 74, elapsed: 0.0002810955047607422
ell 73, elapsed: 0.0002880096435546875
ell 72, elapsed: 0.00028395652770996094
ell 71, elapsed: 0.0002779960632324219
ell 70, elapsed: 0.0003459453582763672
ell 69, elapsed: 0.00029587745666503906
ell 68, elapsed: 0.00029397010803222656
ell 67, elapsed: 0.00028896331787109375
ell 66, elapsed: 0.0002911090850830078
ell 65, elapsed: 0.00029015541076660156
ell 64, elapsed: 0.0003509521484375
ell 63, elapsed: 0.00029206275939941406
ell 62, elapsed: 0.0002880096435546875
ell 61, elapsed: 0.00028705596923828125
ell 60, elapsed: 0.00028514862060546875
ell 59, elapsed: 0.0002880096435546875
ell 58, elapsed: 0.0002930164337158203
ell 57, elapsed: 0.0002892017364501953
ell 56, elapsed: 0.0002880096435546875
ell 55, elapsed: 0.0002980232238769531
ell 54, elapsed: 0.00029087066650390625
[...]
ell 782, elapsed: 0.0009748935699462891
ell 781, elapsed: 0.0005240440368652344
ell 780, elapsed: 0.0005319118499755859
ell 779, elapsed: 0.0005409717559814453
ell 778, elapsed: 0.0005781650543212891
ell 772, elapsed: 0.0010328292846679688
ell 771, elapsed: 0.0006079673767089844
ell 770, elapsed: 0.0005669593811035156
ell 769, elapsed: 0.0005519390106201172
ell 768, elapsed: 0.0006089210510253906
ell 762, elapsed: 0.0010650157928466797
ell 761, elapsed: 0.0005719661712646484
ell 760, elapsed: 0.0006039142608642578
ell 759, elapsed: 0.000553131103515625
ell 758, elapsed: 0.0005152225494384766
ell 752, elapsed: 0.0009009838104248047
ell 751, elapsed: 0.0005099773406982422
ell 750, elapsed: 0.0005190372467041016
ell 749, elapsed: 0.0005099773406982422
ell 748, elapsed: 0.0010788440704345703
ell 742, elapsed: 0.0009210109710693359
ell 741, elapsed: 0.0005028247833251953
ell 740, elapsed: 0.0005381107330322266
ell 739, elapsed: 0.0005240440368652344
ell 738, elapsed: 0.0005540847778320312
ell 732, elapsed: 0.0008821487426757812
ell 731, elapsed: 0.0005240440368652344
ell 730, elapsed: 0.0005481243133544922
ell 729, elapsed: 0.0005350112915039062
ell 728, elapsed: 0.0005218982696533203
ell 722, elapsed: 0.0009250640869140625
ell 721, elapsed: 0.0005080699920654297
ell 720, elapsed: 0.000514984130859375
ell 719, elapsed: 0.0005071163177490234
ell 718, elapsed: 0.0005350112915039062
ell 712, elapsed: 0.0009009838104248047
ell 711, elapsed: 0.0005240440368652344
ell 710, elapsed: 0.0005800724029541016
ell 709, elapsed: 0.0005331039428710938
ell 708, elapsed: 0.0005300045013427734
ell 702, elapsed: 0.0009140968322753906
ell 701, elapsed: 0.0005269050598144531
ell 700, elapsed: 0.0005350112915039062
ell 699, elapsed: 0.0005249977111816406
ell 698, elapsed: 0.0005650520324707031
ell 692, elapsed: 0.0008909702301025391
ell 691, elapsed: 0.0005249977111816406
ell 690, elapsed: 0.0005240440368652344
ell 689, elapsed: 0.0005290508270263672
ell 688, elapsed: 0.0005300045013427734
ell 682, elapsed: 0.0009410381317138672
ell 681, elapsed: 0.0005409717559814453
ell 680, elapsed: 0.0005400180816650391
ell 679, elapsed: 0.0005271434783935547
ell 678, elapsed: 0.0005431175231933594
ell 672, elapsed: 0.0009479522705078125
ell 671, elapsed: 0.0005528926849365234
ell 670, elapsed: 0.0005319118499755859
ell 669, elapsed: 0.0005269050598144531
ell 668, elapsed: 0.0005350112915039062
ell 662, elapsed: 0.0009398460388183594
ell 661, elapsed: 0.0005199909210205078
ell 660, elapsed: 0.0005779266357421875
ell 659, elapsed: 0.0005331039428710938
ell 658, elapsed: 0.0005259513854980469
ell 652, elapsed: 0.0009188652038574219
ell 651, elapsed: 0.0005309581756591797
ell 650, elapsed: 0.0005280971527099609
ell 649, elapsed: 0.0005278587341308594
ell 648, elapsed: 0.0005519390106201172
ell 642, elapsed: 0.0009222030639648438
ell 641, elapsed: 0.0005269050598144531
ell 640, elapsed: 0.0005331039428710938
ell 639, elapsed: 0.0005340576171875
ell 638, elapsed: 0.0005350112915039062
ell 632, elapsed: 0.0009679794311523438
ell 631, elapsed: 0.0005271434783935547
ell 630, elapsed: 0.0005471706390380859
ell 629, elapsed: 0.0005650520324707031
ell 628, elapsed: 0.0005238056182861328
ell 622, elapsed: 0.0008668899536132812
ell 621, elapsed: 0.0010769367218017578
ell 620, elapsed: 0.0005240440368652344
ell 619, elapsed: 0.0005218982696533203
ell 618, elapsed: 0.0005230903625488281
ell 612, elapsed: 0.0008969306945800781
ell 611, elapsed: 0.0005168914794921875
ell 610, elapsed: 0.020631074905395508
ell 609, elapsed: 0.0005431175231933594
ell 608, elapsed: 0.0005419254302978516
ell 602, elapsed: 0.000988006591796875
ell 601, elapsed: 0.000518798828125
ell 600, elapsed: 0.0005218982696533203
ell 599, elapsed: 0.0005321502685546875
ell 598, elapsed: 0.0005240440368652344
ell 592, elapsed: 0.0009350776672363281
ell 591, elapsed: 0.0005199909210205078
ell 590, elapsed: 0.0005249977111816406
ell 589, elapsed: 0.0005209445953369141
ell 588, elapsed: 0.0005340576171875
ell 582, elapsed: 0.0009760856628417969
ell 581, elapsed: 0.0005109310150146484
ell 580, elapsed: 0.0005259513854980469
ell 579, elapsed: 0.0005049705505371094
ell 578, elapsed: 0.0005300045013427734
ell 572, elapsed: 0.0009090900421142578
ell 571, elapsed: 0.0005981922149658203
ell 570, elapsed: 0.0005171298980712891
ell 569, elapsed: 0.0005168914794921875
ell 568, elapsed: 0.0005218982696533203
ell 562, elapsed: 0.0009160041809082031
ell 561, elapsed: 0.0005581378936767578
ell 560, elapsed: 0.0006208419799804688
ell 559, elapsed: 0.0005838871002197266
ell 558, elapsed: 0.0005881786346435547
ell 552, elapsed: 0.0009529590606689453
ell 551, elapsed: 0.0005249977111816406
ell 550, elapsed: 0.0005400180816650391
ell 549, elapsed: 0.0006699562072753906
ell 548, elapsed: 0.0005500316619873047
ell 542, elapsed: 0.0009729862213134766
ell 541, elapsed: 0.0005240440368652344
ell 540, elapsed: 0.0005369186401367188
ell 539, elapsed: 0.0005440711975097656
ell 538, elapsed: 0.0005919933319091797
ell 532, elapsed: 0.0009720325469970703
ell 531, elapsed: 0.0005021095275878906
ell 530, elapsed: 0.0005288124084472656
ell 529, elapsed: 0.0005280971527099609
ell 528, elapsed: 0.0005319118499755859
ell 522, elapsed: 0.0010590553283691406
ell 521, elapsed: 0.0005700588226318359
ell 520, elapsed: 0.0005838871002197266
ell 519, elapsed: 0.0005350112915039062
ell 518, elapsed: 0.0005180835723876953
ell 512, elapsed: 0.013401985168457031
ell 511, elapsed: 0.0009698867797851562
ell 510, elapsed: 0.0005309581756591797
ell 509, elapsed: 0.0005218982696533203
ell 508, elapsed: 0.0005290508270263672
ell 502, elapsed: 0.0009160041809082031
ell 501, elapsed: 0.0005409717559814453
ell 500, elapsed: 0.0005168914794921875
ell 499, elapsed: 0.0005099773406982422
ell 498, elapsed: 0.0005419254302978516
ell 492, elapsed: 0.0009508132934570312
ell 491, elapsed: 0.0005130767822265625
ell 490, elapsed: 0.0005140304565429688
ell 489, elapsed: 0.0006039142608642578
ell 488, elapsed: 0.0005331039428710938
ell 482, elapsed: 0.0009229183197021484
ell 481, elapsed: 0.000514984130859375
ell 480, elapsed: 0.0005199909210205078
ell 479, elapsed: 0.0005240440368652344
ell 478, elapsed: 0.0005910396575927734
ell 472, elapsed: 0.0009140968322753906
ell 471, elapsed: 0.0005199909210205078
ell 470, elapsed: 0.0005109310150146484
ell 469, elapsed: 0.0005140304565429688
ell 468, elapsed: 0.000514984130859375
ell 462, elapsed: 0.000997781753540039
ell 461, elapsed: 0.0005230903625488281
ell 460, elapsed: 0.0005152225494384766
ell 459, elapsed: 0.0029420852661132812
ell 458, elapsed: 0.0005218982696533203
ell 452, elapsed: 0.0009410381317138672
ell 451, elapsed: 0.0005161762237548828
ell 450, elapsed: 0.0005309581756591797
ell 449, elapsed: 0.0005168914794921875
ell 448, elapsed: 0.0005199909210205078
ell 442, elapsed: 0.0010051727294921875
ell 441, elapsed: 0.0005078315734863281
ell 440, elapsed: 0.0005269050598144531
ell 439, elapsed: 0.0005180835723876953
ell 438, elapsed: 0.0005171298980712891
ell 432, elapsed: 0.0009119510650634766
ell 431, elapsed: 0.0005857944488525391
ell 430, elapsed: 0.0005130767822265625
ell 429, elapsed: 0.0005099773406982422
ell 428, elapsed: 0.0005109310150146484
ell 422, elapsed: 0.0009298324584960938
ell 421, elapsed: 0.0005118846893310547
ell 420, elapsed: 0.0006000995635986328
ell 419, elapsed: 0.0005109310150146484
ell 418, elapsed: 0.000514984130859375
ell 412, elapsed: 0.0009119510650634766
ell 411, elapsed: 0.0005087852478027344
ell 410, elapsed: 0.000514984130859375
ell 409, elapsed: 0.0005161762237548828
ell 408, elapsed: 0.0005900859832763672
ell 402, elapsed: 0.0009469985961914062
ell 401, elapsed: 0.0005190372467041016
ell 400, elapsed: 0.0005080699920654297
ell 399, elapsed: 0.0005221366882324219
ell 398, elapsed: 0.0005130767822265625
ell 392, elapsed: 0.0010030269622802734
ell 391, elapsed: 0.000514984130859375
ell 390, elapsed: 0.0005249977111816406
ell 389, elapsed: 0.000514984130859375
ell 388, elapsed: 0.0005228519439697266
ell 382, elapsed: 0.0009379386901855469
ell 381, elapsed: 0.0005290508270263672
ell 380, elapsed: 0.0005171298980712891
ell 379, elapsed: 0.0005040168762207031
ell 378, elapsed: 0.0005209445953369141
ell 372, elapsed: 0.0009028911590576172
ell 371, elapsed: 0.0005099773406982422
ell 370, elapsed: 0.0005137920379638672
ell 369, elapsed: 0.0005300045013427734
ell 368, elapsed: 0.0005140304565429688
ell 362, elapsed: 0.0009150505065917969
ell 361, elapsed: 0.0005109310150146484
ell 360, elapsed: 0.0005249977111816406
ell 359, elapsed: 0.0005099773406982422
ell 358, elapsed: 0.0005190372467041016
ell 352, elapsed: 0.0009670257568359375
ell 351, elapsed: 0.0005109310150146484
ell 350, elapsed: 0.0005338191986083984
ell 349, elapsed: 0.0005159378051757812
ell 348, elapsed: 0.0005350112915039062
ell 342, elapsed: 0.0009591579437255859
ell 341, elapsed: 0.0005178451538085938
ell 340, elapsed: 0.0005159378051757812
ell 339, elapsed: 0.0005218982696533203
ell 338, elapsed: 0.0005240440368652344
ell 332, elapsed: 0.0009310245513916016
ell 331, elapsed: 0.0005152225494384766
ell 330, elapsed: 0.0005409717559814453
ell 329, elapsed: 0.0005199909210205078
ell 328, elapsed: 0.0005249977111816406
ell 322, elapsed: 0.0009520053863525391
ell 321, elapsed: 0.0005238056182861328
ell 320, elapsed: 0.0005300045013427734
ell 319, elapsed: 0.0005249977111816406
ell 318, elapsed: 0.0006010532379150391
ell 312, elapsed: 0.0009188652038574219
ell 311, elapsed: 0.0005159378051757812
ell 310, elapsed: 0.0005230903625488281
ell 309, elapsed: 0.000518798828125
ell 308, elapsed: 0.0005259513854980469
ell 302, elapsed: 0.0009481906890869141
ell 301, elapsed: 0.0005228519439697266
ell 300, elapsed: 0.0005350112915039062
ell 299, elapsed: 0.0005180835723876953
ell 298, elapsed: 0.0005290508270263672
ell 292, elapsed: 0.0009341239929199219
ell 291, elapsed: 0.0006899833679199219
ell 290, elapsed: 0.0005259513854980469
ell 289, elapsed: 0.0005238056182861328
ell 288, elapsed: 0.0005259513854980469
ell 282, elapsed: 0.0009238719940185547
ell 281, elapsed: 0.0005159378051757812
ell 280, elapsed: 0.0005750656127929688
ell 279, elapsed: 0.0005221366882324219
ell 278, elapsed: 0.0005290508270263672
ell 272, elapsed: 0.0009579658508300781
ell 271, elapsed: 0.0005218982696533203
ell 270, elapsed: 0.0005331039428710938
ell 269, elapsed: 0.0005700588226318359
ell 268, elapsed: 0.0006420612335205078
ell 262, elapsed: 0.0009531974792480469
ell 261, elapsed: 0.0005538463592529297
ell 260, elapsed: 0.0005269050598144531
ell 259, elapsed: 0.0005280971527099609
ell 258, elapsed: 0.0005280971527099609
ell 252, elapsed: 0.0010259151458740234
ell 251, elapsed: 0.0005278587341308594
ell 250, elapsed: 0.0005440711975097656
ell 249, elapsed: 0.0005321502685546875
ell 248, elapsed: 0.0005309581756591797
ell 242, elapsed: 0.0010499954223632812
ell 241, elapsed: 0.0005152225494384766
ell 240, elapsed: 0.0005309581756591797
ell 239, elapsed: 0.0005230903625488281
ell 238, elapsed: 0.0005362033843994141
ell 232, elapsed: 0.0009238719940185547
ell 231, elapsed: 0.0005249977111816406
ell 230, elapsed: 0.0005497932434082031
ell 229, elapsed: 0.0005240440368652344
ell 228, elapsed: 0.0005240440368652344
ell 222, elapsed: 0.0009129047393798828
ell 221, elapsed: 0.0005240440368652344
ell 220, elapsed: 0.0005290508270263672
ell 219, elapsed: 0.0006089210510253906
ell 218, elapsed: 0.0005309581756591797
ell 212, elapsed: 0.0009219646453857422
ell 211, elapsed: 0.0005199909210205078
ell 210, elapsed: 0.0005362033843994141
ell 209, elapsed: 0.0005218982696533203
ell 208, elapsed: 0.0005350112915039062
ell 202, elapsed: 0.0009510517120361328
ell 201, elapsed: 0.0005159378051757812
ell 200, elapsed: 0.0005309581756591797
ell 199, elapsed: 0.0005211830139160156
ell 198, elapsed: 0.0005328655242919922
ell 192, elapsed: 0.0009279251098632812
ell 191, elapsed: 0.0005159378051757812
ell 190, elapsed: 0.0005218982696533203
ell 189, elapsed: 0.0005209445953369141
ell 188, elapsed: 0.0005238056182861328
ell 182, elapsed: 0.0009219646453857422
ell 181, elapsed: 0.0005178451538085938
ell 180, elapsed: 0.0005650520324707031
ell 179, elapsed: 0.0005209445953369141
ell 178, elapsed: 0.0005230903625488281
ell 172, elapsed: 0.0009391307830810547
ell 171, elapsed: 0.0005118846893310547
ell 170, elapsed: 0.0005259513854980469
ell 169, elapsed: 0.0005209445953369141
ell 168, elapsed: 0.0005500316619873047
ell 162, elapsed: 0.0009410381317138672
ell 161, elapsed: 0.0005218982696533203
ell 160, elapsed: 0.0005300045013427734
ell 159, elapsed: 0.0005228519439697266
ell 158, elapsed: 0.0005209445953369141
ell 152, elapsed: 0.0009508132934570312
ell 151, elapsed: 0.0005199909210205078
ell 150, elapsed: 0.0005228519439697266
ell 149, elapsed: 0.0005240440368652344
ell 148, elapsed: 0.0005269050598144531
ell 142, elapsed: 0.0009238719940185547
ell 141, elapsed: 0.0005919933319091797
ell 140, elapsed: 0.0005278587341308594
ell 139, elapsed: 0.0005140304565429688
ell 138, elapsed: 0.0005230903625488281
ell 132, elapsed: 0.0009100437164306641
ell 131, elapsed: 0.0005121231079101562
ell 130, elapsed: 0.0005140304565429688
ell 129, elapsed: 0.0005199909210205078
ell 128, elapsed: 0.0005118846893310547
ell 122, elapsed: 0.0008959770202636719
ell 121, elapsed: 0.0005288124084472656
ell 120, elapsed: 0.0005328655242919922
ell 119, elapsed: 0.0005099773406982422
ell 118, elapsed: 0.000640869140625
ell 112, elapsed: 0.0009050369262695312
ell 111, elapsed: 0.0005040168762207031
ell 110, elapsed: 0.0005221366882324219
ell 109, elapsed: 0.0005109310150146484
ell 108, elapsed: 0.0005178451538085938
ell 102, elapsed: 0.0010030269622802734
ell 101, elapsed: 0.002151966094970703
ell 100, elapsed: 0.0021889209747314453
ell 99, elapsed: 0.002177000045776367
ell 98, elapsed: 0.002196073532104492
ell 92, elapsed: 0.0043179988861083984
ell 91, elapsed: 0.0021729469299316406
ell 90, elapsed: 0.002207040786743164
ell 89, elapsed: 0.002192974090576172
ell 88, elapsed: 0.0021979808807373047
ell 82, elapsed: 0.004269123077392578
ell 81, elapsed: 0.0022199153900146484
ell 80, elapsed: 0.0021898746490478516
ell 79, elapsed: 0.0022559165954589844
ell 78, elapsed: 0.002212047576904297
ell 72, elapsed: 0.004443168640136719
ell 71, elapsed: 0.0022351741790771484
ell 70, elapsed: 0.0023491382598876953
ell 69, elapsed: 0.002207040786743164
ell 68, elapsed: 0.002290010452270508
ell 62, elapsed: 0.004270076751708984
ell 61, elapsed: 0.0021820068359375
ell 60, elapsed: 0.00220489501953125
ell 59, elapsed: 0.0021848678588867188
ell 58, elapsed: 0.002146005630493164
ell 52, elapsed: 0.004181861877441406
ell 51, elapsed: 0.0022139549255371094
ell 50, elapsed: 0.0021979808807373047
ell 49, elapsed: 0.0022161006927490234
ell 48, elapsed: 0.0022161006927490234
ell 42, elapsed: 0.004311084747314453
ell 41, elapsed: 0.0022249221801757812
ell 40, elapsed: 0.002193927764892578
ell 39, elapsed: 0.002132892608642578
ell 38, elapsed: 0.006197929382324219
ell 32, elapsed: 0.00414586067199707
ell 31, elapsed: 0.0021479129791259766
ell 30, elapsed: 0.0022029876708984375
ell 29, elapsed: 0.002177000045776367
ell 28, elapsed: 0.0022001266479492188
ell 22, elapsed: 0.004235982894897461
ell 21, elapsed: 0.0022270679473876953
ell 20, elapsed: 0.0022170543670654297
ell 19, elapsed: 0.0022199153900146484
ell 18, elapsed: 0.002198934555053711
ell 12, elapsed: 0.004230976104736328
ell 11, elapsed: 0.0021948814392089844
ell 10, elapsed: 0.0021920204162597656
ell 9, elapsed: 0.0022110939025878906
ell 8, elapsed: 0.002190113067626953
  0.525057 seconds (68.91 k allocations: 12.181 MiB, 2.34% gc time)
elapsed: 0.0026369094848632812
step:          0.044947 sec (0 allocations: 0 byte, 0.0% gc time)
swapping:      0.00047 sec (0 allocations: 0 byte, 0.0% gc time)
calc_Mellell!: 0.018904 sec (0 allocations: 0 byte, 0.0% gc time)
  t0 :  0.006554 sec (0 allocations: 0 byte, 0.0% gc time)
  tm2 : 0.045493 sec (0 allocations: 0 byte, 0.0% gc time)
  tm2s: 0.007927 sec (0 allocations: 0 byte, 0.0% gc time)
  tm4 : 0.114966 sec (0 allocations: 0 byte, 0.0% gc time)
  tp2 : 0.0 sec (0 allocations: 0 byte, 0.0% gc time)
  tp2s: 0.0 sec (0 allocations: 0 byte, 0.0% gc time)
  tp4 : 0.0 sec (0 allocations: 0 byte, 0.0% gc time)
calc_wtdll!:   0.39661 sec (48.6 k allocations: 11.096 MB, 3.1% gc time)
calc_wljj!:    0.018391 sec (69 allocations: 1.078 KB, 0.0% gc time)
mult_prefac!:  0.0 sec (0 allocations: 0 byte, 0.0% gc time)
convert:       0.0 sec (0 allocations: 0 byte, 0.0% gc time)
write:         0.023026 sec (0 allocations: 0 byte, 0.0% gc time)
test_rand_2f1: 0.0 sec (0 allocations: 0 byte, 0.0% gc time)
Closing outfile out/MlCache/MlCache.bin...   0.000005 seconds
xi, l=0, nu=0:   0.415623 seconds (543.88 k allocations: 27.030 MiB)
xi, l=0, nu=-2:  0.001478 seconds (108 allocations: 148.812 KiB)
Created 'out/xi.tsv'.
  q=1.1, R=0.6:	  0.430877 seconds (264.62 k allocations: 38.115 MiB, 5.37% gc time)
  q=1.1, R=0.7:	  0.448830 seconds (276.38 k allocations: 40.105 MiB, 2.95% gc time)
  q=1.1, R=0.8:	  0.425488 seconds (271.87 k allocations: 39.334 MiB, 1.57% gc time)
  q=1.1, R=0.9:	  0.477791 seconds (266.68 k allocations: 38.464 MiB, 1.46% gc time)
  q=1.1, R=0.998:	 14.744408 seconds (114.96 k allocations: 7.588 MiB)
  q=1.1, R=1.0:	  0.002536 seconds (8.20 k allocations: 704.344 KiB)

ℓ = 1000
Δℓ = 4
ΔℓRg1 = -4
N = 4096
q = 1.1
kmin = 1.0e-5
kmax = 1000.0
χ0 = 0.001
RR = RR.tsv
ℓmax = ℓmax.bin
f21 = f21.bin
kmin = 1.0e-5
kmax = 1000.0
dlrec    = 4
dlrecRg1 = -4
Output size: 1573632 bytes = 0.0014655590057373047 GiB
Output size: 786816 bytes = 0.0007327795028686523 GiB
Reading 'out/F21EllCache'...   0.001062 seconds (238 allocations: 534.328 KiB)
ellmax: 1002
lmaxcache: 1000
fell[:,1,1] = Complex{Float64}[1.7262928128202118e-224 - 4.2281979352226944e-240im, 1.7282693092099662e-224 - 4.233038955177176e-240im]
ell 1002, elapsed: 5.698204040527344e-5
ell 1001, elapsed: 0.0005040168762207031
ell 1000, elapsed: 0.0004940032958984375
ell 999, elapsed: 0.0037679672241210938
ell 998, elapsed: 0.003729104995727539
ell 44, elapsed: 0.5649080276489258
ell 43, elapsed: 0.0037980079650878906
ell 42, elapsed: 0.0038139820098876953
ell 41, elapsed: 0.0038881301879882812
ell 40, elapsed: 0.003857851028442383
  0.594523 seconds (4.60 k allocations: 322.344 KiB)
elapsed: 0.00495600700378418
step:          0.561962 sec (0 allocations: 0 byte, 0.0% gc time)
swapping:      0.000422 sec (0 allocations: 0 byte, 0.0% gc time)
calc_Mellell!: 0.000691 sec (0 allocations: 0 byte, 0.0% gc time)
  t0 :  0.000236 sec (0 allocations: 0 byte, 0.0% gc time)
  tm2 : 0.007111 sec (0 allocations: 0 byte, 0.0% gc time)
  tm2s: 0.000207 sec (0 allocations: 0 byte, 0.0% gc time)
  tm4 : 0.017144 sec (0 allocations: 0 byte, 0.0% gc time)
  tp2 : 0.0 sec (0 allocations: 0 byte, 0.0% gc time)
  tp2s: 0.0 sec (0 allocations: 0 byte, 0.0% gc time)
  tp4 : 0.0 sec (0 allocations: 0 byte, 0.0% gc time)
calc_wtdll!:   0.024812 sec (480 allocations: 52.5 KB, 0.0% gc time)
calc_wljj!:    0.000652 sec (1 allocations: 16 byte, 0.0% gc time)
mult_prefac!:  0.0 sec (0 allocations: 0 byte, 0.0% gc time)
convert:       0.0 sec (0 allocations: 0 byte, 0.0% gc time)
write:         0.000706 sec (0 allocations: 0 byte, 0.0% gc time)
test_rand_2f1: 0.0 sec (0 allocations: 0 byte, 0.0% gc time)
Closing outfile out/MlCache/MlCache.bin...   0.000009 seconds
  0.372522 seconds (36 allocations: 66.812 KiB)
make_phi():   0.006401 seconds (62 allocations: 275.906 KiB)
  0.035453 seconds (11.55 k allocations: 634.389 KiB)
tskip:       0.0 sec (0 allocations: 0 byte, 0.0% gc time)
tread:       0.000507 sec (17 allocations: 1.266 KB, 0.0% gc time)
tmultphi:    0.000219 sec (0 allocations: 0 byte, 0.0% gc time)
tbrfft:      0.000913 sec (0 allocations: 0 byte, 0.0% gc time)
tmultprefac: 0.000455 sec (0 allocations: 0 byte, 0.0% gc time)
toutfunc:    9.6e-5 sec (0 allocations: 0 byte, 0.0% gc time)
Created 'out/wl42_jj00.tsv'.
Created 'out/wl42_jj02.tsv'.
    Testing TwoFAST tests passed 
Finished at 2020-10-25T23:20:16.59
