Current time is 2020-10-25T23:03:17.992
Julia Version 1.5.3-pre.0
Commit 5905edebb1 (2020-09-24 05:09 UTC)
Platform Info:
  OS: Linux (x86_64-pc-linux-gnu)
  CPU: AMD EPYC 7502 32-Core Processor
  WORD_SIZE: 64
  LIBM: libopenlibm
  LLVM: libLLVM-9.0.1 (ORCJIT, znver2)
Environment:
  JULIA_DEPOT_PATH = ::/usr/local/share/julia
  JULIA_NUM_THREADS = 2
  JULIA_MAX_NUM_PRECOMPILE_FILES = 9223372036854775807
  JULIA_PKG_SERVER = 

Starting installation at 2020-10-25T23:03:20.981
  Resolving package versions...
  Installed Reexport ───────────────────── v0.2.0
  Installed FFTW_jll ───────────────────── v3.3.9+6
  Installed OpenSpecFun_jll ────────────── v0.5.3+4
  Installed GenericSVD ─────────────────── v0.3.0
  Installed AbstractFFTs ───────────────── v0.5.0
  Installed BinaryProvider ─────────────── v0.5.10
  Installed FFTW ───────────────────────── v1.2.4
  Installed MKL_jll ────────────────────── v2020.2.254+0
  Installed Artifacts ──────────────────── v1.3.0
  Installed JLLWrappers ────────────────── v1.1.3
  Installed IntelOpenMP_jll ────────────── v2018.0.3+0
  Installed SpecialFunctions ───────────── v0.10.3
  Installed CompilerSupportLibraries_jll ─ v0.3.4+0
  Installed GenericSchur ───────────────── v0.4.0
  Installed ArbNumerics ────────────────── v1.2.1
  Installed Readables ──────────────────── v0.3.3
  Installed TwoFAST ────────────────────── v0.1.3
Updating `~/.julia/environments/v1.5/Project.toml`
  [0dd23c3e] + TwoFAST v0.1.3
Updating `~/.julia/environments/v1.5/Manifest.toml`
  [621f4979] + AbstractFFTs v0.5.0
  [7e558dbc] + ArbNumerics v1.2.1
  [56f22d72] + Artifacts v1.3.0
  [b99e7846] + BinaryProvider v0.5.10
  [e66e0078] + CompilerSupportLibraries_jll v0.3.4+0
  [7a1cc6ca] + FFTW v1.2.4
  [f5851436] + FFTW_jll v3.3.9+6
  [01680d73] + GenericSVD v0.3.0
  [c145ed77] + GenericSchur v0.4.0
  [1d5cc7b8] + IntelOpenMP_jll v2018.0.3+0
  [692b3bcd] + JLLWrappers v1.1.3
  [856f044c] + MKL_jll v2020.2.254+0
  [efe28fd5] + OpenSpecFun_jll v0.5.3+4
  [0d4725de] + Readables v0.3.3
  [189a3867] + Reexport v0.2.0
  [276daf66] + SpecialFunctions v0.10.3
  [0dd23c3e] + TwoFAST v0.1.3
  [2a0f44e3] + Base64
  [ade2ca70] + Dates
  [8bb1440f] + DelimitedFiles
  [8ba89e20] + Distributed
  [b77e0a4c] + InteractiveUtils
  [76f85450] + LibGit2
  [8f399da3] + Libdl
  [37e2e46d] + LinearAlgebra
  [56ddb016] + Logging
  [d6f4376e] + Markdown
  [a63ad114] + Mmap
  [44cfe95a] + Pkg
  [de0858da] + Printf
  [3fa0cd96] + REPL
  [9a3f8284] + Random
  [ea8e919c] + SHA
  [9e88b42a] + Serialization
  [6462fe0b] + Sockets
  [8dfed614] + Test
  [cf7118a7] + UUIDs
  [4ec0a83e] + Unicode
   Building FFTW ───────→ `~/.julia/packages/FFTW/DMUbN/deps/build.log`
   Building ArbNumerics → `~/.julia/packages/ArbNumerics/joGFm/deps/build.log`
Starting tests at 2020-10-25T23:03:53.079
    Testing TwoFAST
Status `/tmp/jl_XeuwT4/Project.toml`
  [7e558dbc] ArbNumerics v1.2.1
  [39dd38d3] Dierckx v0.5.0
  [7a1cc6ca] FFTW v1.2.4
  [276daf66] SpecialFunctions v0.10.3
  [0dd23c3e] TwoFAST v0.1.3
  [8bb1440f] DelimitedFiles
  [37e2e46d] LinearAlgebra
  [56ddb016] Logging
  [8dfed614] Test
Status `/tmp/jl_XeuwT4/Manifest.toml`
  [621f4979] AbstractFFTs v0.5.0
  [7e558dbc] ArbNumerics v1.2.1
  [56f22d72] Artifacts v1.3.0
  [b99e7846] BinaryProvider v0.5.10
  [e66e0078] CompilerSupportLibraries_jll v0.3.4+0
  [39dd38d3] Dierckx v0.5.0
  [cd4c43a9] Dierckx_jll v0.0.1+0
  [7a1cc6ca] FFTW v1.2.4
  [f5851436] FFTW_jll v3.3.9+6
  [01680d73] GenericSVD v0.3.0
  [c145ed77] GenericSchur v0.4.0
  [1d5cc7b8] IntelOpenMP_jll v2018.0.3+0
  [692b3bcd] JLLWrappers v1.1.3
  [856f044c] MKL_jll v2020.2.254+0
  [efe28fd5] OpenSpecFun_jll v0.5.3+4
  [0d4725de] Readables v0.3.3
  [189a3867] Reexport v0.2.0
  [276daf66] SpecialFunctions v0.10.3
  [0dd23c3e] TwoFAST v0.1.3
  [2a0f44e3] Base64
  [ade2ca70] Dates
  [8bb1440f] DelimitedFiles
  [8ba89e20] Distributed
  [b77e0a4c] InteractiveUtils
  [76f85450] LibGit2
  [8f399da3] Libdl
  [37e2e46d] LinearAlgebra
  [56ddb016] Logging
  [d6f4376e] Markdown
  [a63ad114] Mmap
  [44cfe95a] Pkg
  [de0858da] Printf
  [3fa0cd96] REPL
  [9a3f8284] Random
  [ea8e919c] SHA
  [9e88b42a] Serialization
  [6462fe0b] Sockets
  [8dfed614] Test
  [cf7118a7] UUIDs
  [4ec0a83e] Unicode
t = 0.0 sec (0 allocations: 0 byte, 0.0% gc time)
typeof(t) = NamedTuple{(:value, :time, :bytes, :gctime, :gcstats),Tuple{DataType,Float64,Int64,Float64,Base.GC_Diff}}
TwoFAST.PerformanceStats.TimedType = Union{NamedTuple{(:value, :time, :bytes, :gctime, :gcstats),Tuple{T,Float64,Int64,Float64,Base.GC_Diff}}, Tuple{Any,Float64,Int64,Float64,Base.GC_Diff}} where T
t = 0.0 sec (0 allocations: 0 byte, 0.0% gc time)
t: 0.0 sec (0 allocations: 0 byte, 0.0% gc time)
Testing ξ(r), ℓ=0, ν=-1 ... passed
Testing ξ(r), ℓ=0, ν=0 ... passed
Testing ξ(r), ℓ=0, ν=1 ... passed
Testing ξ(r), ℓ=0, ν=2 ... passed
Testing ξ(r), ℓ=0, ν=3 ... passed
Testing ξ(r), ℓ=1, ν=0 ... passed
Testing ξ(r), ℓ=1, ν=1 ... passed
Testing ξ(r), ℓ=1, ν=2 ... passed
Testing ξ(r), ℓ=1, ν=3 ... passed
Testing ξ(r), ℓ=2, ν=-1 ... passed
Testing ξ(r), ℓ=2, ν=0 ... passed
Testing ξ(r), ℓ=2, ν=1 ... passed
Testing ξ(r), ℓ=2, ν=2 ... passed
Testing ξ(r), ℓ=2, ν=3 ... passed
Testing ξ(r), ℓ=3, ν=-1 ... passed
Testing ξ(r), ℓ=3, ν=0 ... passed
Testing ξ(r), ℓ=3, ν=1 ... passed
Testing ξ(r), ℓ=3, ν=2 ... passed
Testing ξ(r), ℓ=3, ν=3 ... passed
Testing ξ(r), ℓ=4, ν=-1 ... passed
Testing ξ(r), ℓ=4, ν=0 ... passed
Testing ξ(r), ℓ=4, ν=1 ... passed
Testing ξ(r), ℓ=4, ν=2 ... passed
Testing ξ(r), ℓ=4, ν=3 ... passed
Testing ξ(r) ... passed
Testing ξ′(r) ... passed
Testing ξ″(r) ... passed
Calculating fmax: 
  dlrec    = 4
  dlrecRg1 = -4
  q=1.1, R=1.1:	  3.799614 seconds (1.19 M allocations: 67.982 MiB, 2.48% gc time)

  3.990735 seconds (1.20 M allocations: 68.667 MiB, 6.46% gc time)
ℓ = 1202
Δℓ = 4
ΔℓRg1 = -4
N = 1600
q = 1.1
kmin = 1.0e-5
kmax = 100000.00000000004
χ0 = 0.023029999999999995
RR = RR.tsv
ℓmax = ℓmax.bin
f21 = f21.bin
kmin = 1.0e-5
kmax = 100000.0
dlrec    = 4
dlrecRg1 = -4
Output size: 5741568 bytes = 0.005347251892089844 GiB
Output size: 51264 bytes = 4.774332046508789e-5 GiB
Reading 'out/F21EllCache'...   0.670537 seconds (406.85 k allocations: 21.350 MiB)
ellmax: 1202
lmaxcache: 1202
fell[:,1,1] = Complex{Float64}[3.9583795592771634e-52 - 9.695233714158177e-68im, 3.990121772925759e-52 - 9.772979714843386e-68im]
ell 1202, elapsed: 0.007084846496582031
ell 1201, elapsed: 1.958017110824585
ell 1200, elapsed: 0.0003979206085205078
ell 1199, elapsed: 0.012498855590820312
ell 1198, elapsed: 0.0004000663757324219
ell 1002, elapsed: 0.008225202560424805
ell 1001, elapsed: 0.0003960132598876953
ell 1000, elapsed: 0.0003859996795654297
ell 999, elapsed: 0.0003838539123535156
ell 998, elapsed: 0.0003859996795654297
ell 902, elapsed: 0.004223823547363281
ell 901, elapsed: 0.0003840923309326172
ell 900, elapsed: 0.00037598609924316406
ell 899, elapsed: 0.00037789344787597656
ell 898, elapsed: 0.0004050731658935547
ell 802, elapsed: 0.02437591552734375
ell 801, elapsed: 0.00039005279541015625
ell 800, elapsed: 0.00037479400634765625
ell 799, elapsed: 0.0003800392150878906
ell 798, elapsed: 0.0003829002380371094
ell 702, elapsed: 0.0042591094970703125
ell 701, elapsed: 0.00039196014404296875
ell 700, elapsed: 0.00038886070251464844
ell 699, elapsed: 0.00038695335388183594
ell 698, elapsed: 0.004530906677246094
ell 602, elapsed: 0.00430607795715332
ell 601, elapsed: 0.0003879070281982422
ell 600, elapsed: 0.0003821849822998047
ell 599, elapsed: 0.00039696693420410156
ell 598, elapsed: 0.00038886070251464844
ell 502, elapsed: 0.0043621063232421875
ell 501, elapsed: 0.00039005279541015625
ell 500, elapsed: 0.0003921985626220703
ell 499, elapsed: 0.00040912628173828125
ell 498, elapsed: 0.00038695335388183594
ell 402, elapsed: 0.0042688846588134766
ell 401, elapsed: 0.000392913818359375
ell 400, elapsed: 0.0003848075866699219
ell 399, elapsed: 0.0003840923309326172
ell 398, elapsed: 0.00038313865661621094
ell 302, elapsed: 0.004350900650024414
ell 301, elapsed: 0.00039887428283691406
ell 300, elapsed: 0.00039315223693847656
ell 299, elapsed: 0.0004100799560546875
ell 298, elapsed: 0.0003960132598876953
ell 202, elapsed: 0.004287004470825195
ell 201, elapsed: 0.00038909912109375
ell 200, elapsed: 0.0003800392150878906
ell 199, elapsed: 0.0003788471221923828
ell 198, elapsed: 0.0003800392150878906
ell 152, elapsed: 0.005749940872192383
ell 151, elapsed: 0.0003991127014160156
ell 150, elapsed: 0.0003790855407714844
ell 149, elapsed: 0.0003809928894042969
ell 148, elapsed: 0.00038504600524902344
ell 127, elapsed: 0.0012578964233398438
ell 126, elapsed: 0.0003840923309326172
ell 125, elapsed: 0.0003781318664550781
ell 124, elapsed: 0.0004260540008544922
ell 123, elapsed: 0.0003790855407714844
ell 114, elapsed: 0.0007560253143310547
ell 113, elapsed: 0.00039386749267578125
ell 112, elapsed: 0.0003848075866699219
ell 111, elapsed: 0.0003840923309326172
ell 110, elapsed: 0.00038504600524902344
ell 102, elapsed: 0.0007269382476806641
ell 101, elapsed: 0.0004220008850097656
ell 100, elapsed: 0.0003819465637207031
ell 99, elapsed: 0.0003819465637207031
ell 98, elapsed: 0.0003859996795654297
ell 97, elapsed: 0.0004520416259765625
ell 96, elapsed: 0.00043702125549316406
ell 95, elapsed: 0.00045108795166015625
ell 94, elapsed: 0.00042700767517089844
ell 93, elapsed: 0.00043320655822753906
ell 92, elapsed: 0.0004780292510986328
ell 91, elapsed: 0.0004329681396484375
ell 90, elapsed: 0.00043487548828125
ell 89, elapsed: 0.00043201446533203125
ell 88, elapsed: 0.00043582916259765625
ell 87, elapsed: 0.00043511390686035156
ell 86, elapsed: 0.00043392181396484375
ell 85, elapsed: 0.0004391670227050781
ell 84, elapsed: 0.00045299530029296875
ell 83, elapsed: 0.0004429817199707031
ell 82, elapsed: 0.0004341602325439453
ell 81, elapsed: 0.0004329681396484375
ell 80, elapsed: 0.0004551410675048828
ell 79, elapsed: 0.00043487548828125
ell 78, elapsed: 0.0004520416259765625
ell 77, elapsed: 0.00043702125549316406
ell 76, elapsed: 0.00043582916259765625
ell 75, elapsed: 0.0004999637603759766
ell 74, elapsed: 0.0004391670227050781
ell 73, elapsed: 0.0004439353942871094
ell 72, elapsed: 0.00043702125549316406
ell 71, elapsed: 0.0004379749298095703
ell 70, elapsed: 0.0004489421844482422
ell 69, elapsed: 0.00043511390686035156
ell 68, elapsed: 0.0004398822784423828
ell 67, elapsed: 0.0004291534423828125
ell 66, elapsed: 0.00046181678771972656
ell 65, elapsed: 0.0004420280456542969
ell 64, elapsed: 0.00043201446533203125
ell 63, elapsed: 0.00043892860412597656
ell 62, elapsed: 0.00043511390686035156
ell 61, elapsed: 0.00043201446533203125
ell 60, elapsed: 0.0004398822784423828
ell 59, elapsed: 0.0004341602325439453
ell 58, elapsed: 0.0005340576171875
ell 57, elapsed: 0.0004401206970214844
ell 56, elapsed: 0.00043201446533203125
ell 55, elapsed: 0.0004420280456542969
ell 54, elapsed: 0.00042891502380371094
ell 53, elapsed: 0.0004429817199707031
ell 52, elapsed: 0.00043201446533203125
ell 51, elapsed: 0.0004279613494873047
ell 50, elapsed: 0.00043892860412597656
ell 49, elapsed: 0.0004830360412597656
ell 48, elapsed: 0.0004398822784423828
ell 47, elapsed: 0.000431060791015625
ell 46, elapsed: 0.0004410743713378906
ell 45, elapsed: 0.0004470348358154297
ell 44, elapsed: 0.00043582916259765625
ell 43, elapsed: 0.0004420280456542969
ell 42, elapsed: 0.00042700767517089844
ell 41, elapsed: 0.0004780292510986328
ell 40, elapsed: 0.0004279613494873047
ell 39, elapsed: 0.00043392181396484375
ell 38, elapsed: 0.00042891502380371094
ell 37, elapsed: 0.00043702125549316406
ell 36, elapsed: 0.0004341602325439453
ell 35, elapsed: 0.00043010711669921875
ell 34, elapsed: 0.00042891502380371094
ell 33, elapsed: 0.0004429817199707031
ell 32, elapsed: 0.0005009174346923828
ell 31, elapsed: 0.0004420280456542969
ell 30, elapsed: 0.0004329681396484375
ell 29, elapsed: 0.00043582916259765625
ell 28, elapsed: 0.0004410743713378906
ell 27, elapsed: 0.0004360675811767578
ell 26, elapsed: 0.0004410743713378906
ell 25, elapsed: 0.0004329681396484375
ell 24, elapsed: 0.00043201446533203125
ell 23, elapsed: 0.0004630088806152344
ell 22, elapsed: 0.0004360675811767578
ell 21, elapsed: 0.0004429817199707031
ell 20, elapsed: 0.00043702125549316406
ell 19, elapsed: 0.0004429817199707031
ell 18, elapsed: 0.0004470348358154297
ell 17, elapsed: 0.00043582916259765625
ell 16, elapsed: 0.0004520416259765625
ell 15, elapsed: 0.0004639625549316406
ell 14, elapsed: 0.00043892860412597656
ell 13, elapsed: 0.0004489421844482422
ell 12, elapsed: 0.00043201446533203125
ell 11, elapsed: 0.00045299530029296875
ell 10, elapsed: 0.0004379749298095703
ell 9, elapsed: 0.000431060791015625
ell 8, elapsed: 0.0004470348358154297
ell 7, elapsed: 0.0004360675811767578
ell 6, elapsed: 0.00048613548278808594
ell 5, elapsed: 0.00043582916259765625
ell 4, elapsed: 0.0004401206970214844
ell 3, elapsed: 0.00045108795166015625
ell 2, elapsed: 0.00045800209045410156
ell 1, elapsed: 0.0004439353942871094
ell 0, elapsed: 0.0004410743713378906
  2.512515 seconds (1.83 M allocations: 90.090 MiB, 1.89% gc time)
elapsed: 0.0005469322204589844
step:          0.863315 sec (519.446 k allocations: 25.955 MB, 0.0% gc time)
swapping:      0.000428 sec (0 allocations: 0 byte, 0.0% gc time)
calc_Mellell!: 0.442088 sec (342.644 k allocations: 17.381 MB, 0.0% gc time)
  t0 :  0.0 sec (0 allocations: 0 byte, 0.0% gc time)
  tm2 : 0.0 sec (0 allocations: 0 byte, 0.0% gc time)
  tm2s: 0.0 sec (0 allocations: 0 byte, 0.0% gc time)
  tm4 : 0.0 sec (0 allocations: 0 byte, 0.0% gc time)
  tp2 : 0.0 sec (0 allocations: 0 byte, 0.0% gc time)
  tp2s: 0.0 sec (0 allocations: 0 byte, 0.0% gc time)
  tp4 : 0.0 sec (0 allocations: 0 byte, 0.0% gc time)
calc_wtdll!:   0.781468 sec (487.994 k allocations: 24.552 MB, 3.61% gc time)
calc_wljj!:    0.002472 sec (6 allocations: 96 byte, 0.0% gc time)
mult_prefac!:  0.0 sec (0 allocations: 0 byte, 0.0% gc time)
convert:       0.0 sec (0 allocations: 0 byte, 0.0% gc time)
write:         0.003354 sec (0 allocations: 0 byte, 0.0% gc time)
test_rand_2f1: 0.0 sec (0 allocations: 0 byte, 0.0% gc time)
Closing outfile out/Ml21-cache.bin...   0.000013 seconds
  0.864359 seconds (8.33 k allocations: 412.422 KiB, 1.50% gc time)
make_phi():   0.008996 seconds (8.18 k allocations: 237.766 KiB)
  0.285535 seconds (111.47 k allocations: 5.553 MiB)
tskip:       1.5e-5 sec (0 allocations: 0 byte, 0.0% gc time)
tread:       0.002071 sec (17 allocations: 2.125 KB, 0.0% gc time)
tmultphi:    0.035075 sec (23.398 k allocations: 1.246 MB, 0.0% gc time)
tbrfft:      0.003064 sec (0 allocations: 0 byte, 0.0% gc time)
tmultprefac: 0.001613 sec (0 allocations: 0 byte, 0.0% gc time)
toutfunc:    0.191877 sec (86.333 k allocations: 4.171 MB, 0.0% gc time)
Testing R=1.1 ... passed
Calculating fmax: 
  dlrec    = 4
  dlrecRg1 = -4
  q=1.1, R=1.0:	  0.001054 seconds (3.20 k allocations: 275.344 KiB)

  0.002387 seconds (3.25 k allocations: 310.312 KiB)
ℓ = 1202
Δℓ = 4
ΔℓRg1 = -4
N = 1600
q = 1.1
kmin = 1.0e-5
kmax = 100000.00000000004
χ0 = 0.023029999999999995
RR = RR.tsv
ℓmax = ℓmax.bin
f21 = f21.bin
kmin = 1.0e-5
kmax = 100000.0
dlrec    = 4
dlrecRg1 = -4
Output size: 61465536 bytes = 0.05724424123764038 GiB
Output size: 51264 bytes = 4.774332046508789e-5 GiB
Reading 'out/F21EllCache'...   0.000872 seconds (237 allocations: 85.453 KiB)
ellmax: 1202
lmaxcache: 1202
fell[:,1,1] = Complex{Float64}[809.6031528389767 - 1.9829558194077161e-13im, 0.0 + 0.0im]
ell 1202, elapsed: 1.2874603271484375e-5
ell 1201, elapsed: 0.012237071990966797
ell 1200, elapsed: 0.011772871017456055
ell 1199, elapsed: 0.0002582073211669922
ell 1198, elapsed: 0.00025200843811035156
ell 1197, elapsed: 0.00032401084899902344
ell 1196, elapsed: 0.0002892017364501953
ell 1195, elapsed: 0.0002830028533935547
ell 1194, elapsed: 0.0002949237823486328
ell 1193, elapsed: 0.0002899169921875
ell 1192, elapsed: 0.00028896331787109375
ell 1191, elapsed: 0.00028705596923828125
ell 1190, elapsed: 0.0002899169921875
ell 1189, elapsed: 0.000286102294921875
ell 1188, elapsed: 0.00029397010803222656
ell 1187, elapsed: 0.0002899169921875
ell 1186, elapsed: 0.0002930164337158203
ell 1185, elapsed: 0.0002949237823486328
ell 1184, elapsed: 0.00028395652770996094
ell 1183, elapsed: 0.0002899169921875
ell 1182, elapsed: 0.0002849102020263672
ell 1181, elapsed: 0.0002849102020263672
ell 1180, elapsed: 0.0002930164337158203
ell 1179, elapsed: 0.00028395652770996094
ell 1178, elapsed: 0.00030112266540527344
ell 1177, elapsed: 0.00029206275939941406
ell 1176, elapsed: 0.0002880096435546875
ell 1175, elapsed: 0.0002949237823486328
ell 1174, elapsed: 0.00031685829162597656
ell 1173, elapsed: 0.0002949237823486328
ell 1172, elapsed: 0.0002899169921875
ell 1171, elapsed: 0.0002911090850830078
ell 1170, elapsed: 0.0002968311309814453
ell 1169, elapsed: 0.00028586387634277344
ell 1168, elapsed: 0.0003211498260498047
ell 1167, elapsed: 0.00029397010803222656
ell 1166, elapsed: 0.0002880096435546875
ell 1165, elapsed: 0.0002980232238769531
ell 1164, elapsed: 0.0002930164337158203
ell 1163, elapsed: 0.0002999305725097656
ell 1162, elapsed: 0.00029397010803222656
ell 1161, elapsed: 0.0003139972686767578
ell 1160, elapsed: 0.0002849102020263672
ell 1159, elapsed: 0.0002849102020263672
ell 1158, elapsed: 0.0002911090850830078
ell 1157, elapsed: 0.00028395652770996094
ell 1156, elapsed: 0.0002880096435546875
ell 1155, elapsed: 0.0003077983856201172
ell 1154, elapsed: 0.00028896331787109375
ell 1153, elapsed: 0.00029015541076660156
ell 1152, elapsed: 0.0002899169921875
ell 1151, elapsed: 0.0002930164337158203
ell 1150, elapsed: 0.00029206275939941406
ell 1149, elapsed: 0.00028705596923828125
ell 1148, elapsed: 0.0003731250762939453
ell 1147, elapsed: 0.0002899169921875
ell 1146, elapsed: 0.00030994415283203125
ell 1145, elapsed: 0.0002951622009277344
ell 1144, elapsed: 0.0002849102020263672
ell 1143, elapsed: 0.0003039836883544922
ell 1142, elapsed: 0.00028705596923828125
ell 1141, elapsed: 0.0002961158752441406
ell 1140, elapsed: 0.0002689361572265625
ell 1139, elapsed: 0.0002639293670654297
ell 1138, elapsed: 0.00027108192443847656
ell 1137, elapsed: 0.0002620220184326172
ell 1136, elapsed: 0.0002739429473876953
ell 1135, elapsed: 0.00031280517578125
ell 1134, elapsed: 0.00030303001403808594
ell 1133, elapsed: 0.00030803680419921875
ell 1132, elapsed: 0.00029087066650390625
ell 1131, elapsed: 0.0003001689910888672
ell 1130, elapsed: 0.00029087066650390625
ell 1129, elapsed: 0.0002830028533935547
ell 1128, elapsed: 0.00030493736267089844
ell 1127, elapsed: 0.00029587745666503906
ell 1126, elapsed: 0.0003008842468261719
ell 1125, elapsed: 0.00028514862060546875
ell 1124, elapsed: 0.0003039836883544922
ell 1123, elapsed: 0.00028896331787109375
ell 1122, elapsed: 0.00034880638122558594
ell 1121, elapsed: 0.00032520294189453125
ell 1120, elapsed: 0.00031304359436035156
ell 1119, elapsed: 0.00031113624572753906
ell 1118, elapsed: 0.0003170967102050781
ell 1117, elapsed: 0.00031495094299316406
ell 1116, elapsed: 0.0003190040588378906
ell 1115, elapsed: 0.00031495094299316406
ell 1114, elapsed: 0.00031304359436035156
ell 1113, elapsed: 0.0003211498260498047
ell 1112, elapsed: 0.00032401084899902344
ell 1111, elapsed: 0.0003769397735595703
ell 1110, elapsed: 0.00029206275939941406
ell 1109, elapsed: 0.00035190582275390625
ell 1108, elapsed: 0.0002961158752441406
ell 1107, elapsed: 0.0002961158752441406
ell 1106, elapsed: 0.0003108978271484375
ell 1105, elapsed: 0.0002949237823486328
ell 1104, elapsed: 0.0002999305725097656
ell 1103, elapsed: 0.0002930164337158203
ell 1102, elapsed: 0.00029206275939941406
ell 1101, elapsed: 0.0003039836883544922
ell 1100, elapsed: 0.00029206275939941406
ell 1099, elapsed: 0.0003619194030761719
ell 1098, elapsed: 0.0002951622009277344
ell 1097, elapsed: 0.00029587745666503906
ell 1096, elapsed: 0.00030303001403808594
ell 1095, elapsed: 0.0002949237823486328
ell 1094, elapsed: 0.00031304359436035156
ell 1093, elapsed: 0.0002980232238769531
ell 1092, elapsed: 0.0003039836883544922
ell 1091, elapsed: 0.00030112266540527344
ell 1090, elapsed: 0.0002970695495605469
ell 1089, elapsed: 0.0003020763397216797
ell 1088, elapsed: 0.0002980232238769531
ell 1087, elapsed: 0.00034499168395996094
ell 1086, elapsed: 0.0002770423889160156
ell 1085, elapsed: 0.00027108192443847656
ell 1084, elapsed: 0.00027298927307128906
ell 1083, elapsed: 0.00026702880859375
ell 1082, elapsed: 0.0002689361572265625
ell 1081, elapsed: 0.0002739429473876953
ell 1080, elapsed: 0.00026702880859375
ell 1079, elapsed: 0.0002739429473876953
ell 1078, elapsed: 0.00026988983154296875
ell 1077, elapsed: 0.0002651214599609375
ell 1076, elapsed: 0.0002720355987548828
ell 1075, elapsed: 0.0002880096435546875
ell 1074, elapsed: 0.00030112266540527344
ell 1073, elapsed: 0.00036597251892089844
ell 1072, elapsed: 0.0002911090850830078
ell 1071, elapsed: 0.0002970695495605469
ell 1070, elapsed: 0.00029087066650390625
ell 1069, elapsed: 0.0003020763397216797
ell 1068, elapsed: 0.00029587745666503906
ell 1067, elapsed: 0.00028705596923828125
ell 1066, elapsed: 0.0003039836883544922
ell 1065, elapsed: 0.00029587745666503906
ell 1064, elapsed: 0.00029587745666503906
ell 1063, elapsed: 0.0002892017364501953
ell 1062, elapsed: 0.00029397010803222656
ell 1061, elapsed: 0.0003490447998046875
ell 1060, elapsed: 0.00029397010803222656
ell 1059, elapsed: 0.0002999305725097656
ell 1058, elapsed: 0.0002930164337158203
ell 1057, elapsed: 0.00030303001403808594
ell 1056, elapsed: 0.00029397010803222656
ell 1055, elapsed: 0.0002918243408203125
ell 1054, elapsed: 0.0002968311309814453
ell 1053, elapsed: 0.00029087066650390625
ell 1052, elapsed: 0.0003039836883544922
ell 1051, elapsed: 0.00029587745666503906
ell 1050, elapsed: 0.0002918243408203125
ell 1049, elapsed: 0.0002970695495605469
ell 1048, elapsed: 0.0003230571746826172
ell 1047, elapsed: 0.0002770423889160156
ell 1046, elapsed: 0.00026798248291015625
ell 1045, elapsed: 0.00026917457580566406
ell 1044, elapsed: 0.00027108192443847656
ell 1043, elapsed: 0.00026702880859375
ell 1042, elapsed: 0.00027298927307128906
ell 1041, elapsed: 0.0002658367156982422
ell 1040, elapsed: 0.00026798248291015625
ell 1039, elapsed: 0.0002779960632324219
ell 1038, elapsed: 0.00026416778564453125
ell 1037, elapsed: 0.000270843505859375
ell 1036, elapsed: 0.00026297569274902344
ell 1035, elapsed: 0.0002651214599609375
ell 1034, elapsed: 0.00032711029052734375
ell 1033, elapsed: 0.0002980232238769531
ell 1032, elapsed: 0.0002989768981933594
ell 1031, elapsed: 0.0002930164337158203
ell 1030, elapsed: 0.00029087066650390625
ell 1029, elapsed: 0.00031113624572753906
ell 1028, elapsed: 0.0002911090850830078
ell 1027, elapsed: 0.0002980232238769531
ell 1026, elapsed: 0.0003001689910888672
ell 1025, elapsed: 0.0002899169921875
ell 1024, elapsed: 0.0002942085266113281
ell 1023, elapsed: 0.0002968311309814453
ell 1022, elapsed: 0.00035190582275390625
ell 1021, elapsed: 0.0002989768981933594
ell 1020, elapsed: 0.0002961158752441406
ell 1019, elapsed: 0.0002970695495605469
ell 1018, elapsed: 0.00029206275939941406
ell 1017, elapsed: 0.0002989768981933594
ell 1016, elapsed: 0.0003008842468261719
ell 1015, elapsed: 0.0002951622009277344
ell 1014, elapsed: 0.00030493736267089844
ell 1013, elapsed: 0.0002942085266113281
ell 1012, elapsed: 0.0003249645233154297
ell 1011, elapsed: 0.0003218650817871094
ell 1010, elapsed: 0.0003230571746826172
ell 1009, elapsed: 0.0003631114959716797
ell 1008, elapsed: 0.00033402442932128906
ell 1007, elapsed: 0.00032806396484375
ell 1006, elapsed: 0.00032591819763183594
ell 1005, elapsed: 0.0003230571746826172
ell 1004, elapsed: 0.00033402442932128906
ell 1003, elapsed: 0.00032806396484375
ell 1002, elapsed: 0.00032591819763183594
ell 1001, elapsed: 0.0003209114074707031
ell 1000, elapsed: 0.00033092498779296875
ell 999, elapsed: 0.0003268718719482422
ell 998, elapsed: 0.0004069805145263672
ell 997, elapsed: 0.0002980232238769531
ell 996, elapsed: 0.0002961158752441406
ell 995, elapsed: 0.0003020763397216797
ell 994, elapsed: 0.0002989768981933594
ell 993, elapsed: 0.0002989768981933594
ell 992, elapsed: 0.0003020763397216797
ell 991, elapsed: 0.0002980232238769531
ell 990, elapsed: 0.0003058910369873047
ell 989, elapsed: 0.0002949237823486328
ell 988, elapsed: 0.00029397010803222656
ell 987, elapsed: 0.0003039836883544922
ell 986, elapsed: 0.00029277801513671875
ell 985, elapsed: 0.00030493736267089844
ell 984, elapsed: 0.00029397010803222656
ell 983, elapsed: 0.00029397010803222656
ell 982, elapsed: 0.00029921531677246094
ell 981, elapsed: 0.00029206275939941406
ell 980, elapsed: 0.0002930164337158203
ell 979, elapsed: 0.00028896331787109375
ell 978, elapsed: 0.00028896331787109375
ell 977, elapsed: 0.00030517578125
ell 976, elapsed: 0.00029206275939941406
ell 975, elapsed: 0.0002989768981933594
ell 974, elapsed: 0.0002980232238769531
ell 973, elapsed: 0.00033402442932128906
ell 972, elapsed: 0.0003039836883544922
ell 971, elapsed: 0.00029397010803222656
ell 970, elapsed: 0.0002970695495605469
ell 969, elapsed: 0.00029397010803222656
ell 968, elapsed: 0.0002949237823486328
ell 967, elapsed: 0.0002968311309814453
ell 966, elapsed: 0.0002880096435546875
ell 965, elapsed: 0.0003008842468261719
ell 964, elapsed: 0.0003018379211425781
ell 963, elapsed: 0.0002980232238769531
ell 962, elapsed: 0.0003039836883544922
ell 961, elapsed: 0.00029397010803222656
ell 960, elapsed: 0.000370025634765625
ell 959, elapsed: 0.0002970695495605469
ell 958, elapsed: 0.0002930164337158203
ell 957, elapsed: 0.0002999305725097656
ell 956, elapsed: 0.0002899169921875
ell 955, elapsed: 0.00030303001403808594
ell 954, elapsed: 0.00029015541076660156
ell 953, elapsed: 0.0002961158752441406
ell 952, elapsed: 0.00030422210693359375
ell 951, elapsed: 0.0002970695495605469
ell 950, elapsed: 0.00030112266540527344
ell 949, elapsed: 0.00029206275939941406
ell 948, elapsed: 0.0003409385681152344
ell 947, elapsed: 0.00029015541076660156
ell 946, elapsed: 0.0003018379211425781
ell 945, elapsed: 0.0002999305725097656
ell 944, elapsed: 0.00029087066650390625
ell 943, elapsed: 0.0003001689910888672
ell 942, elapsed: 0.0002930164337158203
ell 941, elapsed: 0.000286102294921875
ell 940, elapsed: 0.00029587745666503906
ell 939, elapsed: 0.00029277801513671875
ell 938, elapsed: 0.0002989768981933594
ell 937, elapsed: 0.00029277801513671875
ell 936, elapsed: 0.0002989768981933594
ell 935, elapsed: 0.0003440380096435547
ell 934, elapsed: 0.00029397010803222656
ell 933, elapsed: 0.00029277801513671875
ell 932, elapsed: 0.0002899169921875
ell 931, elapsed: 0.00029015541076660156
ell 930, elapsed: 0.0003008842468261719
ell 929, elapsed: 0.00029397010803222656
ell 928, elapsed: 0.0002970695495605469
ell 927, elapsed: 0.0003159046173095703
ell 926, elapsed: 0.0002899169921875
ell 925, elapsed: 0.00030303001403808594
ell 924, elapsed: 0.00029206275939941406
ell 923, elapsed: 0.00030112266540527344
ell 922, elapsed: 0.00030493736267089844
ell 921, elapsed: 0.0002968311309814453
ell 920, elapsed: 0.0002980232238769531
ell 919, elapsed: 0.0002980232238769531
ell 918, elapsed: 0.0002989768981933594
ell 917, elapsed: 0.000286102294921875
ell 916, elapsed: 0.0002789497375488281
ell 915, elapsed: 0.0002999305725097656
ell 914, elapsed: 0.00028777122497558594
ell 913, elapsed: 0.0003018379211425781
ell 912, elapsed: 0.00029397010803222656
ell 911, elapsed: 0.0002949237823486328
ell 910, elapsed: 0.00039315223693847656
ell 909, elapsed: 0.00028705596923828125
ell 908, elapsed: 0.00030493736267089844
ell 907, elapsed: 0.00029397010803222656
ell 906, elapsed: 0.00029206275939941406
ell 905, elapsed: 0.00030303001403808594
ell 904, elapsed: 0.00029397010803222656
ell 903, elapsed: 0.0002989768981933594
ell 902, elapsed: 0.0003020763397216797
ell 901, elapsed: 0.0002968311309814453
ell 900, elapsed: 0.0003020763397216797
ell 899, elapsed: 0.00029778480529785156
ell 898, elapsed: 0.00030303001403808594
ell 897, elapsed: 0.00032591819763183594
ell 896, elapsed: 0.00030994415283203125
ell 895, elapsed: 0.0002911090850830078
ell 894, elapsed: 0.0002930164337158203
ell 893, elapsed: 0.00029587745666503906
ell 892, elapsed: 0.0002980232238769531
ell 891, elapsed: 0.00029778480529785156
ell 890, elapsed: 0.0002930164337158203
ell 889, elapsed: 0.0002989768981933594
ell 888, elapsed: 0.0002980232238769531
ell 887, elapsed: 0.0002930164337158203
ell 886, elapsed: 0.00030422210693359375
ell 885, elapsed: 0.0003590583801269531
ell 884, elapsed: 0.0002880096435546875
ell 883, elapsed: 0.00030303001403808594
ell 882, elapsed: 0.0002899169921875
ell 881, elapsed: 0.0002980232238769531
ell 880, elapsed: 0.0002980232238769531
ell 879, elapsed: 0.0002880096435546875
ell 878, elapsed: 0.0002942085266113281
ell 877, elapsed: 0.0002892017364501953
ell 876, elapsed: 0.0003020763397216797
ell 875, elapsed: 0.00028896331787109375
ell 874, elapsed: 0.0002951622009277344
ell 873, elapsed: 0.00030112266540527344
ell 872, elapsed: 0.0003349781036376953
ell 871, elapsed: 0.0002779960632324219
ell 870, elapsed: 0.0002751350402832031
ell 869, elapsed: 0.0002720355987548828
ell 868, elapsed: 0.000270843505859375
ell 867, elapsed: 0.0002758502960205078
ell 866, elapsed: 0.0002808570861816406
ell 865, elapsed: 0.0002720355987548828
ell 864, elapsed: 0.0002682209014892578
ell 863, elapsed: 0.0002779960632324219
ell 862, elapsed: 0.00026798248291015625
ell 861, elapsed: 0.0002739429473876953
ell 860, elapsed: 0.00026488304138183594
ell 859, elapsed: 0.00026798248291015625
ell 858, elapsed: 0.00034308433532714844
ell 857, elapsed: 0.00030517578125
ell 856, elapsed: 0.0002989768981933594
ell 855, elapsed: 0.00029206275939941406
ell 854, elapsed: 0.0002899169921875
ell 853, elapsed: 0.00030303001403808594
ell 852, elapsed: 0.00029015541076660156
ell 851, elapsed: 0.0002989768981933594
ell 850, elapsed: 0.00029587745666503906
ell 849, elapsed: 0.00029206275939941406
ell 848, elapsed: 0.0002961158752441406
ell 847, elapsed: 0.00029087066650390625
ell 846, elapsed: 0.0003581047058105469
ell 845, elapsed: 0.0003039836883544922
ell 844, elapsed: 0.0003268718719482422
ell 843, elapsed: 0.00033092498779296875
ell 842, elapsed: 0.00031685829162597656
ell 841, elapsed: 0.00032591819763183594
ell 840, elapsed: 0.0003180503845214844
ell 839, elapsed: 0.0003249645233154297
ell 838, elapsed: 0.0003199577331542969
ell 837, elapsed: 0.0003190040588378906
ell 836, elapsed: 0.00032401084899902344
ell 835, elapsed: 0.00032591819763183594
ell 834, elapsed: 0.00035309791564941406
ell 833, elapsed: 0.0002989768981933594
ell 832, elapsed: 0.0002989768981933594
ell 831, elapsed: 0.00030112266540527344
ell 830, elapsed: 0.0002999305725097656
ell 829, elapsed: 0.0003020763397216797
ell 828, elapsed: 0.0002989768981933594
ell 827, elapsed: 0.0002951622009277344
ell 826, elapsed: 0.0002999305725097656
ell 825, elapsed: 0.00028896331787109375
ell 824, elapsed: 0.0003020763397216797
ell 823, elapsed: 0.0003058910369873047
ell 822, elapsed: 0.0003590583801269531
ell 821, elapsed: 0.00029206275939941406
ell 820, elapsed: 0.00030517578125
ell 819, elapsed: 0.00030303001403808594
ell 818, elapsed: 0.0002949237823486328
ell 817, elapsed: 0.0002899169921875
ell 816, elapsed: 0.0002961158752441406
ell 815, elapsed: 0.00028896331787109375
ell 814, elapsed: 0.0003001689910888672
ell 813, elapsed: 0.0002930164337158203
ell 812, elapsed: 0.00029087066650390625
ell 811, elapsed: 0.0003001689910888672
ell 810, elapsed: 0.00029206275939941406
ell 809, elapsed: 0.0003380775451660156
ell 808, elapsed: 0.0002949237823486328
ell 807, elapsed: 0.0002918243408203125
ell 806, elapsed: 0.0002989768981933594
ell 805, elapsed: 0.00029015541076660156
ell 804, elapsed: 0.0003108978271484375
ell 803, elapsed: 0.00029587745666503906
ell 802, elapsed: 0.0002949237823486328
ell 801, elapsed: 0.00030803680419921875
ell 800, elapsed: 0.0002899169921875
ell 799, elapsed: 0.0003020763397216797
ell 798, elapsed: 0.00029397010803222656
ell 797, elapsed: 0.0005650520324707031
ell 796, elapsed: 0.000308990478515625
ell 795, elapsed: 0.0005140304565429688
ell 794, elapsed: 0.00030612945556640625
ell 793, elapsed: 0.0002949237823486328
ell 792, elapsed: 0.0002980232238769531
ell 791, elapsed: 0.00030112266540527344
ell 790, elapsed: 0.0002942085266113281
ell 789, elapsed: 0.0002989768981933594
ell 788, elapsed: 0.00029397010803222656
ell 787, elapsed: 0.00031185150146484375
ell 786, elapsed: 0.0003750324249267578
ell 785, elapsed: 0.00041103363037109375
ell 784, elapsed: 0.0004379749298095703
ell 783, elapsed: 0.0003039836883544922
ell 782, elapsed: 0.0003018379211425781
ell 781, elapsed: 0.0002980232238769531
ell 780, elapsed: 0.00029587745666503906
ell 779, elapsed: 0.0002989768981933594
ell 778, elapsed: 0.0002999305725097656
ell 777, elapsed: 0.00030612945556640625
ell 776, elapsed: 0.00030303001403808594
ell 775, elapsed: 0.0003440380096435547
ell 774, elapsed: 0.00030112266540527344
ell 773, elapsed: 0.0003020763397216797
ell 772, elapsed: 0.00030493736267089844
ell 771, elapsed: 0.0002970695495605469
ell 770, elapsed: 0.0002949237823486328
ell 769, elapsed: 0.0003058910369873047
ell 768, elapsed: 0.0002989768981933594
ell 767, elapsed: 0.00030493736267089844
ell 766, elapsed: 0.0002999305725097656
ell 765, elapsed: 0.0002968311309814453
ell 764, elapsed: 0.00030303001403808594
ell 763, elapsed: 0.00030303001403808594
ell 762, elapsed: 0.00038909912109375
ell 761, elapsed: 0.0002970695495605469
ell 760, elapsed: 0.0002949237823486328
ell 759, elapsed: 0.00030112266540527344
ell 758, elapsed: 0.00028896331787109375
ell 757, elapsed: 0.0002899169921875
ell 756, elapsed: 0.0002849102020263672
ell 755, elapsed: 0.0002918243408203125
ell 754, elapsed: 0.00030303001403808594
ell 753, elapsed: 0.0002970695495605469
ell 752, elapsed: 0.00029206275939941406
ell 751, elapsed: 0.00028705596923828125
ell 750, elapsed: 0.0004088878631591797
ell 749, elapsed: 0.0003349781036376953
ell 748, elapsed: 0.000331878662109375
ell 747, elapsed: 0.00032806396484375
ell 746, elapsed: 0.0003299713134765625
ell 745, elapsed: 0.0003199577331542969
ell 744, elapsed: 0.00032782554626464844
ell 743, elapsed: 0.0003268718719482422
ell 742, elapsed: 0.0003371238708496094
ell 741, elapsed: 0.0003211498260498047
ell 740, elapsed: 0.00032591819763183594
ell 739, elapsed: 0.0004038810729980469
ell 738, elapsed: 0.0002970695495605469
ell 737, elapsed: 0.00031280517578125
ell 736, elapsed: 0.0002949237823486328
ell 735, elapsed: 0.0003039836883544922
ell 734, elapsed: 0.0002989768981933594
ell 733, elapsed: 0.0003018379211425781
ell 732, elapsed: 0.0003018379211425781
ell 731, elapsed: 0.0002949237823486328
ell 730, elapsed: 0.0002989768981933594
ell 729, elapsed: 0.0002930164337158203
ell 728, elapsed: 0.0002949237823486328
ell 727, elapsed: 0.0003008842468261719
ell 726, elapsed: 0.0003190040588378906
ell 725, elapsed: 0.0003058910369873047
ell 724, elapsed: 0.0002951622009277344
ell 723, elapsed: 0.0002980232238769531
ell 722, elapsed: 0.0003018379211425781
ell 721, elapsed: 0.0003058910369873047
ell 720, elapsed: 0.0002980232238769531
ell 719, elapsed: 0.0002949237823486328
ell 718, elapsed: 0.0002961158752441406
ell 717, elapsed: 0.000308990478515625
ell 716, elapsed: 0.0002961158752441406
ell 715, elapsed: 0.000308990478515625
ell 714, elapsed: 0.00032806396484375
ell 713, elapsed: 0.00029206275939941406
ell 712, elapsed: 0.00030112266540527344
ell 711, elapsed: 0.0002951622009277344
ell 710, elapsed: 0.00028395652770996094
ell 709, elapsed: 0.0002830028533935547
ell 708, elapsed: 0.0002830028533935547
ell 707, elapsed: 0.0002849102020263672
ell 706, elapsed: 0.00028586387634277344
ell 705, elapsed: 0.00028395652770996094
ell 704, elapsed: 0.0002799034118652344
ell 703, elapsed: 0.00028395652770996094
ell 702, elapsed: 0.00028896331787109375
ell 701, elapsed: 0.00033092498779296875
ell 700, elapsed: 0.0002942085266113281
ell 699, elapsed: 0.0002830028533935547
ell 698, elapsed: 0.0002949237823486328
ell 697, elapsed: 0.00028514862060546875
ell 696, elapsed: 0.0002911090850830078
ell 695, elapsed: 0.00029397010803222656
ell 694, elapsed: 0.0002880096435546875
ell 693, elapsed: 0.0002930164337158203
ell 692, elapsed: 0.0002880096435546875
ell 691, elapsed: 0.0002849102020263672
ell 690, elapsed: 0.0002930164337158203
ell 689, elapsed: 0.0002830028533935547
ell 688, elapsed: 0.00033402442932128906
ell 687, elapsed: 0.0002830028533935547
ell 686, elapsed: 0.00029087066650390625
ell 685, elapsed: 0.0002899169921875
ell 684, elapsed: 0.0002841949462890625
ell 683, elapsed: 0.00028896331787109375
ell 682, elapsed: 0.00028514862060546875
ell 681, elapsed: 0.00028514862060546875
ell 680, elapsed: 0.0002970695495605469
ell 679, elapsed: 0.0002830028533935547
ell 678, elapsed: 0.0002942085266113281
ell 677, elapsed: 0.00028514862060546875
ell 676, elapsed: 0.0002849102020263672
ell 675, elapsed: 0.0003180503845214844
ell 674, elapsed: 0.0002880096435546875
ell 673, elapsed: 0.00029397010803222656
ell 672, elapsed: 0.0002779960632324219
ell 671, elapsed: 0.00029015541076660156
ell 670, elapsed: 0.00028395652770996094
ell 669, elapsed: 0.00028514862060546875
ell 668, elapsed: 0.00029015541076660156
ell 667, elapsed: 0.0004258155822753906
ell 666, elapsed: 0.00028705596923828125
ell 665, elapsed: 0.0002810955047607422
ell 664, elapsed: 0.0002758502960205078
ell 663, elapsed: 0.0003180503845214844
ell 662, elapsed: 0.0002779960632324219
ell 661, elapsed: 0.0002830028533935547
ell 660, elapsed: 0.0002739429473876953
ell 659, elapsed: 0.0002739429473876953
ell 658, elapsed: 0.0002799034118652344
ell 657, elapsed: 0.0002770423889160156
ell 656, elapsed: 0.0002789497375488281
ell 655, elapsed: 0.0002760887145996094
ell 654, elapsed: 0.00027489662170410156
ell 653, elapsed: 0.0002818107604980469
ell 652, elapsed: 0.0002791881561279297
ell 651, elapsed: 0.00030493736267089844
ell 650, elapsed: 0.00028514862060546875
ell 649, elapsed: 0.0003769397735595703
ell 648, elapsed: 0.0002868175506591797
ell 647, elapsed: 0.0003139972686767578
ell 646, elapsed: 0.0002911090850830078
ell 645, elapsed: 0.00028896331787109375
ell 644, elapsed: 0.00028705596923828125
ell 643, elapsed: 0.0002930164337158203
ell 642, elapsed: 0.00028705596923828125
ell 641, elapsed: 0.0002930164337158203
ell 640, elapsed: 0.00029206275939941406
ell 639, elapsed: 0.0002968311309814453
ell 638, elapsed: 0.000286102294921875
ell 637, elapsed: 0.0003619194030761719
ell 636, elapsed: 0.0002989768981933594
ell 635, elapsed: 0.0002911090850830078
ell 634, elapsed: 0.0003008842468261719
ell 633, elapsed: 0.0002880096435546875
ell 632, elapsed: 0.00029397010803222656
ell 631, elapsed: 0.0002949237823486328
ell 630, elapsed: 0.0002961158752441406
ell 629, elapsed: 0.0002980232238769531
ell 628, elapsed: 0.00028586387634277344
ell 627, elapsed: 0.00028777122497558594
ell 626, elapsed: 0.00029587745666503906
ell 625, elapsed: 0.0002961158752441406
ell 624, elapsed: 0.0003299713134765625
ell 623, elapsed: 0.00029015541076660156
ell 622, elapsed: 0.00029206275939941406
ell 621, elapsed: 0.0002930164337158203
ell 620, elapsed: 0.00028705596923828125
ell 619, elapsed: 0.00029587745666503906
ell 618, elapsed: 0.0002892017364501953
ell 617, elapsed: 0.00028586387634277344
ell 616, elapsed: 0.0002989768981933594
ell 615, elapsed: 0.0002899169921875
ell 614, elapsed: 0.0003039836883544922
ell 613, elapsed: 0.0002880096435546875
ell 612, elapsed: 0.0002930164337158203
ell 611, elapsed: 0.0003631114959716797
ell 610, elapsed: 0.00030112266540527344
ell 609, elapsed: 0.00030303001403808594
ell 608, elapsed: 0.0002970695495605469
ell 607, elapsed: 0.0003008842468261719
ell 606, elapsed: 0.0002980232238769531
ell 605, elapsed: 0.0002989768981933594
ell 604, elapsed: 0.0002968311309814453
ell 603, elapsed: 0.0002949237823486328
ell 602, elapsed: 0.0002980232238769531
ell 601, elapsed: 0.00029206275939941406
ell 600, elapsed: 0.0003039836883544922
ell 599, elapsed: 0.0003390312194824219
ell 598, elapsed: 0.0002949237823486328
ell 597, elapsed: 0.00030803680419921875
ell 596, elapsed: 0.00028514862060546875
ell 595, elapsed: 0.00029206275939941406
ell 594, elapsed: 0.00030684471130371094
ell 593, elapsed: 0.0002970695495605469
ell 592, elapsed: 0.0002989768981933594
ell 591, elapsed: 0.00029778480529785156
ell 590, elapsed: 0.0002949237823486328
ell 589, elapsed: 0.000308990478515625
ell 588, elapsed: 0.00029087066650390625
ell 587, elapsed: 0.00030112266540527344
ell 586, elapsed: 0.00032591819763183594
ell 585, elapsed: 0.00029587745666503906
ell 584, elapsed: 0.0003008842468261719
ell 583, elapsed: 0.0002951622009277344
ell 582, elapsed: 0.00029397010803222656
ell 581, elapsed: 0.00029206275939941406
ell 580, elapsed: 0.0003020763397216797
ell 579, elapsed: 0.0002892017364501953
ell 578, elapsed: 0.00028896331787109375
ell 577, elapsed: 0.0002970695495605469
ell 576, elapsed: 0.00029087066650390625
ell 575, elapsed: 0.0003020763397216797
ell 574, elapsed: 0.00034999847412109375
ell 573, elapsed: 0.0002968311309814453
ell 572, elapsed: 0.00030493736267089844
ell 571, elapsed: 0.00028896331787109375
ell 570, elapsed: 0.0002951622009277344
ell 569, elapsed: 0.0002999305725097656
ell 568, elapsed: 0.00029397010803222656
ell 567, elapsed: 0.00030112266540527344
ell 566, elapsed: 0.00029397010803222656
ell 565, elapsed: 0.00030517578125
ell 564, elapsed: 0.00030112266540527344
ell 563, elapsed: 0.0002930164337158203
ell 562, elapsed: 0.00030112266540527344
ell 561, elapsed: 0.00033283233642578125
ell 560, elapsed: 0.0002970695495605469
ell 559, elapsed: 0.0002930164337158203
ell 558, elapsed: 0.00030112266540527344
ell 557, elapsed: 0.00030303001403808594
ell 556, elapsed: 0.00029206275939941406
ell 555, elapsed: 0.0002930164337158203
ell 554, elapsed: 0.00029587745666503906
ell 553, elapsed: 0.0002961158752441406
ell 552, elapsed: 0.00030612945556640625
ell 551, elapsed: 0.00029206275939941406
ell 550, elapsed: 0.0002989768981933594
ell 549, elapsed: 0.0003528594970703125
ell 548, elapsed: 0.0003070831298828125
ell 547, elapsed: 0.0002930164337158203
ell 546, elapsed: 0.0003108978271484375
ell 545, elapsed: 0.0003101825714111328
ell 544, elapsed: 0.0002980232238769531
ell 543, elapsed: 0.00030422210693359375
ell 542, elapsed: 0.0002942085266113281
ell 541, elapsed: 0.00029397010803222656
ell 540, elapsed: 0.0003039836883544922
ell 539, elapsed: 0.0002961158752441406
ell 538, elapsed: 0.00030303001403808594
ell 537, elapsed: 0.0002951622009277344
ell 536, elapsed: 0.00032901763916015625
ell 535, elapsed: 0.00030303001403808594
ell 534, elapsed: 0.0002930164337158203
ell 533, elapsed: 0.00030303001403808594
ell 532, elapsed: 0.00028395652770996094
ell 531, elapsed: 0.00030112266540527344
ell 530, elapsed: 0.0003001689910888672
ell 529, elapsed: 0.0003001689910888672
ell 528, elapsed: 0.00030612945556640625
ell 527, elapsed: 0.0002989768981933594
ell 526, elapsed: 0.00030303001403808594
ell 525, elapsed: 0.0002999305725097656
ell 524, elapsed: 0.00033092498779296875
ell 523, elapsed: 0.0003120899200439453
ell 522, elapsed: 0.0002999305725097656
ell 521, elapsed: 0.00030803680419921875
ell 520, elapsed: 0.00029397010803222656
ell 519, elapsed: 0.00029397010803222656
ell 518, elapsed: 0.0003039836883544922
ell 517, elapsed: 0.00029587745666503906
ell 516, elapsed: 0.00031280517578125
ell 515, elapsed: 0.0002930164337158203
ell 514, elapsed: 0.00030303001403808594
ell 513, elapsed: 0.0002980232238769531
ell 512, elapsed: 0.00029015541076660156
ell 511, elapsed: 0.0003619194030761719
ell 510, elapsed: 0.00028896331787109375
ell 509, elapsed: 0.00029397010803222656
ell 508, elapsed: 0.0003058910369873047
ell 507, elapsed: 0.00028705596923828125
ell 506, elapsed: 0.0003039836883544922
ell 505, elapsed: 0.0002899169921875
ell 504, elapsed: 0.00029397010803222656
ell 503, elapsed: 0.00030303001403808594
ell 502, elapsed: 0.0002970695495605469
ell 501, elapsed: 0.00029397010803222656
ell 500, elapsed: 0.00028014183044433594
ell 499, elapsed: 0.00038695335388183594
ell 498, elapsed: 0.0003008842468261719
ell 497, elapsed: 0.0002880096435546875
ell 496, elapsed: 0.00029778480529785156
ell 495, elapsed: 0.00028586387634277344
ell 494, elapsed: 0.0002970695495605469
ell 493, elapsed: 0.0002980232238769531
ell 492, elapsed: 0.00029087066650390625
ell 491, elapsed: 0.00029587745666503906
ell 490, elapsed: 0.0002918243408203125
ell 489, elapsed: 0.00028896331787109375
ell 488, elapsed: 0.0002911090850830078
ell 487, elapsed: 0.0002868175506591797
ell 486, elapsed: 0.0003380775451660156
ell 485, elapsed: 0.00028896331787109375
ell 484, elapsed: 0.0003039836883544922
ell 483, elapsed: 0.0002961158752441406
ell 482, elapsed: 0.0002930164337158203
ell 481, elapsed: 0.0003020763397216797
ell 480, elapsed: 0.00029015541076660156
ell 479, elapsed: 0.0002968311309814453
ell 478, elapsed: 0.00029921531677246094
ell 477, elapsed: 0.0002989768981933594
ell 476, elapsed: 0.00030303001403808594
ell 475, elapsed: 0.0002980232238769531
ell 474, elapsed: 0.00036716461181640625
ell 473, elapsed: 0.0002899169921875
ell 472, elapsed: 0.00028896331787109375
ell 471, elapsed: 0.0002999305725097656
ell 470, elapsed: 0.00029206275939941406
ell 469, elapsed: 0.0002980232238769531
ell 468, elapsed: 0.00028896331787109375
ell 467, elapsed: 0.0002989768981933594
ell 466, elapsed: 0.0003058910369873047
ell 465, elapsed: 0.0003058910369873047
ell 464, elapsed: 0.00030493736267089844
ell 463, elapsed: 0.00029587745666503906
ell 462, elapsed: 0.0002949237823486328
ell 461, elapsed: 0.0003490447998046875
ell 460, elapsed: 0.0003008842468261719
ell 459, elapsed: 0.0003159046173095703
ell 458, elapsed: 0.0002918243408203125
ell 457, elapsed: 0.00031304359436035156
ell 456, elapsed: 0.000308990478515625
ell 455, elapsed: 0.0002830028533935547
ell 454, elapsed: 0.00028896331787109375
ell 453, elapsed: 0.00027298927307128906
ell 452, elapsed: 0.0002830028533935547
ell 451, elapsed: 0.00026917457580566406
ell 450, elapsed: 0.00026917457580566406
ell 449, elapsed: 0.00032210350036621094
ell 448, elapsed: 0.0002970695495605469
ell 447, elapsed: 0.00030684471130371094
ell 446, elapsed: 0.0002989768981933594
ell 445, elapsed: 0.0002949237823486328
ell 444, elapsed: 0.00032210350036621094
ell 443, elapsed: 0.00029397010803222656
ell 442, elapsed: 0.00030493736267089844
ell 441, elapsed: 0.0002970695495605469
ell 440, elapsed: 0.0002930164337158203
ell 439, elapsed: 0.0002961158752441406
ell 438, elapsed: 0.0002830028533935547
ell 437, elapsed: 0.0003170967102050781
ell 436, elapsed: 0.0003609657287597656
ell 435, elapsed: 0.0003008842468261719
ell 434, elapsed: 0.0003120899200439453
ell 433, elapsed: 0.00029397010803222656
ell 432, elapsed: 0.0002980232238769531
ell 431, elapsed: 0.0002880096435546875
ell 430, elapsed: 0.0003001689910888672
ell 429, elapsed: 0.0002868175506591797
ell 428, elapsed: 0.00029397010803222656
ell 427, elapsed: 0.00031113624572753906
ell 426, elapsed: 0.0003008842468261719
ell 425, elapsed: 0.00030684471130371094
ell 424, elapsed: 0.00040221214294433594
ell 423, elapsed: 0.0002980232238769531
ell 422, elapsed: 0.0002980232238769531
ell 421, elapsed: 0.0002899169921875
ell 420, elapsed: 0.0002980232238769531
ell 419, elapsed: 0.0003170967102050781
ell 418, elapsed: 0.00029587745666503906
ell 417, elapsed: 0.0003139972686767578
ell 416, elapsed: 0.00029206275939941406
ell 415, elapsed: 0.0002980232238769531
ell 414, elapsed: 0.0002911090850830078
ell 413, elapsed: 0.00029587745666503906
ell 412, elapsed: 0.00032806396484375
ell 411, elapsed: 0.0003008842468261719
ell 410, elapsed: 0.0003159046173095703
ell 409, elapsed: 0.0002980232238769531
ell 408, elapsed: 0.00027298927307128906
ell 407, elapsed: 0.00027298927307128906
ell 406, elapsed: 0.00026798248291015625
ell 405, elapsed: 0.0002770423889160156
ell 404, elapsed: 0.00026297569274902344
ell 403, elapsed: 0.00026798248291015625
ell 402, elapsed: 0.00029087066650390625
ell 401, elapsed: 0.00029397010803222656
ell 400, elapsed: 0.0003039836883544922
ell 399, elapsed: 0.00037789344787597656
ell 398, elapsed: 0.0003020763397216797
ell 397, elapsed: 0.00029015541076660156
ell 396, elapsed: 0.0002999305725097656
ell 395, elapsed: 0.0003008842468261719
ell 394, elapsed: 0.00028896331787109375
ell 393, elapsed: 0.00030493736267089844
ell 392, elapsed: 0.00029087066650390625
ell 391, elapsed: 0.0002911090850830078
ell 390, elapsed: 0.00030612945556640625
ell 389, elapsed: 0.00029397010803222656
ell 388, elapsed: 0.0003008842468261719
ell 387, elapsed: 0.0002949237823486328
ell 386, elapsed: 0.0003390312194824219
ell 385, elapsed: 0.0002899169921875
ell 384, elapsed: 0.00030112266540527344
ell 383, elapsed: 0.00029397010803222656
ell 382, elapsed: 0.0003070831298828125
ell 381, elapsed: 0.0002918243408203125
ell 380, elapsed: 0.0003001689910888672
ell 379, elapsed: 0.0002880096435546875
ell 378, elapsed: 0.0003190040588378906
ell 377, elapsed: 0.0002918243408203125
ell 376, elapsed: 0.0002970695495605469
ell 375, elapsed: 0.00029587745666503906
ell 374, elapsed: 0.00029206275939941406
ell 373, elapsed: 0.00032401084899902344
ell 372, elapsed: 0.0003020763397216797
ell 371, elapsed: 0.00028586387634277344
ell 370, elapsed: 0.0002930164337158203
ell 369, elapsed: 0.0003039836883544922
ell 368, elapsed: 0.0002930164337158203
ell 367, elapsed: 0.0002970695495605469
ell 366, elapsed: 0.0003018379211425781
ell 365, elapsed: 0.00027823448181152344
ell 364, elapsed: 0.0002930164337158203
ell 363, elapsed: 0.0002989768981933594
ell 362, elapsed: 0.0002918243408203125
ell 361, elapsed: 0.010976076126098633
ell 360, elapsed: 0.0003459453582763672
ell 359, elapsed: 0.00031185150146484375
ell 358, elapsed: 0.00028896331787109375
ell 357, elapsed: 0.0003409385681152344
ell 356, elapsed: 0.00029015541076660156
ell 355, elapsed: 0.00028705596923828125
ell 354, elapsed: 0.0002810955047607422
ell 353, elapsed: 0.00028014183044433594
ell 352, elapsed: 0.00029397010803222656
ell 351, elapsed: 0.00028896331787109375
ell 350, elapsed: 0.0002918243408203125
ell 349, elapsed: 0.00028395652770996094
ell 348, elapsed: 0.0002880096435546875
ell 347, elapsed: 0.0002980232238769531
ell 346, elapsed: 0.0002849102020263672
ell 345, elapsed: 0.0002980232238769531
ell 344, elapsed: 0.00033783912658691406
ell 343, elapsed: 0.00029778480529785156
ell 342, elapsed: 0.00029397010803222656
ell 341, elapsed: 0.0002899169921875
ell 340, elapsed: 0.0003018379211425781
ell 339, elapsed: 0.0007569789886474609
ell 338, elapsed: 0.00037097930908203125
ell 337, elapsed: 0.00043892860412597656
ell 336, elapsed: 0.0004229545593261719
ell 335, elapsed: 0.0004169940948486328
ell 334, elapsed: 0.0004839897155761719
ell 333, elapsed: 0.0003459453582763672
ell 332, elapsed: 0.0002980232238769531
ell 331, elapsed: 0.00028705596923828125
ell 330, elapsed: 0.00029397010803222656
ell 329, elapsed: 0.0002949237823486328
ell 328, elapsed: 0.0002980232238769531
ell 327, elapsed: 0.0002999305725097656
ell 326, elapsed: 0.00029397010803222656
ell 325, elapsed: 0.00028896331787109375
ell 324, elapsed: 0.0003058910369873047
ell 323, elapsed: 0.0002951622009277344
ell 322, elapsed: 0.00034689903259277344
ell 321, elapsed: 0.00028204917907714844
ell 320, elapsed: 0.0003039836883544922
ell 319, elapsed: 0.0002930164337158203
ell 318, elapsed: 0.0002961158752441406
ell 317, elapsed: 0.0002980232238769531
ell 316, elapsed: 0.00029277801513671875
ell 315, elapsed: 0.0003018379211425781
ell 314, elapsed: 0.0002968311309814453
ell 313, elapsed: 0.00029087066650390625
ell 312, elapsed: 0.00030112266540527344
ell 311, elapsed: 0.0002999305725097656
ell 310, elapsed: 0.017126798629760742
ell 309, elapsed: 0.0002989768981933594
ell 308, elapsed: 0.0003509521484375
ell 307, elapsed: 0.0002620220184326172
ell 306, elapsed: 0.0002799034118652344
ell 305, elapsed: 0.00029087066650390625
ell 304, elapsed: 0.00026106834411621094
ell 303, elapsed: 0.0002789497375488281
ell 302, elapsed: 0.0002779960632324219
ell 301, elapsed: 0.0002779960632324219
ell 300, elapsed: 0.0003249645233154297
ell 299, elapsed: 0.0003020763397216797
ell 298, elapsed: 0.0002989768981933594
ell 297, elapsed: 0.00028514862060546875
ell 296, elapsed: 0.00028705596923828125
ell 295, elapsed: 0.00030684471130371094
ell 294, elapsed: 0.0002810955047607422
ell 293, elapsed: 0.0002951622009277344
ell 292, elapsed: 0.0002868175506591797
ell 291, elapsed: 0.00029206275939941406
ell 290, elapsed: 0.0002899169921875
ell 289, elapsed: 0.0002899169921875
ell 288, elapsed: 0.0002949237823486328
ell 287, elapsed: 0.0003151893615722656
ell 286, elapsed: 0.0002498626708984375
ell 285, elapsed: 0.0003120899200439453
ell 284, elapsed: 0.0002911090850830078
ell 283, elapsed: 0.00029397010803222656
ell 282, elapsed: 0.00028014183044433594
ell 281, elapsed: 0.0002980232238769531
ell 280, elapsed: 0.0002808570861816406
ell 279, elapsed: 0.0002961158752441406
ell 278, elapsed: 0.00029587745666503906
ell 277, elapsed: 0.0002868175506591797
ell 276, elapsed: 0.00029587745666503906
ell 275, elapsed: 0.0002892017364501953
ell 274, elapsed: 0.0004069805145263672
ell 273, elapsed: 0.0003020763397216797
ell 272, elapsed: 0.00028896331787109375
ell 271, elapsed: 0.0003020763397216797
ell 270, elapsed: 0.000286102294921875
ell 269, elapsed: 0.0002949237823486328
ell 268, elapsed: 0.00029397010803222656
ell 267, elapsed: 0.00028896331787109375
ell 266, elapsed: 0.0002989768981933594
ell 265, elapsed: 0.00029397010803222656
ell 264, elapsed: 0.00028586387634277344
ell 263, elapsed: 0.0002880096435546875
ell 262, elapsed: 0.00028204917907714844
ell 261, elapsed: 0.00035691261291503906
ell 260, elapsed: 0.0002868175506591797
ell 259, elapsed: 0.0002880096435546875
ell 258, elapsed: 0.0007851123809814453
ell 257, elapsed: 0.000476837158203125
ell 256, elapsed: 0.0004878044128417969
ell 255, elapsed: 0.0005462169647216797
ell 254, elapsed: 0.0004990100860595703
ell 253, elapsed: 0.0003619194030761719
ell 252, elapsed: 0.0002951622009277344
ell 251, elapsed: 0.0002880096435546875
ell 250, elapsed: 0.00028705596923828125
ell 249, elapsed: 0.0002911090850830078
ell 248, elapsed: 0.00029397010803222656
ell 247, elapsed: 0.00029206275939941406
ell 246, elapsed: 0.0002970695495605469
ell 245, elapsed: 0.000553131103515625
ell 244, elapsed: 0.00047707557678222656
ell 243, elapsed: 0.0003421306610107422
ell 242, elapsed: 0.00028705596923828125
ell 241, elapsed: 0.0002911090850830078
ell 240, elapsed: 0.00028896331787109375
ell 239, elapsed: 0.0002968311309814453
ell 238, elapsed: 0.000286102294921875
ell 237, elapsed: 0.00029587745666503906
ell 236, elapsed: 0.0002880096435546875
ell 235, elapsed: 0.0002810955047607422
ell 234, elapsed: 0.0011548995971679688
ell 233, elapsed: 0.0004649162292480469
ell 232, elapsed: 0.0002720355987548828
ell 231, elapsed: 0.00028586387634277344
ell 230, elapsed: 0.00026488304138183594
ell 229, elapsed: 0.0002720355987548828
ell 228, elapsed: 0.00026798248291015625
ell 227, elapsed: 0.00026297569274902344
ell 226, elapsed: 0.00026798248291015625
ell 225, elapsed: 0.00026607513427734375
ell 224, elapsed: 0.0002720355987548828
ell 223, elapsed: 0.0002651214599609375
ell 222, elapsed: 0.00026297569274902344
ell 221, elapsed: 0.00028896331787109375
ell 220, elapsed: 0.00023603439331054688
ell 219, elapsed: 0.0003180503845214844
ell 218, elapsed: 0.0002841949462890625
ell 217, elapsed: 0.00028395652770996094
ell 216, elapsed: 0.0002918243408203125
ell 215, elapsed: 0.0002830028533935547
ell 214, elapsed: 0.00028705596923828125
ell 213, elapsed: 0.00028514862060546875
ell 212, elapsed: 0.0002830028533935547
ell 211, elapsed: 0.0002930164337158203
ell 210, elapsed: 0.0002880096435546875
ell 209, elapsed: 0.0002949237823486328
ell 208, elapsed: 0.0003371238708496094
ell 207, elapsed: 0.0002980232238769531
ell 206, elapsed: 0.0003070831298828125
ell 205, elapsed: 0.00025200843811035156
ell 204, elapsed: 0.0007991790771484375
ell 203, elapsed: 0.00040602684020996094
ell 202, elapsed: 0.0002951622009277344
ell 201, elapsed: 0.0007290840148925781
ell 200, elapsed: 0.00029397010803222656
ell 199, elapsed: 0.0002999305725097656
ell 198, elapsed: 0.00029206275939941406
ell 197, elapsed: 0.0003261566162109375
ell 196, elapsed: 0.00029206275939941406
ell 195, elapsed: 0.0002830028533935547
ell 194, elapsed: 0.0019009113311767578
ell 193, elapsed: 0.0003170967102050781
ell 192, elapsed: 0.0003180503845214844
ell 191, elapsed: 0.00031495094299316406
ell 190, elapsed: 0.0003437995910644531
ell 189, elapsed: 0.0003039836883544922
ell 188, elapsed: 0.0002989768981933594
ell 187, elapsed: 0.0003008842468261719
ell 186, elapsed: 0.0002930164337158203
ell 185, elapsed: 0.00029206275939941406
ell 184, elapsed: 0.00030303001403808594
ell 183, elapsed: 0.0002951622009277344
ell 182, elapsed: 0.0003039836883544922
ell 181, elapsed: 0.0002999305725097656
ell 180, elapsed: 0.0002989768981933594
ell 179, elapsed: 0.00030303001403808594
ell 178, elapsed: 0.00029587745666503906
ell 177, elapsed: 0.0003190040588378906
ell 176, elapsed: 0.0002949237823486328
ell 175, elapsed: 0.0003571510314941406
ell 174, elapsed: 0.0014009475708007812
ell 173, elapsed: 0.00043201446533203125
ell 172, elapsed: 0.00040411949157714844
ell 171, elapsed: 0.00038909912109375
ell 170, elapsed: 0.0004010200500488281
ell 169, elapsed: 0.00036787986755371094
ell 168, elapsed: 0.00036787986755371094
ell 167, elapsed: 0.0003719329833984375
ell 166, elapsed: 0.00036907196044921875
ell 165, elapsed: 0.000370025634765625
ell 164, elapsed: 0.0003650188446044922
ell 163, elapsed: 0.0003688335418701172
ell 162, elapsed: 0.0003681182861328125
ell 161, elapsed: 0.0003609657287597656
ell 160, elapsed: 0.0003800392150878906
ell 159, elapsed: 0.00038695335388183594
ell 158, elapsed: 0.00030303001403808594
ell 157, elapsed: 0.0002980232238769531
ell 156, elapsed: 0.0002942085266113281
ell 155, elapsed: 0.0002980232238769531
ell 154, elapsed: 0.00029015541076660156
ell 153, elapsed: 0.0002868175506591797
ell 152, elapsed: 0.0002951622009277344
ell 151, elapsed: 0.00029206275939941406
ell 150, elapsed: 0.0002999305725097656
ell 149, elapsed: 0.0003020763397216797
ell 148, elapsed: 0.00029206275939941406
ell 147, elapsed: 0.00031495094299316406
ell 146, elapsed: 0.00029587745666503906
ell 145, elapsed: 0.0002961158752441406
ell 144, elapsed: 0.0002911090850830078
ell 143, elapsed: 0.0003070831298828125
ell 142, elapsed: 0.00029397010803222656
ell 141, elapsed: 0.00029087066650390625
ell 140, elapsed: 0.0003018379211425781
ell 139, elapsed: 0.00029397010803222656
ell 138, elapsed: 0.0003020763397216797
ell 137, elapsed: 0.00029087066650390625
ell 136, elapsed: 0.00029206275939941406
ell 135, elapsed: 0.000431060791015625
ell 134, elapsed: 0.00030303001403808594
ell 133, elapsed: 0.0002980232238769531
ell 132, elapsed: 0.0002980232238769531
ell 131, elapsed: 0.0002970695495605469
ell 130, elapsed: 0.0003039836883544922
ell 129, elapsed: 0.0002968311309814453
ell 128, elapsed: 0.00030303001403808594
ell 127, elapsed: 0.0002930164337158203
ell 126, elapsed: 0.00029397010803222656
ell 125, elapsed: 0.0003018379211425781
ell 124, elapsed: 0.00029587745666503906
ell 123, elapsed: 0.00033211708068847656
ell 122, elapsed: 0.0003008842468261719
ell 121, elapsed: 0.0002880096435546875
ell 120, elapsed: 0.0003008842468261719
ell 119, elapsed: 0.0002880096435546875
ell 118, elapsed: 0.0002980232238769531
ell 117, elapsed: 0.0002830028533935547
ell 116, elapsed: 0.000286102294921875
ell 115, elapsed: 0.0002942085266113281
ell 114, elapsed: 0.00028705596923828125
ell 113, elapsed: 0.00029087066650390625
ell 112, elapsed: 0.0003001689910888672
ell 111, elapsed: 0.00030517578125
ell 110, elapsed: 0.00032591819763183594
ell 109, elapsed: 0.00029587745666503906
ell 108, elapsed: 0.00031304359436035156
ell 107, elapsed: 0.00029921531677246094
ell 106, elapsed: 0.000308990478515625
ell 105, elapsed: 0.0003027915954589844
ell 104, elapsed: 0.0002980232238769531
ell 103, elapsed: 0.00030303001403808594
ell 102, elapsed: 0.00031113624572753906
ell 101, elapsed: 0.0003101825714111328
ell 100, elapsed: 0.0002999305725097656
ell 99, elapsed: 0.0002999305725097656
ell 98, elapsed: 0.0003380775451660156
ell 97, elapsed: 0.0002980232238769531
ell 96, elapsed: 0.0002961158752441406
ell 95, elapsed: 0.00029587745666503906
ell 94, elapsed: 0.0002961158752441406
ell 93, elapsed: 0.00030612945556640625
ell 92, elapsed: 0.0002970695495605469
ell 91, elapsed: 0.00030303001403808594
ell 90, elapsed: 0.0002949237823486328
ell 89, elapsed: 0.0002999305725097656
ell 88, elapsed: 0.0003018379211425781
ell 87, elapsed: 0.0003018379211425781
ell 86, elapsed: 0.0003058910369873047
ell 85, elapsed: 0.0003287792205810547
ell 84, elapsed: 0.0003039836883544922
ell 83, elapsed: 0.00030303001403808594
ell 82, elapsed: 0.0002880096435546875
ell 81, elapsed: 0.00029087066650390625
ell 80, elapsed: 0.00029587745666503906
ell 79, elapsed: 0.0003070831298828125
ell 78, elapsed: 0.00028896331787109375
ell 77, elapsed: 0.0007750988006591797
ell 76, elapsed: 0.0008499622344970703
ell 75, elapsed: 0.00043892860412597656
ell 74, elapsed: 0.00031304359436035156
ell 73, elapsed: 0.0007991790771484375
ell 72, elapsed: 0.0004100799560546875
ell 71, elapsed: 0.0007710456848144531
ell 70, elapsed: 0.0003139972686767578
ell 69, elapsed: 0.0003001689910888672
ell 68, elapsed: 0.0002999305725097656
ell 67, elapsed: 0.00031304359436035156
ell 66, elapsed: 0.0003139972686767578
ell 65, elapsed: 0.00028705596923828125
ell 64, elapsed: 0.0002930164337158203
ell 63, elapsed: 0.0003039836883544922
ell 62, elapsed: 0.0002951622009277344
ell 61, elapsed: 0.0003020763397216797
ell 60, elapsed: 0.00029397010803222656
ell 59, elapsed: 0.00029087066650390625
ell 58, elapsed: 0.00030112266540527344
ell 57, elapsed: 0.0002930164337158203
ell 56, elapsed: 0.0002989768981933594
ell 55, elapsed: 0.0003490447998046875
ell 54, elapsed: 0.0003039836883544922
ell 53, elapsed: 0.00036787986755371094
ell 52, elapsed: 0.0003590583801269531
ell 51, elapsed: 0.00036978721618652344
ell 50, elapsed: 0.0003581047058105469
ell 49, elapsed: 0.0003628730773925781
ell 48, elapsed: 0.000370025634765625
ell 47, elapsed: 0.00032711029052734375
ell 46, elapsed: 0.0003559589385986328
ell 45, elapsed: 0.0003459453582763672
ell 44, elapsed: 0.0003769397735595703
ell 43, elapsed: 0.0003979206085205078
ell 42, elapsed: 0.0004260540008544922
ell 41, elapsed: 0.0004248619079589844
ell 40, elapsed: 0.0004000663757324219
ell 39, elapsed: 0.00043487548828125
ell 38, elapsed: 0.0003819465637207031
ell 37, elapsed: 0.00041294097900390625
ell 36, elapsed: 0.00040984153747558594
ell 35, elapsed: 0.0004968643188476562
ell 34, elapsed: 0.0003299713134765625
ell 33, elapsed: 0.0002989768981933594
ell 32, elapsed: 0.0002639293670654297
ell 31, elapsed: 0.0002658367156982422
ell 30, elapsed: 0.00024580955505371094
ell 29, elapsed: 0.00025582313537597656
ell 28, elapsed: 0.00026607513427734375
ell 27, elapsed: 0.00027489662170410156
ell 26, elapsed: 0.00026917457580566406
ell 25, elapsed: 0.0002720355987548828
ell 24, elapsed: 0.0002701282501220703
ell 23, elapsed: 0.0004038810729980469
ell 22, elapsed: 0.0002980232238769531
ell 21, elapsed: 0.0002942085266113281
ell 20, elapsed: 0.0002899169921875
ell 19, elapsed: 0.0002980232238769531
ell 18, elapsed: 0.0002980232238769531
ell 17, elapsed: 0.0002951622009277344
ell 16, elapsed: 0.00028896331787109375
ell 15, elapsed: 0.0002930164337158203
ell 14, elapsed: 0.00029397010803222656
ell 13, elapsed: 0.00029087066650390625
ell 12, elapsed: 0.00029921531677246094
ell 11, elapsed: 0.0002980232238769531
ell 10, elapsed: 0.00034618377685546875
ell 9, elapsed: 0.00029397010803222656
ell 8, elapsed: 0.00028586387634277344
ell 7, elapsed: 0.0002918243408203125
ell 6, elapsed: 0.0002849102020263672
ell 5, elapsed: 0.00028896331787109375
ell 4, elapsed: 0.0002970695495605469
ell 3, elapsed: 0.0002970695495605469
ell 2, elapsed: 0.00030994415283203125
ell 1, elapsed: 0.0002970695495605469
ell 0, elapsed: 0.0002949237823486328
  0.447777 seconds (46.76 k allocations: 3.103 MiB)
elapsed: 0.0003609657287597656
step:          0.047171 sec (0 allocations: 0 byte, 0.0% gc time)
swapping:      0.000489 sec (0 allocations: 0 byte, 0.0% gc time)
calc_Mellell!: 0.005409 sec (0 allocations: 0 byte, 0.0% gc time)
  t0 :  0.001448 sec (0 allocations: 0 byte, 0.0% gc time)
  tm2 : 0.069249 sec (0 allocations: 0 byte, 0.0% gc time)
  tm2s: 0.000961 sec (0 allocations: 0 byte, 0.0% gc time)
  tm4 : 0.180386 sec (0 allocations: 0 byte, 0.0% gc time)
  tp2 : 0.0 sec (0 allocations: 0 byte, 0.0% gc time)
  tp2s: 0.0 sec (0 allocations: 0 byte, 0.0% gc time)
  tp4 : 0.0 sec (0 allocations: 0 byte, 0.0% gc time)
calc_wtdll!:   0.277895 sec (9.936 k allocations: 1.048 MB, 0.0% gc time)
calc_wljj!:    0.02444 sec (689 allocations: 10.766 KB, 0.0% gc time)
mult_prefac!:  0.0 sec (0 allocations: 0 byte, 0.0% gc time)
convert:       0.0 sec (0 allocations: 0 byte, 0.0% gc time)
write:         0.031844 sec (0 allocations: 0 byte, 0.0% gc time)
test_rand_2f1: 0.0 sec (0 allocations: 0 byte, 0.0% gc time)
Closing outfile out/Ml21-cache.bin...   0.000009 seconds
  0.000407 seconds (34 allocations: 27.906 KiB)
make_phi():   0.001331 seconds (8.18 k allocations: 237.766 KiB)
  0.114743 seconds (141.90 k allocations: 3.483 MiB)
tskip:       0.000601 sec (0 allocations: 0 byte, 0.0% gc time)
tread:       0.022052 sec (17 allocations: 10.641 KB, 0.0% gc time)
tmultphi:    0.00791 sec (0 allocations: 0 byte, 0.0% gc time)
tbrfft:      0.032175 sec (0 allocations: 0 byte, 0.0% gc time)
tmultprefac: 0.015473 sec (0 allocations: 0 byte, 0.0% gc time)
toutfunc:    0.033832 sec (127.507 k allocations: 2.312 MB, 0.0% gc time)
Testing R=1.0 ... passed
Calculating fmax: 
  dlrec    = 4
  dlrecRg1 = -4
  q=1.1, R=0.9:	  0.230099 seconds (105.72 k allocations: 15.273 MiB)

  0.230266 seconds (105.77 k allocations: 15.307 MiB)
ℓ = 1202
Δℓ = 4
ΔℓRg1 = -4
N = 1600
q = 1.1
kmin = 1.0e-5
kmax = 100000.00000000004
χ0 = 0.023029999999999995
RR = RR.tsv
ℓmax = ℓmax.bin
f21 = f21.bin
kmin = 1.0e-5
kmax = 100000.0
dlrec    = 4
dlrecRg1 = -4
Output size: 5741568 bytes = 0.005347251892089844 GiB
Output size: 51264 bytes = 4.774332046508789e-5 GiB
Reading 'out/F21EllCache'...   0.000943 seconds (237 allocations: 85.453 KiB)
ellmax: 1202
lmaxcache: 1202
fell[:,1,1] = Complex{Float64}[1.3482014726274674e-57 - 3.302141236118086e-73im, 1.357860004724329e-57 - 3.3257978169518355e-73im]
ell 1202, elapsed: 1.3113021850585938e-5
ell 1201, elapsed: 0.000308990478515625
ell 1200, elapsed: 0.000408172607421875
ell 1199, elapsed: 0.0002779960632324219
ell 1198, elapsed: 0.0002720355987548828
ell 1002, elapsed: 0.008173942565917969
ell 1001, elapsed: 0.0002589225769042969
ell 1000, elapsed: 0.0002529621124267578
ell 999, elapsed: 0.00025200843811035156
ell 998, elapsed: 0.000247955322265625
ell 902, elapsed: 0.004220008850097656
ell 901, elapsed: 0.00026297569274902344
ell 900, elapsed: 0.0002510547637939453
ell 899, elapsed: 0.0002639293670654297
ell 898, elapsed: 0.000247955322265625
ell 802, elapsed: 0.0041179656982421875
ell 801, elapsed: 0.0003349781036376953
ell 800, elapsed: 0.0002529621124267578
ell 799, elapsed: 0.0002529621124267578
ell 798, elapsed: 0.0002529621124267578
ell 702, elapsed: 0.004282951354980469
ell 701, elapsed: 0.00025200843811035156
ell 700, elapsed: 0.0002498626708984375
ell 699, elapsed: 0.00024890899658203125
ell 698, elapsed: 0.0002532005310058594
ell 602, elapsed: 0.00415802001953125
ell 601, elapsed: 0.00025081634521484375
ell 600, elapsed: 0.00024580955505371094
ell 599, elapsed: 0.0002510547637939453
ell 598, elapsed: 0.00024890899658203125
ell 502, elapsed: 0.004182100296020508
ell 501, elapsed: 0.0003540515899658203
ell 500, elapsed: 0.0002498626708984375
ell 499, elapsed: 0.0002529621124267578
ell 498, elapsed: 0.0002529621124267578
ell 402, elapsed: 0.004163980484008789
ell 401, elapsed: 0.0002529621124267578
ell 400, elapsed: 0.0002548694610595703
ell 399, elapsed: 0.0002551078796386719
ell 398, elapsed: 0.0002541542053222656
ell 302, elapsed: 0.004151105880737305
ell 301, elapsed: 0.00025200843811035156
ell 300, elapsed: 0.0002510547637939453
ell 299, elapsed: 0.0002532005310058594
ell 298, elapsed: 0.0002551078796386719
ell 202, elapsed: 0.004153013229370117
ell 201, elapsed: 0.00025010108947753906
ell 200, elapsed: 0.0004088878631591797
ell 199, elapsed: 0.000244140625
ell 198, elapsed: 0.00024580955505371094
ell 152, elapsed: 0.002084970474243164
ell 151, elapsed: 0.00024700164794921875
ell 150, elapsed: 0.000244140625
ell 149, elapsed: 0.0002429485321044922
ell 148, elapsed: 0.0003349781036376953
ell 127, elapsed: 0.0010769367218017578
ell 126, elapsed: 0.00024390220642089844
ell 125, elapsed: 0.00024199485778808594
ell 124, elapsed: 0.00024390220642089844
ell 123, elapsed: 0.00024199485778808594
ell 114, elapsed: 0.0006070137023925781
ell 113, elapsed: 0.00024318695068359375
ell 112, elapsed: 0.00024199485778808594
ell 111, elapsed: 0.0002429485321044922
ell 110, elapsed: 0.00024509429931640625
ell 102, elapsed: 0.0006029605865478516
ell 101, elapsed: 0.0002448558807373047
ell 100, elapsed: 0.0002510547637939453
ell 99, elapsed: 0.00024318695068359375
ell 98, elapsed: 0.00025010108947753906
ell 97, elapsed: 0.00030112266540527344
ell 96, elapsed: 0.00028896331787109375
ell 95, elapsed: 0.0002989768981933594
ell 94, elapsed: 0.00033593177795410156
ell 93, elapsed: 0.0003020763397216797
ell 92, elapsed: 0.00030803680419921875
ell 91, elapsed: 0.0002970695495605469
ell 90, elapsed: 0.00033593177795410156
ell 89, elapsed: 0.0002999305725097656
ell 88, elapsed: 0.0002911090850830078
ell 87, elapsed: 0.0002951622009277344
ell 86, elapsed: 0.00029015541076660156
ell 85, elapsed: 0.00029087066650390625
ell 84, elapsed: 0.0002989768981933594
ell 83, elapsed: 0.00028777122497558594
ell 82, elapsed: 0.0003039836883544922
ell 81, elapsed: 0.00029015541076660156
ell 80, elapsed: 0.0002918243408203125
ell 79, elapsed: 0.0002961158752441406
ell 78, elapsed: 0.0003228187561035156
ell 77, elapsed: 0.0002989768981933594
ell 76, elapsed: 0.0002949237823486328
ell 75, elapsed: 0.0002880096435546875
ell 74, elapsed: 0.00029587745666503906
ell 73, elapsed: 0.00028586387634277344
ell 72, elapsed: 0.0002999305725097656
ell 71, elapsed: 0.0002949237823486328
ell 70, elapsed: 0.0003018379211425781
ell 69, elapsed: 0.0002899169921875
ell 68, elapsed: 0.00029206275939941406
ell 67, elapsed: 0.0002970695495605469
ell 66, elapsed: 0.0002911090850830078
ell 65, elapsed: 0.0002961158752441406
ell 64, elapsed: 0.0002989768981933594
ell 63, elapsed: 0.0002830028533935547
ell 62, elapsed: 0.0002970695495605469
ell 61, elapsed: 0.0002880096435546875
ell 60, elapsed: 0.00029087066650390625
ell 59, elapsed: 0.0002899169921875
ell 58, elapsed: 0.00028705596923828125
ell 57, elapsed: 0.00028896331787109375
ell 56, elapsed: 0.0002799034118652344
ell 55, elapsed: 0.0005168914794921875
ell 54, elapsed: 0.00028705596923828125
ell 53, elapsed: 0.00028705596923828125
ell 52, elapsed: 0.0002961158752441406
ell 51, elapsed: 0.0002880096435546875
ell 50, elapsed: 0.000431060791015625
ell 49, elapsed: 0.00029015541076660156
ell 48, elapsed: 0.0007059574127197266
ell 47, elapsed: 0.0003211498260498047
ell 46, elapsed: 0.00028395652770996094
ell 45, elapsed: 0.0002930164337158203
ell 44, elapsed: 0.0002830028533935547
ell 43, elapsed: 0.0003299713134765625
ell 42, elapsed: 0.0002949237823486328
ell 41, elapsed: 0.0002830028533935547
ell 40, elapsed: 0.00029587745666503906
ell 39, elapsed: 0.00028896331787109375
ell 38, elapsed: 0.0002880096435546875
ell 37, elapsed: 0.00030112266540527344
ell 36, elapsed: 0.0002918243408203125
ell 35, elapsed: 0.0003039836883544922
ell 34, elapsed: 0.0002899169921875
ell 33, elapsed: 0.0002892017364501953
ell 32, elapsed: 0.0002989768981933594
ell 31, elapsed: 0.00029015541076660156
ell 30, elapsed: 0.00034999847412109375
ell 29, elapsed: 0.0002930164337158203
ell 28, elapsed: 0.0002970695495605469
ell 27, elapsed: 0.0003008842468261719
ell 26, elapsed: 0.00029397010803222656
ell 25, elapsed: 0.0003001689910888672
ell 24, elapsed: 0.00029206275939941406
ell 23, elapsed: 0.00029015541076660156
ell 22, elapsed: 0.0002980232238769531
ell 21, elapsed: 0.0002880096435546875
ell 20, elapsed: 0.00031185150146484375
ell 19, elapsed: 0.0002880096435546875
ell 18, elapsed: 0.00030303001403808594
ell 17, elapsed: 0.00032901763916015625
ell 16, elapsed: 0.00028705596923828125
ell 15, elapsed: 0.0002999305725097656
ell 14, elapsed: 0.00029206275939941406
ell 13, elapsed: 0.00029397010803222656
ell 12, elapsed: 0.00028896331787109375
ell 11, elapsed: 0.00028514862060546875
ell 10, elapsed: 0.0002980232238769531
ell 9, elapsed: 0.00028705596923828125
ell 8, elapsed: 0.00029587745666503906
ell 7, elapsed: 0.0002830028533935547
ell 6, elapsed: 0.0002980232238769531
ell 5, elapsed: 0.00033211708068847656
ell 4, elapsed: 0.0002980232238769531
ell 3, elapsed: 0.0003139972686767578
ell 2, elapsed: 0.00029015541076660156
ell 1, elapsed: 0.0002911090850830078
ell 0, elapsed: 0.00030303001403808594
  0.094374 seconds (11.54 k allocations: 720.062 KiB)
elapsed: 0.0003490447998046875
step:          0.046664 sec (0 allocations: 0 byte, 0.0% gc time)
swapping:      0.000393 sec (0 allocations: 0 byte, 0.0% gc time)
calc_Mellell!: 0.000744 sec (0 allocations: 0 byte, 0.0% gc time)
  t0 :  0.000245 sec (0 allocations: 0 byte, 0.0% gc time)
  tm2 : 0.00961 sec (0 allocations: 0 byte, 0.0% gc time)
  tm2s: 0.000184 sec (0 allocations: 0 byte, 0.0% gc time)
  tm4 : 0.022686 sec (0 allocations: 0 byte, 0.0% gc time)
  tp2 : 0.0 sec (0 allocations: 0 byte, 0.0% gc time)
  tp2s: 0.0 sec (0 allocations: 0 byte, 0.0% gc time)
  tp4 : 0.0 sec (0 allocations: 0 byte, 0.0% gc time)
calc_wtdll!:   0.033057 sec (1.344 k allocations: 147.0 KB, 0.0% gc time)
calc_wljj!:    0.002339 sec (6 allocations: 96 byte, 0.0% gc time)
mult_prefac!:  0.0 sec (0 allocations: 0 byte, 0.0% gc time)
convert:       0.0 sec (0 allocations: 0 byte, 0.0% gc time)
write:         0.003293 sec (0 allocations: 0 byte, 0.0% gc time)
test_rand_2f1: 0.0 sec (0 allocations: 0 byte, 0.0% gc time)
Closing outfile out/Ml21-cache.bin...   0.000009 seconds
  0.000212 seconds (34 allocations: 27.906 KiB)
make_phi():   0.001846 seconds (8.18 k allocations: 237.766 KiB)
  0.011793 seconds (11.65 k allocations: 308.688 KiB)
tskip:       1.4e-5 sec (0 allocations: 0 byte, 0.0% gc time)
tread:       0.00208 sec (17 allocations: 2.125 KB, 0.0% gc time)
tmultphi:    0.000772 sec (0 allocations: 0 byte, 0.0% gc time)
tbrfft:      0.003017 sec (0 allocations: 0 byte, 0.0% gc time)
tmultprefac: 0.001618 sec (0 allocations: 0 byte, 0.0% gc time)
toutfunc:    0.004112 sec (10.304 k allocations: 196.0 KB, 0.0% gc time)
Testing R=0.9 ... passed
Calculating fmax: 
  dlrec    = 4
  dlrecRg1 = -4
  q=1.1, R=0.8:	  0.178856 seconds (103.21 k allocations: 14.840 MiB)

  0.179031 seconds (103.26 k allocations: 14.874 MiB)
ℓ = 1202
Δℓ = 4
ΔℓRg1 = -4
N = 1600
q = 1.1
kmin = 1.0e-5
kmax = 100000.00000000004
χ0 = 0.023029999999999995
RR = RR.tsv
ℓmax = ℓmax.bin
f21 = f21.bin
kmin = 1.0e-5
kmax = 100000.0
dlrec    = 4
dlrecRg1 = -4
Output size: 5741568 bytes = 0.005347251892089844 GiB
Output size: 51264 bytes = 4.774332046508789e-5 GiB
Reading 'out/F21EllCache'...   0.019015 seconds (237 allocations: 85.453 KiB, 92.73% gc time)
ellmax: 1202
lmaxcache: 1202
fell[:,1,1] = Complex{Float64}[7.519068145690986e-120 - 1.8416405474382574e-135im, 7.541664537386155e-120 - 1.847175067190611e-135im]
ell 1202, elapsed: 1.3113021850585938e-5
ell 1201, elapsed: 0.0003600120544433594
ell 1200, elapsed: 0.00027298927307128906
ell 1199, elapsed: 0.00027298927307128906
ell 1198, elapsed: 0.00027108192443847656
ell 1002, elapsed: 0.008131027221679688
ell 1001, elapsed: 0.00026607513427734375
ell 1000, elapsed: 0.00025391578674316406
ell 999, elapsed: 0.0002548694610595703
ell 998, elapsed: 0.00025582313537597656
ell 902, elapsed: 0.004127979278564453
ell 901, elapsed: 0.00026702880859375
ell 900, elapsed: 0.00025200843811035156
ell 899, elapsed: 0.00025010108947753906
ell 898, elapsed: 0.0002510547637939453
ell 802, elapsed: 0.004107952117919922
ell 801, elapsed: 0.0004398822784423828
ell 800, elapsed: 0.0002560615539550781
ell 799, elapsed: 0.0002498626708984375
ell 798, elapsed: 0.0002510547637939453
ell 702, elapsed: 0.005134105682373047
ell 701, elapsed: 0.0002589225769042969
ell 700, elapsed: 0.00025916099548339844
ell 699, elapsed: 0.0002529621124267578
ell 698, elapsed: 0.00025391578674316406
ell 602, elapsed: 0.0041010379791259766
ell 601, elapsed: 0.00025916099548339844
ell 600, elapsed: 0.0003161430358886719
ell 599, elapsed: 0.0002529621124267578
ell 598, elapsed: 0.00024890899658203125
ell 502, elapsed: 0.004143953323364258
ell 501, elapsed: 0.0002589225769042969
ell 500, elapsed: 0.00024890899658203125
ell 499, elapsed: 0.0002460479736328125
ell 498, elapsed: 0.0002448558807373047
ell 402, elapsed: 0.004213809967041016
ell 401, elapsed: 0.00026106834411621094
ell 400, elapsed: 0.0002601146697998047
ell 399, elapsed: 0.0002570152282714844
ell 398, elapsed: 0.0002579689025878906
ell 302, elapsed: 0.004210948944091797
ell 301, elapsed: 0.00026297569274902344
ell 300, elapsed: 0.0002951622009277344
ell 299, elapsed: 0.0002529621124267578
ell 298, elapsed: 0.0002529621124267578
ell 202, elapsed: 0.004232168197631836
ell 201, elapsed: 0.00026297569274902344
ell 200, elapsed: 0.0002560615539550781
ell 199, elapsed: 0.0002560615539550781
ell 198, elapsed: 0.0002548694610595703
ell 152, elapsed: 0.0021979808807373047
ell 151, elapsed: 0.0002589225769042969
ell 150, elapsed: 0.0002570152282714844
ell 149, elapsed: 0.0002560615539550781
ell 148, elapsed: 0.0002570152282714844
ell 127, elapsed: 0.0011119842529296875
ell 126, elapsed: 0.00025391578674316406
ell 125, elapsed: 0.00025391578674316406
ell 124, elapsed: 0.0002551078796386719
ell 123, elapsed: 0.00025200843811035156
ell 114, elapsed: 0.0006711483001708984
ell 113, elapsed: 0.0002491474151611328
ell 112, elapsed: 0.0002460479736328125
ell 111, elapsed: 0.00024390220642089844
ell 110, elapsed: 0.00024700164794921875
ell 102, elapsed: 0.0005750656127929688
ell 101, elapsed: 0.00025200843811035156
ell 100, elapsed: 0.0002579689025878906
ell 99, elapsed: 0.00025391578674316406
ell 98, elapsed: 0.0002460479736328125
ell 97, elapsed: 0.00030803680419921875
ell 96, elapsed: 0.0003001689910888672
ell 95, elapsed: 0.0003609657287597656
ell 94, elapsed: 0.0002868175506591797
ell 93, elapsed: 0.0003039836883544922
ell 92, elapsed: 0.0003008842468261719
ell 91, elapsed: 0.0003070831298828125
ell 90, elapsed: 0.00030303001403808594
ell 89, elapsed: 0.00029206275939941406
ell 88, elapsed: 0.0002970695495605469
ell 87, elapsed: 0.0002961158752441406
ell 86, elapsed: 0.0003020763397216797
ell 85, elapsed: 0.00029015541076660156
ell 84, elapsed: 0.00028896331787109375
ell 83, elapsed: 0.0002911090850830078
ell 82, elapsed: 0.00033211708068847656
ell 81, elapsed: 0.0003077983856201172
ell 80, elapsed: 0.0002999305725097656
ell 79, elapsed: 0.0002930164337158203
ell 78, elapsed: 0.0002989768981933594
ell 77, elapsed: 0.00029087066650390625
ell 76, elapsed: 0.0002999305725097656
ell 75, elapsed: 0.00029206275939941406
ell 74, elapsed: 0.0002899169921875
ell 73, elapsed: 0.0002930164337158203
ell 72, elapsed: 0.000286102294921875
ell 71, elapsed: 0.0002951622009277344
ell 70, elapsed: 0.0003371238708496094
ell 69, elapsed: 0.0002970695495605469
ell 68, elapsed: 0.00030803680419921875
ell 67, elapsed: 0.00029397010803222656
ell 66, elapsed: 0.0003018379211425781
ell 65, elapsed: 0.0002980232238769531
ell 64, elapsed: 0.0003020763397216797
ell 63, elapsed: 0.00030493736267089844
ell 62, elapsed: 0.0002980232238769531
ell 61, elapsed: 0.00030493736267089844
ell 60, elapsed: 0.0002961158752441406
ell 59, elapsed: 0.0002970695495605469
ell 58, elapsed: 0.00030303001403808594
ell 57, elapsed: 0.00042510032653808594
ell 56, elapsed: 0.0003020763397216797
ell 55, elapsed: 0.00028395652770996094
[...]
ell 781, elapsed: 0.0007619857788085938
ell 780, elapsed: 0.0005362033843994141
ell 779, elapsed: 0.0005340576171875
ell 778, elapsed: 0.0005350112915039062
ell 772, elapsed: 0.0010170936584472656
ell 771, elapsed: 0.0004799365997314453
ell 770, elapsed: 0.0004868507385253906
ell 769, elapsed: 0.00047588348388671875
ell 768, elapsed: 0.0004870891571044922
ell 762, elapsed: 0.0008940696716308594
ell 761, elapsed: 0.0004699230194091797
ell 760, elapsed: 0.0005660057067871094
ell 759, elapsed: 0.0005209445953369141
ell 758, elapsed: 0.0005300045013427734
ell 752, elapsed: 0.0009899139404296875
ell 751, elapsed: 0.0005180835723876953
ell 750, elapsed: 0.0005350112915039062
ell 749, elapsed: 0.000537872314453125
ell 748, elapsed: 0.0004858970642089844
ell 742, elapsed: 0.0009238719940185547
ell 741, elapsed: 0.00047397613525390625
ell 740, elapsed: 0.0004889965057373047
ell 739, elapsed: 0.00047397613525390625
ell 738, elapsed: 0.0004839897155761719
ell 732, elapsed: 0.0010120868682861328
ell 731, elapsed: 0.0005400180816650391
ell 730, elapsed: 0.0005369186401367188
ell 729, elapsed: 0.0005178451538085938
ell 728, elapsed: 0.0005400180816650391
ell 722, elapsed: 0.000982046127319336
ell 721, elapsed: 0.000614166259765625
ell 720, elapsed: 0.0005309581756591797
ell 719, elapsed: 0.0005218982696533203
ell 718, elapsed: 0.0004980564117431641
ell 712, elapsed: 0.0009069442749023438
ell 711, elapsed: 0.00046706199645996094
ell 710, elapsed: 0.00048089027404785156
ell 709, elapsed: 0.0004730224609375
ell 708, elapsed: 0.00047779083251953125
ell 702, elapsed: 0.0008809566497802734
ell 701, elapsed: 0.00046515464782714844
ell 700, elapsed: 0.0004780292510986328
ell 699, elapsed: 0.0004680156707763672
ell 698, elapsed: 0.00047278404235839844
ell 692, elapsed: 0.0010368824005126953
ell 691, elapsed: 0.0005071163177490234
ell 690, elapsed: 0.0005199909210205078
ell 689, elapsed: 0.0005140304565429688
ell 688, elapsed: 0.0005230903625488281
ell 682, elapsed: 0.0009810924530029297
ell 681, elapsed: 0.0005049705505371094
ell 680, elapsed: 0.0005359649658203125
ell 679, elapsed: 0.0005199909210205078
ell 678, elapsed: 0.0005409717559814453
ell 672, elapsed: 0.0009748935699462891
ell 671, elapsed: 0.0005211830139160156
ell 670, elapsed: 0.0006129741668701172
ell 669, elapsed: 0.000537872314453125
ell 668, elapsed: 0.0005478858947753906
ell 662, elapsed: 0.00102996826171875
ell 661, elapsed: 0.0005321502685546875
ell 660, elapsed: 0.0005540847778320312
ell 659, elapsed: 0.0005869865417480469
ell 658, elapsed: 0.0005681514739990234
ell 652, elapsed: 0.001016855239868164
ell 651, elapsed: 0.0005488395690917969
ell 650, elapsed: 0.0005640983581542969
ell 649, elapsed: 0.0005550384521484375
ell 648, elapsed: 0.000576019287109375
ell 642, elapsed: 0.0008499622344970703
ell 641, elapsed: 0.0004589557647705078
ell 640, elapsed: 0.0005068778991699219
ell 639, elapsed: 0.0005159378051757812
ell 638, elapsed: 0.0005228519439697266
ell 632, elapsed: 0.0009951591491699219
ell 631, elapsed: 0.0005259513854980469
ell 630, elapsed: 0.0005309581756591797
ell 629, elapsed: 0.0005228519439697266
ell 628, elapsed: 0.0005350112915039062
ell 622, elapsed: 0.0009789466857910156
ell 621, elapsed: 0.0005180835723876953
ell 620, elapsed: 0.0005409717559814453
ell 619, elapsed: 0.0004699230194091797
ell 618, elapsed: 0.00047707557678222656
ell 612, elapsed: 0.0008809566497802734
ell 611, elapsed: 0.0004699230194091797
ell 610, elapsed: 0.0004749298095703125
ell 609, elapsed: 0.000598907470703125
ell 608, elapsed: 0.0006740093231201172
ell 602, elapsed: 0.0013718605041503906
ell 601, elapsed: 0.0006120204925537109
ell 600, elapsed: 0.0006189346313476562
ell 599, elapsed: 0.0006670951843261719
ell 598, elapsed: 0.0005011558532714844
ell 592, elapsed: 0.0009429454803466797
ell 591, elapsed: 0.0004749298095703125
ell 590, elapsed: 0.0004878044128417969
ell 589, elapsed: 0.0004849433898925781
ell 588, elapsed: 0.0004889965057373047
ell 582, elapsed: 0.0010559558868408203
ell 581, elapsed: 0.0005390644073486328
ell 580, elapsed: 0.0005428791046142578
ell 579, elapsed: 0.0005500316619873047
ell 578, elapsed: 0.0005562305450439453
ell 572, elapsed: 0.0010581016540527344
ell 571, elapsed: 0.0005791187286376953
ell 570, elapsed: 0.0005369186401367188
ell 569, elapsed: 0.0005300045013427734
ell 568, elapsed: 0.0005350112915039062
ell 562, elapsed: 0.001055002212524414
ell 561, elapsed: 0.0005309581756591797
ell 560, elapsed: 0.0005910396575927734
ell 559, elapsed: 0.0005040168762207031
ell 558, elapsed: 0.0005028247833251953
ell 552, elapsed: 0.000946044921875
ell 551, elapsed: 0.0004718303680419922
ell 550, elapsed: 0.0004940032958984375
ell 549, elapsed: 0.0004858970642089844
ell 548, elapsed: 0.0005841255187988281
ell 542, elapsed: 0.0010330677032470703
ell 541, elapsed: 0.0005168914794921875
ell 540, elapsed: 0.0005259513854980469
ell 539, elapsed: 0.0005109310150146484
ell 538, elapsed: 0.0005021095275878906
ell 532, elapsed: 0.0009500980377197266
ell 531, elapsed: 0.0004830360412597656
ell 530, elapsed: 0.00049591064453125
ell 529, elapsed: 0.0004901885986328125
ell 528, elapsed: 0.0004930496215820312
ell 522, elapsed: 0.0009009838104248047
ell 521, elapsed: 0.0005388259887695312
ell 520, elapsed: 0.0005249977111816406
ell 519, elapsed: 0.0005140304565429688
ell 518, elapsed: 0.0005700588226318359
ell 512, elapsed: 0.0010259151458740234
ell 511, elapsed: 0.0005490779876708984
ell 510, elapsed: 0.0006589889526367188
ell 509, elapsed: 0.0005311965942382812
ell 508, elapsed: 0.0005381107330322266
ell 502, elapsed: 0.0010030269622802734
ell 501, elapsed: 0.0005381107330322266
ell 500, elapsed: 0.0005440711975097656
ell 499, elapsed: 0.0005490779876708984
ell 498, elapsed: 0.0005421638488769531
ell 492, elapsed: 0.0008990764617919922
ell 491, elapsed: 0.0004699230194091797
ell 490, elapsed: 0.0004858970642089844
ell 489, elapsed: 0.0004851818084716797
ell 488, elapsed: 0.00048613548278808594
ell 482, elapsed: 0.0009560585021972656
ell 481, elapsed: 0.0005218982696533203
ell 480, elapsed: 0.0005249977111816406
ell 479, elapsed: 0.0005140304565429688
ell 478, elapsed: 0.0005199909210205078
ell 472, elapsed: 0.0009400844573974609
ell 471, elapsed: 0.0005590915679931641
ell 470, elapsed: 0.0005400180816650391
ell 469, elapsed: 0.0005269050598144531
ell 468, elapsed: 0.0005311965942382812
ell 462, elapsed: 0.0009610652923583984
ell 461, elapsed: 0.0005130767822265625
ell 460, elapsed: 0.0005271434783935547
ell 459, elapsed: 0.0005500316619873047
ell 458, elapsed: 0.0005240440368652344
ell 452, elapsed: 0.0009679794311523438
ell 451, elapsed: 0.0005369186401367188
ell 450, elapsed: 0.0005500316619873047
ell 449, elapsed: 0.0005390644073486328
ell 448, elapsed: 0.0005898475646972656
ell 442, elapsed: 0.0009489059448242188
ell 441, elapsed: 0.0005180835723876953
ell 440, elapsed: 0.0005259513854980469
ell 439, elapsed: 0.0005781650543212891
ell 438, elapsed: 0.0006198883056640625
ell 432, elapsed: 0.0010821819305419922
ell 431, elapsed: 0.00047707557678222656
ell 430, elapsed: 0.00048089027404785156
ell 429, elapsed: 0.00046896934509277344
ell 428, elapsed: 0.00047898292541503906
ell 422, elapsed: 0.0008940696716308594
ell 421, elapsed: 0.0004711151123046875
ell 420, elapsed: 0.0005481243133544922
ell 419, elapsed: 0.0005478858947753906
ell 418, elapsed: 0.0005598068237304688
ell 412, elapsed: 0.0010180473327636719
ell 411, elapsed: 0.0005478858947753906
ell 410, elapsed: 0.0005438327789306641
ell 409, elapsed: 0.004146099090576172
ell 408, elapsed: 0.0006511211395263672
ell 402, elapsed: 0.0013990402221679688
ell 401, elapsed: 0.0006330013275146484
ell 400, elapsed: 0.0006399154663085938
ell 399, elapsed: 0.0013370513916015625
ell 398, elapsed: 0.0005409717559814453
ell 392, elapsed: 0.0010368824005126953
ell 391, elapsed: 0.0005350112915039062
ell 390, elapsed: 0.0005450248718261719
ell 389, elapsed: 0.0006139278411865234
ell 388, elapsed: 0.0006320476531982422
ell 382, elapsed: 0.0011029243469238281
ell 381, elapsed: 0.0005428791046142578
ell 380, elapsed: 0.0005590915679931641
ell 379, elapsed: 0.0005528926849365234
ell 378, elapsed: 0.0006630420684814453
ell 372, elapsed: 0.0013620853424072266
ell 371, elapsed: 0.0006270408630371094
ell 370, elapsed: 0.0006349086761474609
ell 369, elapsed: 0.0006899833679199219
ell 368, elapsed: 0.0006330013275146484
ell 362, elapsed: 0.0013480186462402344
ell 361, elapsed: 0.0006151199340820312
ell 360, elapsed: 0.0006279945373535156
ell 359, elapsed: 0.0006158351898193359
ell 358, elapsed: 0.0005698204040527344
ell 352, elapsed: 0.0010211467742919922
ell 351, elapsed: 0.000553131103515625
ell 350, elapsed: 0.0005660057067871094
ell 349, elapsed: 0.0005521774291992188
ell 348, elapsed: 0.0005831718444824219
ell 342, elapsed: 0.0009860992431640625
ell 341, elapsed: 0.0005109310150146484
ell 340, elapsed: 0.0005440711975097656
ell 339, elapsed: 0.0005388259887695312
ell 338, elapsed: 0.000537872314453125
ell 332, elapsed: 0.0010251998901367188
ell 331, elapsed: 0.0005230903625488281
ell 330, elapsed: 0.0005319118499755859
ell 329, elapsed: 0.0005300045013427734
ell 328, elapsed: 0.0005328655242919922
ell 322, elapsed: 0.0009908676147460938
ell 321, elapsed: 0.0005559921264648438
ell 320, elapsed: 0.0005791187286376953
ell 319, elapsed: 0.0006120204925537109
ell 318, elapsed: 0.0006279945373535156
ell 312, elapsed: 0.001402139663696289
ell 311, elapsed: 0.0006439685821533203
ell 310, elapsed: 0.0006401538848876953
ell 309, elapsed: 0.0006279945373535156
ell 308, elapsed: 0.0006299018859863281
ell 302, elapsed: 0.00133514404296875
ell 301, elapsed: 0.0006930828094482422
ell 300, elapsed: 0.0004980564117431641
ell 299, elapsed: 0.0004699230194091797
ell 298, elapsed: 0.0004839897155761719
ell 292, elapsed: 0.0011739730834960938
ell 291, elapsed: 0.0006048679351806641
ell 290, elapsed: 0.0006358623504638672
ell 289, elapsed: 0.0006160736083984375
ell 288, elapsed: 0.0006389617919921875
ell 282, elapsed: 0.001438140869140625
ell 281, elapsed: 0.0006339550018310547
ell 280, elapsed: 0.0006330013275146484
ell 279, elapsed: 0.0006458759307861328
ell 278, elapsed: 0.0006430149078369141
ell 272, elapsed: 0.0013971328735351562
ell 271, elapsed: 0.0006639957427978516
ell 270, elapsed: 0.0006380081176757812
ell 269, elapsed: 0.0006258487701416016
ell 268, elapsed: 0.0006361007690429688
ell 262, elapsed: 0.0013489723205566406
ell 261, elapsed: 0.0005738735198974609
ell 260, elapsed: 0.0005590915679931641
ell 259, elapsed: 0.0005490779876708984
ell 258, elapsed: 0.0005500316619873047
ell 252, elapsed: 0.0010211467742919922
ell 251, elapsed: 0.0005419254302978516
ell 250, elapsed: 0.0005981922149658203
ell 249, elapsed: 0.0005300045013427734
ell 248, elapsed: 0.0005271434783935547
ell 242, elapsed: 0.0009620189666748047
ell 241, elapsed: 0.0005190372467041016
ell 240, elapsed: 0.0005228519439697266
ell 239, elapsed: 0.0005240440368652344
ell 238, elapsed: 0.0005750656127929688
ell 232, elapsed: 0.0009479522705078125
ell 231, elapsed: 0.0005190372467041016
ell 230, elapsed: 0.0005309581756591797
ell 229, elapsed: 0.0005180835723876953
ell 228, elapsed: 0.0005271434783935547
ell 222, elapsed: 0.0010340213775634766
ell 221, elapsed: 0.0005159378051757812
ell 220, elapsed: 0.0005640983581542969
ell 219, elapsed: 0.0005671977996826172
ell 218, elapsed: 0.0005629062652587891
ell 212, elapsed: 0.0010488033294677734
ell 211, elapsed: 0.0005600452423095703
ell 210, elapsed: 0.0005669593811035156
ell 209, elapsed: 0.0005619525909423828
ell 208, elapsed: 0.0005700588226318359
ell 202, elapsed: 0.0010340213775634766
ell 201, elapsed: 0.0005891323089599609
ell 200, elapsed: 0.0005428791046142578
ell 199, elapsed: 0.0005521774291992188
ell 198, elapsed: 0.0005428791046142578
ell 192, elapsed: 0.0009930133819580078
ell 191, elapsed: 0.0005421638488769531
ell 190, elapsed: 0.0005409717559814453
ell 189, elapsed: 0.0005650520324707031
ell 188, elapsed: 0.0005180835723876953
ell 182, elapsed: 0.0009419918060302734
ell 181, elapsed: 0.0005140304565429688
ell 180, elapsed: 0.0005540847778320312
ell 179, elapsed: 0.0005369186401367188
ell 178, elapsed: 0.0005958080291748047
ell 172, elapsed: 0.0013051033020019531
ell 171, elapsed: 0.0006229877471923828
ell 170, elapsed: 0.0006339550018310547
ell 169, elapsed: 0.0006330013275146484
ell 168, elapsed: 0.0006928443908691406
ell 162, elapsed: 0.00119781494140625
ell 161, elapsed: 0.0005400180816650391
ell 160, elapsed: 0.0005540847778320312
ell 159, elapsed: 0.0005481243133544922
ell 158, elapsed: 0.0005621910095214844
ell 152, elapsed: 0.0010409355163574219
ell 151, elapsed: 0.0005440711975097656
ell 150, elapsed: 0.00055694580078125
ell 149, elapsed: 0.0005390644073486328
ell 148, elapsed: 0.0005369186401367188
ell 142, elapsed: 0.0011570453643798828
ell 141, elapsed: 0.0006210803985595703
ell 140, elapsed: 0.0006320476531982422
ell 139, elapsed: 0.0005948543548583984
ell 138, elapsed: 0.000598907470703125
ell 132, elapsed: 0.0011889934539794922
ell 131, elapsed: 0.0005960464477539062
ell 130, elapsed: 0.0006048679351806641
ell 129, elapsed: 0.0005910396575927734
ell 128, elapsed: 0.0006000995635986328
ell 122, elapsed: 0.0012140274047851562
ell 121, elapsed: 0.0005469322204589844
ell 120, elapsed: 0.0005409717559814453
ell 119, elapsed: 0.0005471706390380859
ell 118, elapsed: 0.0005519390106201172
ell 112, elapsed: 0.001032114028930664
ell 111, elapsed: 0.0005948543548583984
ell 110, elapsed: 0.0005450248718261719
ell 109, elapsed: 0.0005311965942382812
ell 108, elapsed: 0.0005400180816650391
ell 102, elapsed: 0.000988006591796875
ell 101, elapsed: 0.0022399425506591797
ell 100, elapsed: 0.002223968505859375
ell 99, elapsed: 0.002229928970336914
ell 98, elapsed: 0.002229928970336914
ell 92, elapsed: 0.0041961669921875
ell 91, elapsed: 0.0022978782653808594
ell 90, elapsed: 0.002277851104736328
ell 89, elapsed: 0.002232074737548828
ell 88, elapsed: 0.0022749900817871094
ell 82, elapsed: 0.004397869110107422
ell 81, elapsed: 0.0022439956665039062
ell 80, elapsed: 0.002290010452270508
ell 79, elapsed: 0.002274036407470703
ell 78, elapsed: 0.0022499561309814453
ell 72, elapsed: 0.004381895065307617
ell 71, elapsed: 0.002293109893798828
ell 70, elapsed: 0.002237081527709961
ell 69, elapsed: 0.0022590160369873047
ell 68, elapsed: 0.0023229122161865234
ell 62, elapsed: 0.00446009635925293
ell 61, elapsed: 0.0022690296173095703
ell 60, elapsed: 0.0022859573364257812
ell 59, elapsed: 0.0022308826446533203
ell 58, elapsed: 0.002279996871948242
ell 52, elapsed: 0.004364967346191406
ell 51, elapsed: 0.0022749900817871094
ell 50, elapsed: 0.0022699832916259766
ell 49, elapsed: 0.002318143844604492
ell 48, elapsed: 0.0022330284118652344
ell 42, elapsed: 0.004375934600830078
ell 41, elapsed: 0.0022318363189697266
ell 40, elapsed: 0.0022859573364257812
ell 39, elapsed: 0.0022079944610595703
ell 38, elapsed: 0.002259969711303711
ell 32, elapsed: 0.004455089569091797
ell 31, elapsed: 0.002257823944091797
ell 30, elapsed: 0.00228118896484375
ell 29, elapsed: 0.002276182174682617
ell 28, elapsed: 0.002227783203125
ell 22, elapsed: 0.004464864730834961
ell 21, elapsed: 0.0022878646850585938
ell 20, elapsed: 0.002238035202026367
ell 19, elapsed: 0.0022919178009033203
ell 18, elapsed: 0.0022499561309814453
ell 12, elapsed: 0.004400968551635742
ell 11, elapsed: 0.0022449493408203125
ell 10, elapsed: 0.0022678375244140625
ell 9, elapsed: 0.0022339820861816406
ell 8, elapsed: 0.0022530555725097656
  0.531462 seconds (68.91 k allocations: 12.181 MiB, 1.90% gc time)
elapsed: 0.002785205841064453
step:          0.049391 sec (0 allocations: 0 byte, 0.0% gc time)
swapping:      0.000469 sec (0 allocations: 0 byte, 0.0% gc time)
calc_Mellell!: 0.027738 sec (0 allocations: 0 byte, 0.0% gc time)
  t0 :  0.007111 sec (0 allocations: 0 byte, 0.0% gc time)
  tm2 : 0.046248 sec (0 allocations: 0 byte, 0.0% gc time)
  tm2s: 0.006082 sec (0 allocations: 0 byte, 0.0% gc time)
  tm4 : 0.112464 sec (0 allocations: 0 byte, 0.0% gc time)
  tp2 : 0.0 sec (0 allocations: 0 byte, 0.0% gc time)
  tp2s: 0.0 sec (0 allocations: 0 byte, 0.0% gc time)
  tp4 : 0.0 sec (0 allocations: 0 byte, 0.0% gc time)
calc_wtdll!:   0.375443 sec (48.6 k allocations: 11.096 MB, 2.69% gc time)
calc_wljj!:    0.022294 sec (69 allocations: 1.078 KB, 0.0% gc time)
mult_prefac!:  0.0 sec (0 allocations: 0 byte, 0.0% gc time)
convert:       0.0 sec (0 allocations: 0 byte, 0.0% gc time)
write:         0.027701 sec (0 allocations: 0 byte, 0.0% gc time)
test_rand_2f1: 0.0 sec (0 allocations: 0 byte, 0.0% gc time)
Closing outfile out/MlCache/MlCache.bin...   0.000009 seconds
xi, l=0, nu=0:   0.388007 seconds (543.88 k allocations: 27.030 MiB)
xi, l=0, nu=-2:  0.001161 seconds (108 allocations: 148.812 KiB)
Created 'out/xi.tsv'.
  q=1.1, R=0.6:	  0.399287 seconds (264.62 k allocations: 38.115 MiB, 4.74% gc time)
  q=1.1, R=0.7:	  0.421806 seconds (276.38 k allocations: 40.105 MiB, 3.12% gc time)
  q=1.1, R=0.8:	  0.427608 seconds (271.87 k allocations: 39.334 MiB, 2.22% gc time)
  q=1.1, R=0.9:	  0.510476 seconds (266.68 k allocations: 38.464 MiB, 1.13% gc time)
  q=1.1, R=0.998:	 15.519024 seconds (114.96 k allocations: 7.588 MiB)
  q=1.1, R=1.0:	  0.002486 seconds (8.20 k allocations: 704.344 KiB)

ℓ = 1000
Δℓ = 4
ΔℓRg1 = -4
N = 4096
q = 1.1
kmin = 1.0e-5
kmax = 1000.0
χ0 = 0.001
RR = RR.tsv
ℓmax = ℓmax.bin
f21 = f21.bin
kmin = 1.0e-5
kmax = 1000.0
dlrec    = 4
dlrecRg1 = -4
Output size: 1573632 bytes = 0.0014655590057373047 GiB
Output size: 786816 bytes = 0.0007327795028686523 GiB
Reading 'out/F21EllCache'...   0.001082 seconds (238 allocations: 534.328 KiB)
ellmax: 1002
lmaxcache: 1000
fell[:,1,1] = Complex{Float64}[1.7262928128202118e-224 - 4.2281979352226944e-240im, 1.7282693092099662e-224 - 4.233038955177176e-240im]
ell 1002, elapsed: 2.09808349609375e-5
ell 1001, elapsed: 0.00042700767517089844
ell 1000, elapsed: 0.00040793418884277344
ell 999, elapsed: 0.003671884536743164
ell 998, elapsed: 0.003676891326904297
ell 44, elapsed: 0.6207888126373291
ell 43, elapsed: 0.0038619041442871094
ell 42, elapsed: 0.003922939300537109
ell 41, elapsed: 0.003942012786865234
ell 40, elapsed: 0.0038700103759765625
  0.649467 seconds (4.60 k allocations: 322.344 KiB)
elapsed: 0.004766941070556641
step:          0.610036 sec (0 allocations: 0 byte, 0.0% gc time)
swapping:      0.000449 sec (0 allocations: 0 byte, 0.0% gc time)
calc_Mellell!: 0.000653 sec (0 allocations: 0 byte, 0.0% gc time)
  t0 :  0.000227 sec (0 allocations: 0 byte, 0.0% gc time)
  tm2 : 0.007182 sec (0 allocations: 0 byte, 0.0% gc time)
  tm2s: 0.000195 sec (0 allocations: 0 byte, 0.0% gc time)
  tm4 : 0.017549 sec (0 allocations: 0 byte, 0.0% gc time)
  tp2 : 0.0 sec (0 allocations: 0 byte, 0.0% gc time)
  tp2s: 0.0 sec (0 allocations: 0 byte, 0.0% gc time)
  tp4 : 0.0 sec (0 allocations: 0 byte, 0.0% gc time)
calc_wtdll!:   0.025276 sec (480 allocations: 52.5 KB, 0.0% gc time)
calc_wljj!:    0.000718 sec (1 allocations: 16 byte, 0.0% gc time)
mult_prefac!:  0.0 sec (0 allocations: 0 byte, 0.0% gc time)
convert:       0.0 sec (0 allocations: 0 byte, 0.0% gc time)
write:         0.000743 sec (0 allocations: 0 byte, 0.0% gc time)
test_rand_2f1: 0.0 sec (0 allocations: 0 byte, 0.0% gc time)
Closing outfile out/MlCache/MlCache.bin...   0.000010 seconds
  0.370204 seconds (36 allocations: 66.812 KiB)
make_phi():   0.005486 seconds (62 allocations: 275.906 KiB)
  0.037163 seconds (11.55 k allocations: 634.389 KiB)
tskip:       0.0 sec (0 allocations: 0 byte, 0.0% gc time)
tread:       0.0006 sec (17 allocations: 1.266 KB, 0.0% gc time)
tmultphi:    0.000215 sec (0 allocations: 0 byte, 0.0% gc time)
tbrfft:      0.000986 sec (0 allocations: 0 byte, 0.0% gc time)
tmultprefac: 0.000445 sec (0 allocations: 0 byte, 0.0% gc time)
toutfunc:    9.1e-5 sec (0 allocations: 0 byte, 0.0% gc time)
Created 'out/wl42_jj00.tsv'.
Created 'out/wl42_jj02.tsv'.
    Testing TwoFAST tests passed 
Finished at 2020-10-25T23:06:16.823
