Julia Version 1.6.0-DEV.988
Commit fafc0a4ee3* (2020-09-19 22:55 UTC)
Platform Info:
  OS: Linux (x86_64-pc-linux-gnu)
  CPU: Intel(R) Xeon(R) Silver 4114 CPU @ 2.20GHz
  WORD_SIZE: 64
  LIBM: libopenlibm
  LLVM: libLLVM-9.0.1 (ORCJIT, skylake-avx512)
Environment:
  JULIA_DEPOT_PATH = ::/usr/local/share/julia
  JULIA_NUM_THREADS = 2

  Resolving package versions...
  Installed FFTW_jll ───────────────────── v3.3.9+5
  Installed Readables ──────────────────── v0.3.3
  Installed AbstractFFTs ───────────────── v0.5.0
  Installed GenericSVD ─────────────────── v0.3.0
  Installed FFTW ───────────────────────── v1.2.4
  Installed GenericSchur ───────────────── v0.4.0
  Installed ArbNumerics ────────────────── v1.2.1
  Installed CompilerSupportLibraries_jll ─ v0.3.3+0
  Installed SpecialFunctions ───────────── v0.10.3
  Installed MKL_jll ────────────────────── v2020.2.254+0
  Installed BinaryProvider ─────────────── v0.5.10
  Installed Reexport ───────────────────── v0.2.0
  Installed TwoFAST ────────────────────── v0.1.3
  Installed OpenSpecFun_jll ────────────── v0.5.3+3
  Installed IntelOpenMP_jll ────────────── v2018.0.3+0
Updating `~/.julia/environments/v1.6/Project.toml`
  [0dd23c3e] + TwoFAST v0.1.3
Updating `~/.julia/environments/v1.6/Manifest.toml`
  [621f4979] + AbstractFFTs v0.5.0
  [7e558dbc] + ArbNumerics v1.2.1
  [b99e7846] + BinaryProvider v0.5.10
  [e66e0078] + CompilerSupportLibraries_jll v0.3.3+0
  [7a1cc6ca] + FFTW v1.2.4
  [f5851436] + FFTW_jll v3.3.9+5
  [01680d73] + GenericSVD v0.3.0
  [c145ed77] + GenericSchur v0.4.0
  [1d5cc7b8] + IntelOpenMP_jll v2018.0.3+0
  [856f044c] + MKL_jll v2020.2.254+0
  [efe28fd5] + OpenSpecFun_jll v0.5.3+3
  [0d4725de] + Readables v0.3.3
  [189a3867] + Reexport v0.2.0
  [276daf66] + SpecialFunctions v0.10.3
  [0dd23c3e] + TwoFAST v0.1.3
  [56f22d72] + Artifacts
  [2a0f44e3] + Base64
  [ade2ca70] + Dates
  [8bb1440f] + DelimitedFiles
  [8ba89e20] + Distributed
  [b77e0a4c] + InteractiveUtils
  [76f85450] + LibGit2
  [8f399da3] + Libdl
  [37e2e46d] + LinearAlgebra
  [56ddb016] + Logging
  [d6f4376e] + Markdown
  [a63ad114] + Mmap
  [44cfe95a] + Pkg
  [de0858da] + Printf
  [3fa0cd96] + REPL
  [9a3f8284] + Random
  [ea8e919c] + SHA
  [9e88b42a] + Serialization
  [6462fe0b] + Sockets
  [fa267f1f] + TOML
  [8dfed614] + Test
  [cf7118a7] + UUIDs
  [4ec0a83e] + Unicode
   Building FFTW ───────→ `~/.julia/packages/FFTW/DMUbN/deps/build.log`
   Building ArbNumerics → `~/.julia/packages/ArbNumerics/joGFm/deps/build.log`
    Testing TwoFAST
Status `/tmp/jl_Z6m2s2/Project.toml`
  [7e558dbc] ArbNumerics v1.2.1
  [39dd38d3] Dierckx v0.5.0
  [7a1cc6ca] FFTW v1.2.4
  [276daf66] SpecialFunctions v0.10.3
  [0dd23c3e] TwoFAST v0.1.3
  [8bb1440f] DelimitedFiles
  [37e2e46d] LinearAlgebra
  [56ddb016] Logging
  [8dfed614] Test
Status `/tmp/jl_Z6m2s2/Manifest.toml`
  [621f4979] AbstractFFTs v0.5.0
  [7e558dbc] ArbNumerics v1.2.1
  [b99e7846] BinaryProvider v0.5.10
  [e66e0078] CompilerSupportLibraries_jll v0.3.3+0
  [39dd38d3] Dierckx v0.5.0
  [cd4c43a9] Dierckx_jll v0.0.1+0
  [7a1cc6ca] FFTW v1.2.4
  [f5851436] FFTW_jll v3.3.9+5
  [01680d73] GenericSVD v0.3.0
  [c145ed77] GenericSchur v0.4.0
  [1d5cc7b8] IntelOpenMP_jll v2018.0.3+0
  [856f044c] MKL_jll v2020.2.254+0
  [efe28fd5] OpenSpecFun_jll v0.5.3+3
  [0d4725de] Readables v0.3.3
  [189a3867] Reexport v0.2.0
  [276daf66] SpecialFunctions v0.10.3
  [0dd23c3e] TwoFAST v0.1.3
  [56f22d72] Artifacts
  [2a0f44e3] Base64
  [ade2ca70] Dates
  [8bb1440f] DelimitedFiles
  [8ba89e20] Distributed
  [b77e0a4c] InteractiveUtils
  [76f85450] LibGit2
  [8f399da3] Libdl
  [37e2e46d] LinearAlgebra
  [56ddb016] Logging
  [d6f4376e] Markdown
  [a63ad114] Mmap
  [44cfe95a] Pkg
  [de0858da] Printf
  [3fa0cd96] REPL
  [9a3f8284] Random
  [ea8e919c] SHA
  [9e88b42a] Serialization
  [6462fe0b] Sockets
  [fa267f1f] TOML
  [8dfed614] Test
  [cf7118a7] UUIDs
  [4ec0a83e] Unicode
    Testing Running tests...
WARNING: could not import Printf.ini_hex into ArbNumerics
WARNING: could not import Printf.ini_HEX into ArbNumerics
t = 0.0 sec (0 allocations: 0 byte, 0.0% gc time)
typeof(t) = NamedTuple{(:value, :time, :bytes, :gctime, :gcstats), Tuple{DataType, Float64, Int64, Float64, Base.GC_Diff}}
TwoFAST.PerformanceStats.TimedType = Union{NamedTuple{(:value, :time, :bytes, :gctime, :gcstats), Tuple{T, Float64, Int64, Float64, Base.GC_Diff}}, Tuple{Any, Float64, Int64, Float64, Base.GC_Diff}} where T
t = 0.0 sec (0 allocations: 0 byte, 0.0% gc time)
t: 0.0 sec (0 allocations: 0 byte, 0.0% gc time)
Testing ξ(r), ℓ=0, ν=-1 ... passed
Testing ξ(r), ℓ=0, ν=0 ... passed
Testing ξ(r), ℓ=0, ν=1 ... passed
Testing ξ(r), ℓ=0, ν=2 ... passed
Testing ξ(r), ℓ=0, ν=3 ... passed
Testing ξ(r), ℓ=1, ν=0 ... passed
Testing ξ(r), ℓ=1, ν=1 ... passed
Testing ξ(r), ℓ=1, ν=2 ... passed
Testing ξ(r), ℓ=1, ν=3 ... passed
Testing ξ(r), ℓ=2, ν=-1 ... passed
Testing ξ(r), ℓ=2, ν=0 ... passed
Testing ξ(r), ℓ=2, ν=1 ... passed
Testing ξ(r), ℓ=2, ν=2 ... passed
Testing ξ(r), ℓ=2, ν=3 ... passed
Testing ξ(r), ℓ=3, ν=-1 ... passed
Testing ξ(r), ℓ=3, ν=0 ... passed
Testing ξ(r), ℓ=3, ν=1 ... passed
Testing ξ(r), ℓ=3, ν=2 ... passed
Testing ξ(r), ℓ=3, ν=3 ... passed
Testing ξ(r), ℓ=4, ν=-1 ... passed
Testing ξ(r), ℓ=4, ν=0 ... passed
Testing ξ(r), ℓ=4, ν=1 ... passed
Testing ξ(r), ℓ=4, ν=2 ... passed
Testing ξ(r), ℓ=4, ν=3 ... passed
Testing ξ(r) ... passed
Testing ξ′(r) ... passed
Testing ξ″(r) ... passed
Calculating fmax: 
  dlrec    = 4
  dlrecRg1 = -4
  q=1.1, R=1.1:	  4.083522 seconds (839.32 k allocations: 53.574 MiB, 1.55% gc time)

  4.098785 seconds (852.00 k allocations: 54.364 MiB, 1.54% gc time)
ℓ = 1202
Δℓ = 4
ΔℓRg1 = -4
N = 1600
q = 1.1
kmin = 1.0e-5
kmax = 100000.00000000004
χ0 = 0.023029999999999995
RR = RR.tsv
ℓmax = ℓmax.bin
f21 = f21.bin
kmin = 1.0e-5
kmax = 100000.0
dlrec    = 4
dlrecRg1 = -4
Output size: 5741568 bytes = 0.005347251892089844 GiB
Output size: 51264 bytes = 4.774332046508789e-5 GiB
Reading 'out/F21EllCache'...   0.678269 seconds (396.02 k allocations: 23.261 MiB, 3.19% gc time)
ellmax: 1202
lmaxcache: 1202
fell[:,1,1] = ComplexF64[3.9583795592771634e-52 - 9.695233714158177e-68im, 3.990121772925759e-52 - 9.772979714843386e-68im]
ell 1202, elapsed: 3.504753112792969e-5
ell 1201, elapsed: 1.161919116973877
ell 1200, elapsed: 0.0008859634399414062
ell 1199, elapsed: 0.0007281303405761719
ell 1198, elapsed: 0.0007009506225585938
ell 1002, elapsed: 0.012256860733032227
ell 1001, elapsed: 0.0006539821624755859
ell 1000, elapsed: 0.0005879402160644531
ell 999, elapsed: 0.0005838871002197266
ell 998, elapsed: 0.0005919933319091797
ell 902, elapsed: 0.005388975143432617
ell 901, elapsed: 0.0007519721984863281
ell 900, elapsed: 0.0006740093231201172
ell 899, elapsed: 0.0005359649658203125
ell 898, elapsed: 0.0004911422729492188
ell 802, elapsed: 0.004951000213623047
ell 801, elapsed: 0.0005860328674316406
ell 800, elapsed: 0.0005970001220703125
ell 799, elapsed: 0.0005979537963867188
ell 798, elapsed: 0.0005898475646972656
ell 702, elapsed: 0.005318164825439453
ell 701, elapsed: 0.0005888938903808594
ell 700, elapsed: 0.0005910396575927734
ell 699, elapsed: 0.00067901611328125
ell 698, elapsed: 0.0006041526794433594
ell 602, elapsed: 0.005594968795776367
ell 601, elapsed: 0.0005850791931152344
ell 600, elapsed: 0.0005948543548583984
ell 599, elapsed: 0.0006029605865478516
ell 598, elapsed: 0.0005919933319091797
ell 502, elapsed: 0.005042076110839844
ell 501, elapsed: 0.0005640983581542969
ell 500, elapsed: 0.0005540847778320312
ell 499, elapsed: 0.00049591064453125
ell 498, elapsed: 0.0005049705505371094
ell 402, elapsed: 0.0048580169677734375
ell 401, elapsed: 0.0005240440368652344
ell 400, elapsed: 0.0005059242248535156
ell 399, elapsed: 0.00045800209045410156
ell 398, elapsed: 0.00045800209045410156
ell 302, elapsed: 0.0047359466552734375
ell 301, elapsed: 0.0005259513854980469
ell 300, elapsed: 0.0004930496215820312
ell 299, elapsed: 0.0004379749298095703
ell 298, elapsed: 0.0004439353942871094
ell 202, elapsed: 0.004908084869384766
ell 201, elapsed: 0.0005369186401367188
ell 200, elapsed: 0.0005061626434326172
ell 199, elapsed: 0.0005030632019042969
ell 198, elapsed: 0.00046515464782714844
ell 152, elapsed: 0.002624034881591797
ell 151, elapsed: 0.0004620552062988281
ell 150, elapsed: 0.0004608631134033203
ell 149, elapsed: 0.0004608631134033203
ell 148, elapsed: 0.0004630088806152344
ell 127, elapsed: 0.001483917236328125
ell 126, elapsed: 0.0005450248718261719
ell 125, elapsed: 0.002953052520751953
ell 124, elapsed: 0.0005090236663818359
ell 123, elapsed: 0.0004961490631103516
ell 114, elapsed: 0.0009369850158691406
ell 113, elapsed: 0.0005071163177490234
ell 112, elapsed: 0.0004971027374267578
ell 111, elapsed: 0.0005040168762207031
ell 110, elapsed: 0.0004978179931640625
ell 102, elapsed: 0.0008740425109863281
ell 101, elapsed: 0.0005037784576416016
ell 100, elapsed: 0.0004949569702148438
ell 99, elapsed: 0.0005071163177490234
ell 98, elapsed: 0.0004949569702148438
ell 97, elapsed: 0.0005540847778320312
ell 96, elapsed: 0.0005688667297363281
ell 95, elapsed: 0.0005669593811035156
ell 94, elapsed: 0.0005500316619873047
ell 93, elapsed: 0.0006039142608642578
ell 92, elapsed: 0.0005648136138916016
ell 91, elapsed: 0.0005500316619873047
ell 90, elapsed: 0.0005428791046142578
ell 89, elapsed: 0.0005559921264648438
ell 88, elapsed: 0.0006451606750488281
ell 87, elapsed: 0.0005459785461425781
ell 86, elapsed: 0.0005497932434082031
ell 85, elapsed: 0.0005478858947753906
ell 84, elapsed: 0.0006129741668701172
ell 83, elapsed: 0.00061798095703125
ell 82, elapsed: 0.0006029605865478516
ell 81, elapsed: 0.0005590915679931641
ell 80, elapsed: 0.0005500316619873047
ell 79, elapsed: 0.0005500316619873047
ell 78, elapsed: 0.0005500316619873047
ell 77, elapsed: 0.00055694580078125
ell 76, elapsed: 0.0005500316619873047
ell 75, elapsed: 0.0005590915679931641
ell 74, elapsed: 0.0006208419799804688
ell 73, elapsed: 0.0006220340728759766
ell 72, elapsed: 0.0006270408630371094
ell 71, elapsed: 0.0006117820739746094
ell 70, elapsed: 0.0006129741668701172
ell 69, elapsed: 0.0006048679351806641
ell 68, elapsed: 0.0005528926849365234
ell 67, elapsed: 0.0005681514739990234
ell 66, elapsed: 0.0005800724029541016
ell 65, elapsed: 0.0005459785461425781
ell 64, elapsed: 0.0005598068237304688
ell 63, elapsed: 0.0005099773406982422
ell 62, elapsed: 0.0005109310150146484
ell 61, elapsed: 0.0004980564117431641
ell 60, elapsed: 0.0004909038543701172
ell 59, elapsed: 0.0004889965057373047
ell 58, elapsed: 0.00048804283142089844
ell 57, elapsed: 0.0004949569702148438
ell 56, elapsed: 0.0004909038543701172
ell 55, elapsed: 0.000492095947265625
ell 54, elapsed: 0.0005009174346923828
ell 53, elapsed: 0.00049591064453125
ell 52, elapsed: 0.0004940032958984375
ell 51, elapsed: 0.0004889965057373047
ell 50, elapsed: 0.0004849433898925781
ell 49, elapsed: 0.0004918575286865234
ell 48, elapsed: 0.0004940032958984375
ell 47, elapsed: 0.0004918575286865234
ell 46, elapsed: 0.0005040168762207031
ell 45, elapsed: 0.000514984130859375
ell 44, elapsed: 0.0004968643188476562
ell 43, elapsed: 0.0004911422729492188
ell 42, elapsed: 0.0005562305450439453
ell 41, elapsed: 0.0005249977111816406
ell 40, elapsed: 0.0005190372467041016
ell 39, elapsed: 0.0005779266357421875
ell 38, elapsed: 0.0004889965057373047
ell 37, elapsed: 0.0005059242248535156
ell 36, elapsed: 0.0004911422729492188
ell 35, elapsed: 0.0004978179931640625
ell 34, elapsed: 0.0004949569702148438
ell 33, elapsed: 0.0004911422729492188
ell 32, elapsed: 0.00051116943359375
ell 31, elapsed: 0.0004918575286865234
ell 30, elapsed: 0.0004949569702148438
ell 29, elapsed: 0.0004978179931640625
ell 28, elapsed: 0.0004870891571044922
ell 27, elapsed: 0.0005011558532714844
ell 26, elapsed: 0.0004889965057373047
ell 25, elapsed: 0.0005011558532714844
ell 24, elapsed: 0.0004951953887939453
ell 23, elapsed: 0.00048804283142089844
ell 22, elapsed: 0.0004930496215820312
ell 21, elapsed: 0.0004868507385253906
ell 20, elapsed: 0.0004889965057373047
ell 19, elapsed: 0.0004911422729492188
ell 18, elapsed: 0.0004930496215820312
ell 17, elapsed: 0.0005061626434326172
ell 16, elapsed: 0.0004940032958984375
ell 15, elapsed: 0.0004971027374267578
ell 14, elapsed: 0.0005040168762207031
ell 13, elapsed: 0.0005009174346923828
ell 12, elapsed: 0.0004978179931640625
ell 11, elapsed: 0.000492095947265625
ell 10, elapsed: 0.0005049705505371094
ell 9, elapsed: 0.0004990100860595703
ell 8, elapsed: 0.0004940032958984375
ell 7, elapsed: 0.0004899501800537109
ell 6, elapsed: 0.0004870891571044922
ell 5, elapsed: 0.0004878044128417969
ell 4, elapsed: 0.0005021095275878906
ell 3, elapsed: 0.0005021095275878906
ell 2, elapsed: 0.0004961490631103516
ell 1, elapsed: 0.0004889965057373047
ell 0, elapsed: 0.0004928112030029297
  1.791818 seconds (1.27 M allocations: 69.775 MiB, 2.46% gc time)
elapsed: 0.0005960464477539062
step:          0.315744 sec (307.129 k allocations: 16.679 MB, 7.16% gc time)
swapping:      0.000435 sec (0 allocations: 0 byte, 0.0% gc time)
calc_Mellell!: 0.131469 sec (133.359 k allocations: 7.263 MB, 0.0% gc time)
  t0 :  0.0 sec (0 allocations: 0 byte, 0.0% gc time)
  tm2 : 0.0 sec (0 allocations: 0 byte, 0.0% gc time)
  tm2s: 0.0 sec (0 allocations: 0 byte, 0.0% gc time)
  tm4 : 0.0 sec (0 allocations: 0 byte, 0.0% gc time)
  tp2 : 0.0 sec (0 allocations: 0 byte, 0.0% gc time)
  tp2s: 0.0 sec (0 allocations: 0 byte, 0.0% gc time)
  tp4 : 0.0 sec (0 allocations: 0 byte, 0.0% gc time)
calc_wtdll!:   0.841239 sec (510.258 k allocations: 28.225 MB, 0.0% gc time)
calc_wljj!:    0.002306 sec (6 allocations: 96 byte, 0.0% gc time)
mult_prefac!:  0.0 sec (0 allocations: 0 byte, 0.0% gc time)
convert:       0.0 sec (0 allocations: 0 byte, 0.0% gc time)
write:         0.003473 sec (0 allocations: 0 byte, 0.0% gc time)
test_rand_2f1: 0.0 sec (0 allocations: 0 byte, 0.0% gc time)
Closing outfile out/Ml21-cache.bin...   0.000010 seconds
  1.202940 seconds (347.11 k allocations: 21.125 MiB)
make_phi():   0.013233 seconds (8.18 k allocations: 237.844 KiB)
  0.250907 seconds (87.66 k allocations: 4.754 MiB)
tskip:       2.7e-5 sec (0 allocations: 0 byte, 0.0% gc time)
tread:       0.003418 sec (17 allocations: 2.125 KB, 0.0% gc time)
tmultphi:    0.038738 sec (21.455 k allocations: 1.289 MB, 0.0% gc time)
tbrfft:      0.005764 sec (0 allocations: 0 byte, 0.0% gc time)
tmultprefac: 0.004844 sec (0 allocations: 0 byte, 0.0% gc time)
toutfunc:    0.158965 sec (64.546 k allocations: 3.334 MB, 0.0% gc time)
Testing R=1.1 ... passed
Calculating fmax: 
  dlrec    = 4
  dlrecRg1 = -4
  q=1.1, R=1.0:	  0.001608 seconds (3.20 k allocations: 275.344 KiB)

  0.001838 seconds (3.34 k allocations: 311.422 KiB)
ℓ = 1202
Δℓ = 4
ΔℓRg1 = -4
N = 1600
q = 1.1
kmin = 1.0e-5
kmax = 100000.00000000004
χ0 = 0.023029999999999995
RR = RR.tsv
ℓmax = ℓmax.bin
f21 = f21.bin
kmin = 1.0e-5
kmax = 100000.0
dlrec    = 4
dlrecRg1 = -4
Output size: 61465536 bytes = 0.05724424123764038 GiB
Output size: 51264 bytes = 4.774332046508789e-5 GiB
Reading 'out/F21EllCache'...   0.001160 seconds (197 allocations: 84.203 KiB)
ellmax: 1202
lmaxcache: 1202
fell[:,1,1] = ComplexF64[809.6031528389767 - 1.9829558194077161e-13im, 0.0 + 0.0im]
ell 1202, elapsed: 7.104873657226562e-5
ell 1201, elapsed: 0.013847112655639648
ell 1200, elapsed: 0.015440940856933594
ell 1199, elapsed: 0.0007390975952148438
ell 1198, elapsed: 0.00048089027404785156
ell 1197, elapsed: 0.0005600452423095703
ell 1196, elapsed: 0.0007598400115966797
ell 1195, elapsed: 0.0007970333099365234
ell 1194, elapsed: 0.0008130073547363281
ell 1193, elapsed: 0.0007529258728027344
ell 1192, elapsed: 0.0007979869842529297
ell 1191, elapsed: 0.0008270740509033203
ell 1190, elapsed: 0.0008420944213867188
ell 1189, elapsed: 0.0007340908050537109
ell 1188, elapsed: 0.0008139610290527344
ell 1187, elapsed: 0.0007860660552978516
ell 1186, elapsed: 0.0007960796356201172
ell 1185, elapsed: 0.0008039474487304688
ell 1184, elapsed: 0.0005118846893310547
ell 1183, elapsed: 0.0004849433898925781
ell 1182, elapsed: 0.0004889965057373047
ell 1181, elapsed: 0.0004830360412597656
ell 1180, elapsed: 0.0004799365997314453
ell 1179, elapsed: 0.0007390975952148438
ell 1178, elapsed: 0.00074005126953125
ell 1177, elapsed: 0.0008018016815185547
ell 1176, elapsed: 0.0006952285766601562
ell 1175, elapsed: 0.0007760524749755859
ell 1174, elapsed: 0.0007560253143310547
ell 1173, elapsed: 0.0007359981536865234
ell 1172, elapsed: 0.0006709098815917969
ell 1171, elapsed: 0.0004889965057373047
ell 1170, elapsed: 0.0007460117340087891
ell 1169, elapsed: 0.00072479248046875
ell 1168, elapsed: 0.0007138252258300781
ell 1167, elapsed: 0.0007519721984863281
ell 1166, elapsed: 0.0007441043853759766
ell 1165, elapsed: 0.0007719993591308594
ell 1164, elapsed: 0.0007331371307373047
ell 1163, elapsed: 0.0007359981536865234
ell 1162, elapsed: 0.0006260871887207031
ell 1161, elapsed: 0.0007479190826416016
ell 1160, elapsed: 0.0007541179656982422
ell 1159, elapsed: 0.0007410049438476562
ell 1158, elapsed: 0.0007379055023193359
ell 1157, elapsed: 0.0007238388061523438
ell 1156, elapsed: 0.0007619857788085938
ell 1155, elapsed: 0.0006449222564697266
ell 1154, elapsed: 0.0007569789886474609
ell 1153, elapsed: 0.0007472038269042969
ell 1152, elapsed: 0.0007441043853759766
ell 1151, elapsed: 0.0007259845733642578
ell 1150, elapsed: 0.0007510185241699219
ell 1149, elapsed: 0.0007560253143310547
ell 1148, elapsed: 0.0007698535919189453
ell 1147, elapsed: 0.0005488395690917969
ell 1146, elapsed: 0.0005309581756591797
ell 1145, elapsed: 0.0007510185241699219
ell 1144, elapsed: 0.0006709098815917969
ell 1143, elapsed: 0.0006608963012695312
ell 1142, elapsed: 0.0007498264312744141
ell 1141, elapsed: 0.0006248950958251953
ell 1140, elapsed: 0.0006818771362304688
ell 1139, elapsed: 0.0005018711090087891
ell 1138, elapsed: 0.0004990100860595703
ell 1137, elapsed: 0.0007188320159912109
ell 1136, elapsed: 0.0005030632019042969
ell 1135, elapsed: 0.0007328987121582031
ell 1134, elapsed: 0.0005040168762207031
ell 1133, elapsed: 0.0004911422729492188
ell 1132, elapsed: 0.0005061626434326172
ell 1131, elapsed: 0.0005021095275878906
ell 1130, elapsed: 0.0007088184356689453
ell 1129, elapsed: 0.0007698535919189453
ell 1128, elapsed: 0.0007598400115966797
ell 1127, elapsed: 0.0007550716400146484
ell 1126, elapsed: 0.0007419586181640625
ell 1125, elapsed: 0.000576019287109375
ell 1124, elapsed: 0.0006549358367919922
ell 1123, elapsed: 0.0006270408630371094
ell 1122, elapsed: 0.0005788803100585938
ell 1121, elapsed: 0.0005102157592773438
ell 1120, elapsed: 0.0005159378051757812
ell 1119, elapsed: 0.0005102157592773438
ell 1118, elapsed: 0.0005118846893310547
ell 1117, elapsed: 0.0007250308990478516
ell 1116, elapsed: 0.0005249977111816406
ell 1115, elapsed: 0.0005209445953369141
ell 1114, elapsed: 0.0005080699920654297
ell 1113, elapsed: 0.0005168914794921875
ell 1112, elapsed: 0.0005171298980712891
ell 1111, elapsed: 0.0007550716400146484
ell 1110, elapsed: 0.0007228851318359375
ell 1109, elapsed: 0.0007290840148925781
ell 1108, elapsed: 0.0007131099700927734
ell 1107, elapsed: 0.0007548332214355469
ell 1106, elapsed: 0.0007970333099365234
ell 1105, elapsed: 0.0005249977111816406
ell 1104, elapsed: 0.0005178451538085938
ell 1103, elapsed: 0.0005190372467041016
ell 1102, elapsed: 0.00057220458984375
ell 1101, elapsed: 0.0006921291351318359
ell 1100, elapsed: 0.0005009174346923828
ell 1099, elapsed: 0.0005130767822265625
ell 1098, elapsed: 0.0005071163177490234
ell 1097, elapsed: 0.0007331371307373047
ell 1096, elapsed: 0.0005359649658203125
ell 1095, elapsed: 0.0005180835723876953
ell 1094, elapsed: 0.0006310939788818359
ell 1093, elapsed: 0.0006809234619140625
ell 1092, elapsed: 0.0007200241088867188
ell 1091, elapsed: 0.0005099773406982422
ell 1090, elapsed: 0.0005259513854980469
ell 1089, elapsed: 0.0005161762237548828
ell 1088, elapsed: 0.0005180835723876953
ell 1087, elapsed: 0.0005261898040771484
ell 1086, elapsed: 0.0005121231079101562
ell 1085, elapsed: 0.0005159378051757812
ell 1084, elapsed: 0.000514984130859375
ell 1083, elapsed: 0.0005090236663818359
ell 1082, elapsed: 0.0005180835723876953
ell 1081, elapsed: 0.0004909038543701172
ell 1080, elapsed: 0.0005190372467041016
ell 1079, elapsed: 0.0007240772247314453
ell 1078, elapsed: 0.0005109310150146484
ell 1077, elapsed: 0.0005090236663818359
ell 1076, elapsed: 0.0005309581756591797
ell 1075, elapsed: 0.0005290508270263672
ell 1074, elapsed: 0.0005168914794921875
ell 1073, elapsed: 0.0005140304565429688
ell 1072, elapsed: 0.0007300376892089844
ell 1071, elapsed: 0.0007889270782470703
ell 1070, elapsed: 0.0008869171142578125
ell 1069, elapsed: 0.0007672309875488281
ell 1068, elapsed: 0.0007679462432861328
ell 1067, elapsed: 0.0007650852203369141
ell 1066, elapsed: 0.0007770061492919922
ell 1065, elapsed: 0.0007898807525634766
ell 1064, elapsed: 0.0007839202880859375
ell 1063, elapsed: 0.0007729530334472656
ell 1062, elapsed: 0.0007619857788085938
ell 1061, elapsed: 0.0007710456848144531
ell 1060, elapsed: 0.0005300045013427734
ell 1059, elapsed: 0.0005159378051757812
ell 1058, elapsed: 0.0005190372467041016
ell 1057, elapsed: 0.000514984130859375
ell 1056, elapsed: 0.0005669593811035156
ell 1055, elapsed: 0.0005137920379638672
ell 1054, elapsed: 0.0004980564117431641
ell 1053, elapsed: 0.00045490264892578125
ell 1052, elapsed: 0.00043892860412597656
ell 1051, elapsed: 0.00044608116149902344
ell 1050, elapsed: 0.0005898475646972656
ell 1049, elapsed: 0.0005731582641601562
ell 1048, elapsed: 0.0004630088806152344
ell 1047, elapsed: 0.00044608116149902344
ell 1046, elapsed: 0.0004458427429199219
ell 1045, elapsed: 0.00044608116149902344
ell 1044, elapsed: 0.0004467964172363281
ell 1043, elapsed: 0.0004520416259765625
ell 1042, elapsed: 0.0004429817199707031
ell 1041, elapsed: 0.0004458427429199219
ell 1040, elapsed: 0.0004851818084716797
ell 1039, elapsed: 0.0006220340728759766
ell 1038, elapsed: 0.0005011558532714844
ell 1037, elapsed: 0.0005791187286376953
ell 1036, elapsed: 0.0005629062652587891
ell 1035, elapsed: 0.0004410743713378906
ell 1034, elapsed: 0.0004439353942871094
ell 1033, elapsed: 0.004556179046630859
ell 1032, elapsed: 0.000453948974609375
ell 1031, elapsed: 0.0004470348358154297
ell 1030, elapsed: 0.0004451274871826172
ell 1029, elapsed: 0.0004489421844482422
ell 1028, elapsed: 0.00045108795166015625
ell 1027, elapsed: 0.0004439353942871094
ell 1026, elapsed: 0.0004630088806152344
ell 1025, elapsed: 0.0004379749298095703
ell 1024, elapsed: 0.0004401206970214844
ell 1023, elapsed: 0.00044608116149902344
ell 1022, elapsed: 0.00044989585876464844
ell 1021, elapsed: 0.0004420280456542969
ell 1020, elapsed: 0.0004448890686035156
ell 1019, elapsed: 0.00043892860412597656
ell 1018, elapsed: 0.0005578994750976562
ell 1017, elapsed: 0.0005600452423095703
ell 1016, elapsed: 0.0004401206970214844
ell 1015, elapsed: 0.0004298686981201172
ell 1014, elapsed: 0.000453948974609375
ell 1013, elapsed: 0.0004432201385498047
ell 1012, elapsed: 0.0004451274871826172
ell 1011, elapsed: 0.0004448890686035156
ell 1010, elapsed: 0.00045990943908691406
ell 1009, elapsed: 0.00044798851013183594
ell 1008, elapsed: 0.00044798851013183594
ell 1007, elapsed: 0.0005049705505371094
ell 1006, elapsed: 0.0006229877471923828
ell 1005, elapsed: 0.00044798851013183594
ell 1004, elapsed: 0.0004489421844482422
ell 1003, elapsed: 0.00047707557678222656
ell 1002, elapsed: 0.0004470348358154297
ell 1001, elapsed: 0.00044798851013183594
ell 1000, elapsed: 0.0004451274871826172
ell 999, elapsed: 0.0005447864532470703
ell 998, elapsed: 0.0006890296936035156
ell 997, elapsed: 0.0005688667297363281
ell 996, elapsed: 0.0005409717559814453
ell 995, elapsed: 0.0005731582641601562
ell 994, elapsed: 0.0006000995635986328
ell 993, elapsed: 0.0005769729614257812
ell 992, elapsed: 0.0005419254302978516
ell 991, elapsed: 0.0005338191986083984
ell 990, elapsed: 0.0005469322204589844
ell 989, elapsed: 0.0005290508270263672
ell 988, elapsed: 0.0005578994750976562
ell 987, elapsed: 0.0005478858947753906
ell 986, elapsed: 0.0005459785461425781
ell 985, elapsed: 0.0005500316619873047
ell 984, elapsed: 0.0005500316619873047
ell 983, elapsed: 0.0005269050598144531
ell 982, elapsed: 0.0005381107330322266
ell 981, elapsed: 0.0006000995635986328
ell 980, elapsed: 0.0006151199340820312
ell 979, elapsed: 0.0005640983581542969
ell 978, elapsed: 0.000698089599609375
ell 977, elapsed: 0.0007688999176025391
ell 976, elapsed: 0.0007741451263427734
ell 975, elapsed: 0.0007579326629638672
ell 974, elapsed: 0.0007851123809814453
ell 973, elapsed: 0.0007929801940917969
ell 972, elapsed: 0.0008189678192138672
ell 971, elapsed: 0.0008127689361572266
ell 970, elapsed: 0.0007519721984863281
ell 969, elapsed: 0.0007879734039306641
ell 968, elapsed: 0.0010859966278076172
ell 967, elapsed: 0.0005419254302978516
ell 966, elapsed: 0.0007619857788085938
ell 965, elapsed: 0.0005719661712646484
ell 964, elapsed: 0.0005669593811035156
ell 963, elapsed: 0.0005979537963867188
ell 962, elapsed: 0.0006508827209472656
ell 961, elapsed: 0.0005931854248046875
ell 960, elapsed: 0.0005080699920654297
ell 959, elapsed: 0.00045680999755859375
ell 958, elapsed: 0.0003972053527832031
ell 957, elapsed: 0.00039386749267578125
ell 956, elapsed: 0.00039696693420410156
ell 955, elapsed: 0.0003941059112548828
ell 954, elapsed: 0.0003979206085205078
ell 953, elapsed: 0.0003941059112548828
ell 952, elapsed: 0.0004019737243652344
ell 951, elapsed: 0.0004029273986816406
ell 950, elapsed: 0.0004258155822753906
ell 949, elapsed: 0.0004360675811767578
ell 948, elapsed: 0.0004429817199707031
ell 947, elapsed: 0.0005481243133544922
ell 946, elapsed: 0.0005340576171875
ell 945, elapsed: 0.0006070137023925781
ell 944, elapsed: 0.00048804283142089844
ell 943, elapsed: 0.0008161067962646484
ell 942, elapsed: 0.0004601478576660156
ell 941, elapsed: 0.0004382133483886719
ell 940, elapsed: 0.00045490264892578125
ell 939, elapsed: 0.0004489421844482422
ell 938, elapsed: 0.0004451274871826172
ell 937, elapsed: 0.0004949569702148438
ell 936, elapsed: 0.0007350444793701172
ell 935, elapsed: 0.0006089210510253906
ell 934, elapsed: 0.00043582916259765625
ell 933, elapsed: 0.0005490779876708984
ell 932, elapsed: 0.0005400180816650391
ell 931, elapsed: 0.0005278587341308594
ell 930, elapsed: 0.0004439353942871094
ell 929, elapsed: 0.00043892860412597656
ell 928, elapsed: 0.0004220008850097656
ell 927, elapsed: 0.0004241466522216797
ell 926, elapsed: 0.00043320655822753906
ell 925, elapsed: 0.00042700767517089844
ell 924, elapsed: 0.000431060791015625
ell 923, elapsed: 0.00042700767517089844
ell 922, elapsed: 0.0004279613494873047
ell 921, elapsed: 0.0004379749298095703
ell 920, elapsed: 0.00042510032653808594
ell 919, elapsed: 0.0004279613494873047
ell 918, elapsed: 0.0006110668182373047
ell 917, elapsed: 0.0004811286926269531
ell 916, elapsed: 0.0004298686981201172
ell 915, elapsed: 0.0004401206970214844
ell 914, elapsed: 0.00043892860412597656
ell 913, elapsed: 0.0004558563232421875
ell 912, elapsed: 0.0005807876586914062
ell 911, elapsed: 0.0005779266357421875
ell 910, elapsed: 0.00042891502380371094
ell 909, elapsed: 0.00042891502380371094
ell 908, elapsed: 0.0004458427429199219
ell 907, elapsed: 0.0004260540008544922
ell 906, elapsed: 0.0005850791931152344
ell 905, elapsed: 0.0005190372467041016
ell 904, elapsed: 0.00047206878662109375
ell 903, elapsed: 0.0006079673767089844
ell 902, elapsed: 0.0004260540008544922
ell 901, elapsed: 0.0005669593811035156
ell 900, elapsed: 0.0005249977111816406
ell 899, elapsed: 0.0004279613494873047
ell 898, elapsed: 0.00048804283142089844
ell 897, elapsed: 0.0007560253143310547
ell 896, elapsed: 0.0005288124084472656
ell 895, elapsed: 0.0007560253143310547
ell 894, elapsed: 0.0005159378051757812
ell 893, elapsed: 0.0005309581756591797
ell 892, elapsed: 0.0005280971527099609
ell 891, elapsed: 0.0005161762237548828
ell 890, elapsed: 0.0005118846893310547
ell 889, elapsed: 0.0005249977111816406
ell 888, elapsed: 0.0005259513854980469
ell 887, elapsed: 0.0006060600280761719
ell 886, elapsed: 0.00067901611328125
ell 885, elapsed: 0.0005409717559814453
ell 884, elapsed: 0.0005090236663818359
ell 883, elapsed: 0.0007288455963134766
ell 882, elapsed: 0.0005249977111816406
ell 881, elapsed: 0.0005159378051757812
ell 880, elapsed: 0.0005228519439697266
ell 879, elapsed: 0.0007519721984863281
ell 878, elapsed: 0.0005168914794921875
ell 877, elapsed: 0.0006840229034423828
ell 876, elapsed: 0.0005331039428710938
ell 875, elapsed: 0.0005130767822265625
ell 874, elapsed: 0.0007572174072265625
ell 873, elapsed: 0.0007448196411132812
ell 872, elapsed: 0.0005509853363037109
ell 871, elapsed: 0.0005278587341308594
ell 870, elapsed: 0.0007719993591308594
ell 869, elapsed: 0.0005211830139160156
ell 868, elapsed: 0.0005347728729248047
ell 867, elapsed: 0.0005338191986083984
ell 866, elapsed: 0.0005381107330322266
ell 865, elapsed: 0.0007131099700927734
ell 864, elapsed: 0.0005309581756591797
ell 863, elapsed: 0.0006921291351318359
ell 862, elapsed: 0.0005199909210205078
ell 861, elapsed: 0.0005249977111816406
ell 860, elapsed: 0.0004971027374267578
ell 859, elapsed: 0.0005259513854980469
ell 858, elapsed: 0.0005340576171875
ell 857, elapsed: 0.0006649494171142578
ell 856, elapsed: 0.0005190372467041016
ell 855, elapsed: 0.0005979537963867188
ell 854, elapsed: 0.0007309913635253906
ell 853, elapsed: 0.0005459785461425781
ell 852, elapsed: 0.0005488395690917969
ell 851, elapsed: 0.0007359981536865234
ell 850, elapsed: 0.0006411075592041016
ell 849, elapsed: 0.0005340576171875
ell 848, elapsed: 0.0006909370422363281
ell 847, elapsed: 0.0007660388946533203
ell 846, elapsed: 0.0007338523864746094
ell 845, elapsed: 0.0007510185241699219
ell 844, elapsed: 0.0007870197296142578
ell 843, elapsed: 0.0005450248718261719
ell 842, elapsed: 0.0007851123809814453
ell 841, elapsed: 0.0007541179656982422
ell 840, elapsed: 0.0008080005645751953
ell 839, elapsed: 0.0005970001220703125
ell 838, elapsed: 0.0006048679351806641
ell 837, elapsed: 0.0008800029754638672
ell 836, elapsed: 0.0007600784301757812
ell 835, elapsed: 0.0004999637603759766
ell 834, elapsed: 0.0007669925689697266
ell 833, elapsed: 0.0007350444793701172
ell 832, elapsed: 0.0007050037384033203
ell 831, elapsed: 0.0005288124084472656
ell 830, elapsed: 0.000720977783203125
ell 829, elapsed: 0.0007650852203369141
ell 828, elapsed: 0.0006499290466308594
ell 827, elapsed: 0.0006558895111083984
ell 826, elapsed: 0.0006549358367919922
ell 825, elapsed: 0.00045490264892578125
ell 824, elapsed: 0.0006389617919921875
ell 823, elapsed: 0.0005590915679931641
ell 822, elapsed: 0.00043487548828125
ell 821, elapsed: 0.0004260540008544922
ell 820, elapsed: 0.0006101131439208984
ell 819, elapsed: 0.0005629062652587891
ell 818, elapsed: 0.00041794776916503906
ell 817, elapsed: 0.00043010711669921875
ell 816, elapsed: 0.0006139278411865234
ell 815, elapsed: 0.0005810260772705078
ell 814, elapsed: 0.0004208087921142578
ell 813, elapsed: 0.0005640983581542969
ell 812, elapsed: 0.0005381107330322266
ell 811, elapsed: 0.0004279613494873047
ell 810, elapsed: 0.0005419254302978516
ell 809, elapsed: 0.0006880760192871094
ell 808, elapsed: 0.0005769729614257812
ell 807, elapsed: 0.0005979537963867188
ell 806, elapsed: 0.0005180835723876953
ell 805, elapsed: 0.00041484832763671875
ell 804, elapsed: 0.000415802001953125
ell 803, elapsed: 0.00041484832763671875
ell 802, elapsed: 0.0004100799560546875
ell 801, elapsed: 0.00043082237243652344
ell 800, elapsed: 0.00043082237243652344
ell 799, elapsed: 0.0004401206970214844
ell 798, elapsed: 0.00043082237243652344
ell 797, elapsed: 0.0006041526794433594
ell 796, elapsed: 0.0004990100860595703
ell 795, elapsed: 0.0004329681396484375
ell 794, elapsed: 0.00045800209045410156
ell 793, elapsed: 0.0004260540008544922
ell 792, elapsed: 0.0004909038543701172
ell 791, elapsed: 0.0006079673767089844
ell 790, elapsed: 0.00041985511779785156
ell 789, elapsed: 0.0005521774291992188
ell 788, elapsed: 0.0005390644073486328
ell 787, elapsed: 0.00044798851013183594
ell 786, elapsed: 0.0004329681396484375
ell 785, elapsed: 0.0005588531494140625
ell 784, elapsed: 0.0005161762237548828
ell 783, elapsed: 0.0004260540008544922
ell 782, elapsed: 0.00043392181396484375
ell 781, elapsed: 0.0005609989166259766
ell 780, elapsed: 0.0005459785461425781
ell 779, elapsed: 0.0004341602325439453
ell 778, elapsed: 0.0004260540008544922
ell 777, elapsed: 0.00043892860412597656
ell 776, elapsed: 0.0006129741668701172
ell 775, elapsed: 0.00049591064453125
ell 774, elapsed: 0.0004398822784423828
ell 773, elapsed: 0.00043511390686035156
ell 772, elapsed: 0.0005509853363037109
ell 771, elapsed: 0.0006940364837646484
ell 770, elapsed: 0.0006501674652099609
ell 769, elapsed: 0.0005850791931152344
ell 768, elapsed: 0.0004360675811767578
ell 767, elapsed: 0.00043392181396484375
ell 766, elapsed: 0.0004601478576660156
ell 765, elapsed: 0.00043010711669921875
ell 764, elapsed: 0.00043582916259765625
ell 763, elapsed: 0.0004260540008544922
ell 762, elapsed: 0.0004379749298095703
ell 761, elapsed: 0.00043392181396484375
ell 760, elapsed: 0.000431060791015625
ell 759, elapsed: 0.00044083595275878906
ell 758, elapsed: 0.0004470348358154297
ell 757, elapsed: 0.00043487548828125
ell 756, elapsed: 0.00042819976806640625
ell 755, elapsed: 0.0004260540008544922
ell 754, elapsed: 0.0004329681396484375
ell 753, elapsed: 0.0004401206970214844
ell 752, elapsed: 0.0004410743713378906
ell 751, elapsed: 0.00043487548828125
ell 750, elapsed: 0.00044798851013183594
ell 749, elapsed: 0.00045609474182128906
ell 748, elapsed: 0.00042891502380371094
ell 747, elapsed: 0.0005128383636474609
ell 746, elapsed: 0.00047087669372558594
ell 745, elapsed: 0.00047206878662109375
ell 744, elapsed: 0.00047087669372558594
ell 743, elapsed: 0.0004668235778808594
ell 742, elapsed: 0.0004870891571044922
ell 741, elapsed: 0.0004830360412597656
ell 740, elapsed: 0.0005238056182861328
ell 739, elapsed: 0.0004360675811767578
ell 738, elapsed: 0.0004391670227050781
ell 737, elapsed: 0.0005350112915039062
ell 736, elapsed: 0.0004930496215820312
ell 735, elapsed: 0.0004930496215820312
ell 734, elapsed: 0.0004940032958984375
ell 733, elapsed: 0.0004830360412597656
ell 732, elapsed: 0.0004889965057373047
ell 731, elapsed: 0.0005109310150146484
ell 730, elapsed: 0.000469207763671875
ell 729, elapsed: 0.0005390644073486328
ell 728, elapsed: 0.0005288124084472656
ell 727, elapsed: 0.0005030632019042969
ell 726, elapsed: 0.0006961822509765625
ell 725, elapsed: 0.0007739067077636719
ell 724, elapsed: 0.0007088184356689453
ell 723, elapsed: 0.0007920265197753906
ell 722, elapsed: 0.0007719993591308594
ell 721, elapsed: 0.0007839202880859375
ell 720, elapsed: 0.0007851123809814453
ell 719, elapsed: 0.0007390975952148438
ell 718, elapsed: 0.0007679462432861328
ell 717, elapsed: 0.0006549358367919922
ell 716, elapsed: 0.0005280971527099609
ell 715, elapsed: 0.0005629062652587891
ell 714, elapsed: 0.0005469322204589844
ell 713, elapsed: 0.0006330013275146484
ell 712, elapsed: 0.0005538463592529297
ell 711, elapsed: 0.0006291866302490234
ell 710, elapsed: 0.0004649162292480469
ell 709, elapsed: 0.000701904296875
ell 708, elapsed: 0.0006611347198486328
ell 707, elapsed: 0.0007388591766357422
ell 706, elapsed: 0.0006148815155029297
ell 705, elapsed: 0.0007460117340087891
ell 704, elapsed: 0.00049591064453125
ell 703, elapsed: 0.0007669925689697266
ell 702, elapsed: 0.0007579326629638672
ell 701, elapsed: 0.0005109310150146484
ell 700, elapsed: 0.0006849765777587891
ell 699, elapsed: 0.0007288455963134766
ell 698, elapsed: 0.0007619857788085938
ell 697, elapsed: 0.0007488727569580078
ell 696, elapsed: 0.0008149147033691406
ell 695, elapsed: 0.0008051395416259766
ell 694, elapsed: 0.0007450580596923828
ell 693, elapsed: 0.0007538795471191406
ell 692, elapsed: 0.0007691383361816406
ell 691, elapsed: 0.0005269050598144531
ell 690, elapsed: 0.0006971359252929688
ell 689, elapsed: 0.0005040168762207031
ell 688, elapsed: 0.0007719993591308594
ell 687, elapsed: 0.0007560253143310547
ell 686, elapsed: 0.0007641315460205078
ell 685, elapsed: 0.0007159709930419922
ell 684, elapsed: 0.0007870197296142578
ell 683, elapsed: 0.0004971027374267578
ell 682, elapsed: 0.0007469654083251953
ell 681, elapsed: 0.0006840229034423828
ell 680, elapsed: 0.0007801055908203125
ell 679, elapsed: 0.0007069110870361328
ell 678, elapsed: 0.0007650852203369141
ell 677, elapsed: 0.0005199909210205078
ell 676, elapsed: 0.0007989406585693359
ell 675, elapsed: 0.0007500648498535156
ell 674, elapsed: 0.0007700920104980469
ell 673, elapsed: 0.0007729530334472656
ell 672, elapsed: 0.0007061958312988281
ell 671, elapsed: 0.0007200241088867188
ell 670, elapsed: 0.0007069110870361328
ell 669, elapsed: 0.0006258487701416016
ell 668, elapsed: 0.0007290840148925781
ell 667, elapsed: 0.0004961490631103516
ell 666, elapsed: 0.0007109642028808594
ell 665, elapsed: 0.0004968643188476562
ell 664, elapsed: 0.0007989406585693359
ell 663, elapsed: 0.0007607936859130859
ell 662, elapsed: 0.0006618499755859375
ell 661, elapsed: 0.0005340576171875
ell 660, elapsed: 0.0005919933319091797
ell 659, elapsed: 0.0007500648498535156
ell 658, elapsed: 0.0005190372467041016
ell 657, elapsed: 0.0006299018859863281
ell 656, elapsed: 0.0005779266357421875
ell 655, elapsed: 0.0006730556488037109
ell 654, elapsed: 0.0005002021789550781
ell 653, elapsed: 0.00042700767517089844
ell 652, elapsed: 0.0005979537963867188
ell 651, elapsed: 0.0006968975067138672
ell 650, elapsed: 0.0005559921264648438
ell 649, elapsed: 0.00043487548828125
ell 648, elapsed: 0.0005710124969482422
ell 647, elapsed: 0.0006978511810302734
ell 646, elapsed: 0.0006749629974365234
ell 645, elapsed: 0.0006849765777587891
ell 644, elapsed: 0.0006279945373535156
ell 643, elapsed: 0.0006780624389648438
ell 642, elapsed: 0.0006809234619140625
ell 641, elapsed: 0.0006031990051269531
ell 640, elapsed: 0.0006830692291259766
ell 639, elapsed: 0.0005409717559814453
ell 638, elapsed: 0.0006427764892578125
ell 637, elapsed: 0.0006220340728759766
ell 636, elapsed: 0.0006940364837646484
ell 635, elapsed: 0.0005888938903808594
ell 634, elapsed: 0.0004420280456542969
ell 633, elapsed: 0.0004291534423828125
ell 632, elapsed: 0.0004429817199707031
ell 631, elapsed: 0.0005650520324707031
ell 630, elapsed: 0.0005741119384765625
ell 629, elapsed: 0.0004591941833496094
ell 628, elapsed: 0.0004360675811767578
ell 627, elapsed: 0.0004467964172363281
ell 626, elapsed: 0.0004420280456542969
ell 625, elapsed: 0.0004429817199707031
ell 624, elapsed: 0.00045490264892578125
ell 623, elapsed: 0.0005168914794921875
ell 622, elapsed: 0.0008440017700195312
ell 621, elapsed: 0.0006299018859863281
ell 620, elapsed: 0.0005950927734375
ell 619, elapsed: 0.0005922317504882812
ell 618, elapsed: 0.0006201267242431641
ell 617, elapsed: 0.0006031990051269531
ell 616, elapsed: 0.0005941390991210938
ell 615, elapsed: 0.0005950927734375
ell 614, elapsed: 0.0006051063537597656
ell 613, elapsed: 0.0005950927734375
ell 612, elapsed: 0.000598907470703125
ell 611, elapsed: 0.0006971359252929688
ell 610, elapsed: 0.0005841255187988281
ell 609, elapsed: 0.0005948543548583984
ell 608, elapsed: 0.0008180141448974609
ell 607, elapsed: 0.0008409023284912109
ell 606, elapsed: 0.0007860660552978516
ell 605, elapsed: 0.000865936279296875
ell 604, elapsed: 0.0008440017700195312
ell 603, elapsed: 0.0005669593811035156
ell 602, elapsed: 0.0008208751678466797
ell 601, elapsed: 0.0005278587341308594
ell 600, elapsed: 0.0007901191711425781
ell 599, elapsed: 0.0005309581756591797
ell 598, elapsed: 0.0005221366882324219
ell 597, elapsed: 0.0005269050598144531
ell 596, elapsed: 0.0005540847778320312
ell 595, elapsed: 0.0005440711975097656
ell 594, elapsed: 0.0005550384521484375
ell 593, elapsed: 0.0005459785461425781
ell 592, elapsed: 0.0005588531494140625
ell 591, elapsed: 0.000537872314453125
ell 590, elapsed: 0.0005421638488769531
ell 589, elapsed: 0.0005362033843994141
ell 588, elapsed: 0.0005471706390380859
ell 587, elapsed: 0.0005528926849365234
ell 586, elapsed: 0.0005319118499755859
ell 585, elapsed: 0.0005438327789306641
ell 584, elapsed: 0.0005350112915039062
ell 583, elapsed: 0.0005340576171875
ell 582, elapsed: 0.0005419254302978516
ell 581, elapsed: 0.0005319118499755859
ell 580, elapsed: 0.0005490779876708984
ell 579, elapsed: 0.0005428791046142578
ell 578, elapsed: 0.0005409717559814453
ell 577, elapsed: 0.0005328655242919922
ell 576, elapsed: 0.0005328655242919922
ell 575, elapsed: 0.0005369186401367188
ell 574, elapsed: 0.0005381107330322266
ell 573, elapsed: 0.0005409717559814453
ell 572, elapsed: 0.0005421638488769531
ell 571, elapsed: 0.0005481243133544922
ell 570, elapsed: 0.000537872314453125
ell 569, elapsed: 0.0005350112915039062
ell 568, elapsed: 0.0005431175231933594
ell 567, elapsed: 0.0005509853363037109
ell 566, elapsed: 0.0005319118499755859
ell 565, elapsed: 0.0005319118499755859
ell 564, elapsed: 0.0005209445953369141
ell 563, elapsed: 0.0005218982696533203
ell 562, elapsed: 0.0005319118499755859
ell 561, elapsed: 0.00040793418884277344
ell 560, elapsed: 0.00047206878662109375
ell 559, elapsed: 0.0004589557647705078
ell 558, elapsed: 0.0004439353942871094
ell 557, elapsed: 0.00041794776916503906
ell 556, elapsed: 0.0004200935363769531
ell 555, elapsed: 0.0003440380096435547
ell 554, elapsed: 0.0003349781036376953
ell 553, elapsed: 0.0003299713134765625
ell 552, elapsed: 0.00032591819763183594
ell 551, elapsed: 0.0003268718719482422
ell 550, elapsed: 0.00032591819763183594
ell 549, elapsed: 0.0003249645233154297
ell 548, elapsed: 0.00032711029052734375
ell 547, elapsed: 0.0003249645233154297
ell 546, elapsed: 0.00033211708068847656
ell 545, elapsed: 0.0003261566162109375
ell 544, elapsed: 0.0003440380096435547
ell 543, elapsed: 0.0003299713134765625
ell 542, elapsed: 0.0003249645233154297
ell 541, elapsed: 0.00032711029052734375
ell 540, elapsed: 0.0003249645233154297
ell 539, elapsed: 0.0003268718719482422
ell 538, elapsed: 0.0003509521484375
ell 537, elapsed: 0.00032711029052734375
ell 536, elapsed: 0.00032782554626464844
ell 535, elapsed: 0.00042700767517089844
ell 534, elapsed: 0.0004928112030029297
ell 533, elapsed: 0.00034689903259277344
ell 532, elapsed: 0.0003299713134765625
ell 531, elapsed: 0.0003330707550048828
ell 530, elapsed: 0.00032901763916015625
ell 529, elapsed: 0.00033211708068847656
ell 528, elapsed: 0.00032901763916015625
ell 527, elapsed: 0.00032711029052734375
ell 526, elapsed: 0.00034117698669433594
ell 525, elapsed: 0.00034689903259277344
ell 524, elapsed: 0.0003399848937988281
ell 523, elapsed: 0.00034880638122558594
ell 522, elapsed: 0.00035190582275390625
ell 521, elapsed: 0.00034499168395996094
ell 520, elapsed: 0.00033593177795410156
ell 519, elapsed: 0.00047397613525390625
ell 518, elapsed: 0.00046706199645996094
ell 517, elapsed: 0.0003540515899658203
ell 516, elapsed: 0.0003437995910644531
ell 515, elapsed: 0.00033593177795410156
ell 514, elapsed: 0.0003600120544433594
ell 513, elapsed: 0.0003540515899658203
ell 512, elapsed: 0.0003421306610107422
ell 511, elapsed: 0.0003409385681152344
ell 510, elapsed: 0.0005021095275878906
ell 509, elapsed: 0.0004210472106933594
ell 508, elapsed: 0.00034880638122558594
ell 507, elapsed: 0.0003390312194824219
ell 506, elapsed: 0.00034117698669433594
ell 505, elapsed: 0.00034809112548828125
ell 504, elapsed: 0.0003390312194824219
ell 503, elapsed: 0.0003349781036376953
ell 502, elapsed: 0.00034117698669433594
ell 501, elapsed: 0.0003399848937988281
ell 500, elapsed: 0.0003368854522705078
ell 499, elapsed: 0.0003390312194824219
ell 498, elapsed: 0.0003399848937988281
ell 497, elapsed: 0.0003428459167480469
ell 496, elapsed: 0.0003399848937988281
ell 495, elapsed: 0.00034618377685546875
ell 494, elapsed: 0.0004448890686035156
ell 493, elapsed: 0.0004220008850097656
ell 492, elapsed: 0.0004248619079589844
ell 491, elapsed: 0.0004131793975830078
ell 490, elapsed: 0.00041604042053222656
ell 489, elapsed: 0.00042510032653808594
ell 488, elapsed: 0.0004191398620605469
ell 487, elapsed: 0.0004210472106933594
ell 486, elapsed: 0.00043487548828125
ell 485, elapsed: 0.00041604042053222656
ell 484, elapsed: 0.0004291534423828125
ell 483, elapsed: 0.0004189014434814453
ell 482, elapsed: 0.0004260540008544922
ell 481, elapsed: 0.0004138946533203125
ell 480, elapsed: 0.000415802001953125
ell 479, elapsed: 0.0004189014434814453
ell 478, elapsed: 0.00043487548828125
ell 477, elapsed: 0.0004229545593261719
ell 476, elapsed: 0.0004150867462158203
ell 475, elapsed: 0.00041604042053222656
ell 474, elapsed: 0.00042319297790527344
ell 473, elapsed: 0.00041604042053222656
ell 472, elapsed: 0.00042510032653808594
ell 471, elapsed: 0.0004220008850097656
ell 470, elapsed: 0.0004279613494873047
ell 469, elapsed: 0.000431060791015625
ell 468, elapsed: 0.0004200935363769531
ell 467, elapsed: 0.00043201446533203125
ell 466, elapsed: 0.0004191398620605469
ell 465, elapsed: 0.00042819976806640625
ell 464, elapsed: 0.0004298686981201172
ell 463, elapsed: 0.0004248619079589844
ell 462, elapsed: 0.0004279613494873047
ell 461, elapsed: 0.00043010711669921875
ell 460, elapsed: 0.0004258155822753906
ell 459, elapsed: 0.0004189014434814453
ell 458, elapsed: 0.0004229545593261719
ell 457, elapsed: 0.0004258155822753906
ell 456, elapsed: 0.0004329681396484375
ell 455, elapsed: 0.00042700767517089844
ell 454, elapsed: 0.00041794776916503906
ell 453, elapsed: 0.00042891502380371094
ell 452, elapsed: 0.00042891502380371094
ell 451, elapsed: 0.0004169940948486328
ell 450, elapsed: 0.00042700767517089844
ell 449, elapsed: 0.000415802001953125
ell 448, elapsed: 0.0004210472106933594
ell 447, elapsed: 0.0004220008850097656
ell 446, elapsed: 0.0004258155822753906
ell 445, elapsed: 0.00043201446533203125
ell 444, elapsed: 0.0004229545593261719
ell 443, elapsed: 0.0004189014434814453
ell 442, elapsed: 0.00041794776916503906
ell 441, elapsed: 0.0004220008850097656
ell 440, elapsed: 0.0004329681396484375
ell 439, elapsed: 0.00042510032653808594
ell 438, elapsed: 0.0004279613494873047
ell 437, elapsed: 0.0004239082336425781
ell 436, elapsed: 0.0004200935363769531
ell 435, elapsed: 0.0004169940948486328
ell 434, elapsed: 0.0004200935363769531
ell 433, elapsed: 0.0004229545593261719
ell 432, elapsed: 0.0004210472106933594
ell 431, elapsed: 0.0004208087921142578
ell 430, elapsed: 0.00043392181396484375
ell 429, elapsed: 0.0004239082336425781
ell 428, elapsed: 0.0004398822784423828
ell 427, elapsed: 0.00042510032653808594
ell 426, elapsed: 0.0004220008850097656
ell 425, elapsed: 0.0004200935363769531
ell 424, elapsed: 0.0004220008850097656
ell 423, elapsed: 0.00042700767517089844
ell 422, elapsed: 0.0004239082336425781
ell 421, elapsed: 0.0004210472106933594
ell 420, elapsed: 0.00043582916259765625
ell 419, elapsed: 0.0004208087921142578
ell 418, elapsed: 0.0004260540008544922
ell 417, elapsed: 0.0004229545593261719
ell 416, elapsed: 0.0004220008850097656
ell 415, elapsed: 0.0004298686981201172
ell 414, elapsed: 0.0004200935363769531
ell 413, elapsed: 0.00042510032653808594
ell 412, elapsed: 0.00042700767517089844
ell 411, elapsed: 0.00041794776916503906
ell 410, elapsed: 0.0004210472106933594
ell 409, elapsed: 0.0004229545593261719
ell 408, elapsed: 0.0004189014434814453
ell 407, elapsed: 0.00041794776916503906
ell 406, elapsed: 0.00041484832763671875
ell 405, elapsed: 0.0004229545593261719
ell 404, elapsed: 0.00042891502380371094
ell 403, elapsed: 0.0004210472106933594
ell 402, elapsed: 0.0004239082336425781
ell 401, elapsed: 0.00043010711669921875
ell 400, elapsed: 0.0004248619079589844
ell 399, elapsed: 0.0004248619079589844
ell 398, elapsed: 0.00043392181396484375
ell 397, elapsed: 0.0004210472106933594
ell 396, elapsed: 0.0004239082336425781
ell 395, elapsed: 0.0004189014434814453
ell 394, elapsed: 0.0004200935363769531
ell 393, elapsed: 0.0004241466522216797
ell 392, elapsed: 0.0004150867462158203
ell 391, elapsed: 0.0004189014434814453
ell 390, elapsed: 0.0004220008850097656
ell 389, elapsed: 0.0004239082336425781
ell 388, elapsed: 0.00041794776916503906
ell 387, elapsed: 0.0004329681396484375
ell 386, elapsed: 0.0004220008850097656
ell 385, elapsed: 0.0004220008850097656
ell 384, elapsed: 0.0004210472106933594
ell 383, elapsed: 0.0004239082336425781
ell 382, elapsed: 0.0004239082336425781
ell 381, elapsed: 0.00041794776916503906
ell 380, elapsed: 0.0004220008850097656
ell 379, elapsed: 0.00042891502380371094
ell 378, elapsed: 0.00042700767517089844
ell 377, elapsed: 0.0004189014434814453
ell 376, elapsed: 0.0004210472106933594
ell 375, elapsed: 0.0004138946533203125
ell 374, elapsed: 0.0004239082336425781
ell 373, elapsed: 0.0004150867462158203
ell 372, elapsed: 0.0004200935363769531
ell 371, elapsed: 0.0004439353942871094
ell 370, elapsed: 0.00041484832763671875
ell 369, elapsed: 0.0004189014434814453
ell 368, elapsed: 0.0004210472106933594
ell 367, elapsed: 0.00041413307189941406
ell 366, elapsed: 0.0004200935363769531
ell 365, elapsed: 0.0004210472106933594
ell 364, elapsed: 0.0004260540008544922
ell 363, elapsed: 0.0003478527069091797
ell 362, elapsed: 0.00036787986755371094
ell 361, elapsed: 0.0003509521484375
ell 360, elapsed: 0.00034308433532714844
ell 359, elapsed: 0.0003440380096435547
ell 358, elapsed: 0.0003440380096435547
ell 357, elapsed: 0.0003409385681152344
ell 356, elapsed: 0.00034618377685546875
ell 355, elapsed: 0.0003440380096435547
ell 354, elapsed: 0.00034809112548828125
ell 353, elapsed: 0.0003440380096435547
ell 352, elapsed: 0.00035691261291503906
ell 351, elapsed: 0.0003840923309326172
ell 350, elapsed: 0.0004398822784423828
ell 349, elapsed: 0.0003948211669921875
ell 348, elapsed: 0.00034499168395996094
ell 347, elapsed: 0.00034308433532714844
ell 346, elapsed: 0.0003390312194824219
ell 345, elapsed: 0.0003459453582763672
ell 344, elapsed: 0.00034809112548828125
ell 343, elapsed: 0.0003559589385986328
ell 342, elapsed: 0.0003440380096435547
ell 341, elapsed: 0.00034499168395996094
ell 340, elapsed: 0.0003421306610107422
ell 339, elapsed: 0.00034809112548828125
ell 338, elapsed: 0.0003390312194824219
ell 337, elapsed: 0.000347137451171875
ell 336, elapsed: 0.0003418922424316406
ell 335, elapsed: 0.00034308433532714844
ell 334, elapsed: 0.0003459453582763672
ell 333, elapsed: 0.00034618377685546875
ell 332, elapsed: 0.0003440380096435547
ell 331, elapsed: 0.00034689903259277344
ell 330, elapsed: 0.00034499168395996094
ell 329, elapsed: 0.0003478527069091797
ell 328, elapsed: 0.00034809112548828125
ell 327, elapsed: 0.00034999847412109375
ell 326, elapsed: 0.0003440380096435547
ell 325, elapsed: 0.00034809112548828125
ell 324, elapsed: 0.00034999847412109375
ell 323, elapsed: 0.00034499168395996094
ell 322, elapsed: 0.0003612041473388672
ell 321, elapsed: 0.000347137451171875
ell 320, elapsed: 0.000347137451171875
ell 319, elapsed: 0.00034499168395996094
ell 318, elapsed: 0.000347137451171875
ell 317, elapsed: 0.00034499168395996094
ell 316, elapsed: 0.0003459453582763672
ell 315, elapsed: 0.0003440380096435547
ell 314, elapsed: 0.0003440380096435547
ell 313, elapsed: 0.0003540515899658203
ell 312, elapsed: 0.0003619194030761719
ell 311, elapsed: 0.0003409385681152344
ell 310, elapsed: 0.0003521442413330078
ell 309, elapsed: 0.00034308433532714844
ell 308, elapsed: 0.00034689903259277344
ell 307, elapsed: 0.0003459453582763672
ell 306, elapsed: 0.0003490447998046875
ell 305, elapsed: 0.0003421306610107422
ell 304, elapsed: 0.0003399848937988281
ell 303, elapsed: 0.0003371238708496094
ell 302, elapsed: 0.0003540515899658203
ell 301, elapsed: 0.0003380775451660156
ell 300, elapsed: 0.0003440380096435547
ell 299, elapsed: 0.0003402233123779297
ell 298, elapsed: 0.00034618377685546875
ell 297, elapsed: 0.00034308433532714844
ell 296, elapsed: 0.0003428459167480469
ell 295, elapsed: 0.00034499168395996094
ell 294, elapsed: 0.0003399848937988281
ell 293, elapsed: 0.00034117698669433594
ell 292, elapsed: 0.00035881996154785156
ell 291, elapsed: 0.0003418922424316406
ell 290, elapsed: 0.00034499168395996094
ell 289, elapsed: 0.0003428459167480469
ell 288, elapsed: 0.0003428459167480469
ell 287, elapsed: 0.00034308433532714844
ell 286, elapsed: 0.0003380775451660156
ell 285, elapsed: 0.0003409385681152344
ell 284, elapsed: 0.0003440380096435547
ell 283, elapsed: 0.0003459453582763672
ell 282, elapsed: 0.0003509521484375
ell 281, elapsed: 0.00034999847412109375
ell 280, elapsed: 0.0003490447998046875
ell 279, elapsed: 0.00034499168395996094
ell 278, elapsed: 0.0003440380096435547
ell 277, elapsed: 0.0003440380096435547
ell 276, elapsed: 0.0003409385681152344
ell 275, elapsed: 0.0003612041473388672
ell 274, elapsed: 0.00034689903259277344
ell 273, elapsed: 0.00034499168395996094
ell 272, elapsed: 0.00038504600524902344
ell 271, elapsed: 0.0004360675811767578
ell 270, elapsed: 0.00043487548828125
ell 269, elapsed: 0.0004291534423828125
ell 268, elapsed: 0.000431060791015625
ell 267, elapsed: 0.00042891502380371094
ell 266, elapsed: 0.00042700767517089844
ell 265, elapsed: 0.00043201446533203125
ell 264, elapsed: 0.00043201446533203125
ell 263, elapsed: 0.00043702125549316406
ell 262, elapsed: 0.00042700767517089844
ell 261, elapsed: 0.0004279613494873047
ell 260, elapsed: 0.0004298686981201172
ell 259, elapsed: 0.00042891502380371094
ell 258, elapsed: 0.00042891502380371094
ell 257, elapsed: 0.000431060791015625
ell 256, elapsed: 0.00042891502380371094
ell 255, elapsed: 0.00043702125549316406
ell 254, elapsed: 0.0004279613494873047
ell 253, elapsed: 0.00043201446533203125
ell 252, elapsed: 0.00042700767517089844
ell 251, elapsed: 0.00043010711669921875
ell 250, elapsed: 0.0004291534423828125
ell 249, elapsed: 0.0004260540008544922
ell 248, elapsed: 0.000431060791015625
ell 247, elapsed: 0.00043702125549316406
ell 246, elapsed: 0.0004329681396484375
ell 245, elapsed: 0.00042510032653808594
ell 244, elapsed: 0.00042700767517089844
ell 243, elapsed: 0.00043010711669921875
ell 242, elapsed: 0.00042510032653808594
ell 241, elapsed: 0.0004279613494873047
ell 240, elapsed: 0.00043511390686035156
ell 239, elapsed: 0.0004401206970214844
ell 238, elapsed: 0.0004248619079589844
ell 237, elapsed: 0.00043082237243652344
ell 236, elapsed: 0.00043010711669921875
ell 235, elapsed: 0.00042700767517089844
ell 234, elapsed: 0.0004260540008544922
ell 233, elapsed: 0.00043010711669921875
ell 232, elapsed: 0.0004239082336425781
ell 231, elapsed: 0.00043702125549316406
ell 230, elapsed: 0.0004298686981201172
ell 229, elapsed: 0.0004248619079589844
ell 228, elapsed: 0.0004229545593261719
ell 227, elapsed: 0.0004210472106933594
ell 226, elapsed: 0.0004260540008544922
ell 225, elapsed: 0.00042700767517089844
ell 224, elapsed: 0.0004291534423828125
ell 223, elapsed: 0.00042510032653808594
ell 222, elapsed: 0.0004391670227050781
ell 221, elapsed: 0.0004258155822753906
ell 220, elapsed: 0.0004210472106933594
ell 219, elapsed: 0.00043201446533203125
ell 218, elapsed: 0.0004298686981201172
ell 217, elapsed: 0.0004279613494873047
ell 216, elapsed: 0.000431060791015625
ell 215, elapsed: 0.0004258155822753906
ell 214, elapsed: 0.0004379749298095703
ell 213, elapsed: 0.00042819976806640625
ell 212, elapsed: 0.0004239082336425781
ell 211, elapsed: 0.0004329681396484375
ell 210, elapsed: 0.00043010711669921875
ell 209, elapsed: 0.00043702125549316406
ell 208, elapsed: 0.0004279613494873047
ell 207, elapsed: 0.0004329681396484375
ell 206, elapsed: 0.0004398822784423828
ell 205, elapsed: 0.0004329681396484375
ell 204, elapsed: 0.0004341602325439453
ell 203, elapsed: 0.00043201446533203125
ell 202, elapsed: 0.00042891502380371094
ell 201, elapsed: 0.000431060791015625
ell 200, elapsed: 0.0004248619079589844
ell 199, elapsed: 0.00043320655822753906
ell 198, elapsed: 0.0004391670227050781
ell 197, elapsed: 0.00043320655822753906
ell 196, elapsed: 0.00043010711669921875
ell 195, elapsed: 0.0004291534423828125
ell 194, elapsed: 0.0004360675811767578
ell 193, elapsed: 0.0004279613494873047
ell 192, elapsed: 0.0004317760467529297
ell 191, elapsed: 0.00042700767517089844
ell 190, elapsed: 0.0004379749298095703
ell 189, elapsed: 0.0004291534423828125
ell 188, elapsed: 0.0004248619079589844
ell 187, elapsed: 0.00042510032653808594
ell 186, elapsed: 0.0004258155822753906
ell 185, elapsed: 0.0004210472106933594
ell 184, elapsed: 0.00042700767517089844
ell 183, elapsed: 0.00042891502380371094
ell 182, elapsed: 0.00045013427734375
ell 181, elapsed: 0.0004210472106933594
ell 180, elapsed: 0.0004208087921142578
ell 179, elapsed: 0.0004260540008544922
ell 178, elapsed: 0.0004329681396484375
ell 177, elapsed: 0.00042510032653808594
ell 176, elapsed: 0.0004329681396484375
ell 175, elapsed: 0.00043511390686035156
ell 174, elapsed: 0.0004448890686035156
ell 173, elapsed: 0.00043010711669921875
ell 172, elapsed: 0.00044083595275878906
ell 171, elapsed: 0.0004329681396484375
ell 170, elapsed: 0.0004329681396484375
ell 169, elapsed: 0.0004298686981201172
ell 168, elapsed: 0.0004239082336425781
ell 167, elapsed: 0.0004229545593261719
ell 166, elapsed: 0.0004420280456542969
ell 165, elapsed: 0.0004267692565917969
ell 164, elapsed: 0.0004279613494873047
ell 163, elapsed: 0.00043201446533203125
ell 162, elapsed: 0.00043201446533203125
ell 161, elapsed: 0.0004379749298095703
ell 160, elapsed: 0.000431060791015625
ell 159, elapsed: 0.0004329681396484375
ell 158, elapsed: 0.0004470348358154297
ell 157, elapsed: 0.0004360675811767578
ell 156, elapsed: 0.00043010711669921875
ell 155, elapsed: 0.0004360675811767578
ell 154, elapsed: 0.00043201446533203125
ell 153, elapsed: 0.0004260540008544922
ell 152, elapsed: 0.0004279613494873047
ell 151, elapsed: 0.00042891502380371094
ell 150, elapsed: 0.00043487548828125
ell 149, elapsed: 0.00043582916259765625
ell 148, elapsed: 0.0004220008850097656
ell 147, elapsed: 0.0004258155822753906
ell 146, elapsed: 0.0004239082336425781
ell 145, elapsed: 0.00042700767517089844
ell 144, elapsed: 0.0004279613494873047
ell 143, elapsed: 0.0004248619079589844
ell 142, elapsed: 0.00041794776916503906
ell 141, elapsed: 0.00036716461181640625
ell 140, elapsed: 0.0003581047058105469
ell 139, elapsed: 0.00035309791564941406
ell 138, elapsed: 0.0003600120544433594
ell 137, elapsed: 0.0003638267517089844
ell 136, elapsed: 0.00034308433532714844
ell 135, elapsed: 0.00034499168395996094
ell 134, elapsed: 0.0005080699920654297
ell 133, elapsed: 0.0004260540008544922
ell 132, elapsed: 0.000370025634765625
ell 131, elapsed: 0.00034999847412109375
ell 130, elapsed: 0.0003440380096435547
ell 129, elapsed: 0.0003590583801269531
ell 128, elapsed: 0.0003509521484375
ell 127, elapsed: 0.0003390312194824219
ell 126, elapsed: 0.0003600120544433594
ell 125, elapsed: 0.0003609657287597656
ell 124, elapsed: 0.00034499168395996094
ell 123, elapsed: 0.0003578662872314453
ell 122, elapsed: 0.0003631114959716797
ell 121, elapsed: 0.00034689903259277344
ell 120, elapsed: 0.00034689903259277344
ell 119, elapsed: 0.00035500526428222656
ell 118, elapsed: 0.0003490447998046875
ell 117, elapsed: 0.000370025634765625
ell 116, elapsed: 0.00043511390686035156
ell 115, elapsed: 0.0005211830139160156
ell 114, elapsed: 0.0004780292510986328
ell 113, elapsed: 0.00047707557678222656
ell 112, elapsed: 0.00036907196044921875
ell 111, elapsed: 0.0003559589385986328
ell 110, elapsed: 0.0004990100860595703
ell 109, elapsed: 0.0005710124969482422
ell 108, elapsed: 0.0004420280456542969
ell 107, elapsed: 0.00043201446533203125
ell 106, elapsed: 0.0005280971527099609
ell 105, elapsed: 0.0003490447998046875
ell 104, elapsed: 0.0003571510314941406
ell 103, elapsed: 0.00035190582275390625
ell 102, elapsed: 0.0003478527069091797
ell 101, elapsed: 0.0005230903625488281
ell 100, elapsed: 0.00041604042053222656
ell 99, elapsed: 0.00043702125549316406
ell 98, elapsed: 0.00049591064453125
ell 97, elapsed: 0.0003719329833984375
ell 96, elapsed: 0.00034618377685546875
ell 95, elapsed: 0.0003418922424316406
ell 94, elapsed: 0.00034499168395996094
ell 93, elapsed: 0.0003540515899658203
ell 92, elapsed: 0.00034618377685546875
ell 91, elapsed: 0.0003528594970703125
ell 90, elapsed: 0.0003399848937988281
ell 89, elapsed: 0.0003380775451660156
ell 88, elapsed: 0.0003409385681152344
ell 87, elapsed: 0.0003559589385986328
ell 86, elapsed: 0.0003440380096435547
ell 85, elapsed: 0.0003361701965332031
ell 84, elapsed: 0.000431060791015625
ell 83, elapsed: 0.0006971359252929688
ell 82, elapsed: 0.0007231235504150391
ell 81, elapsed: 0.0007169246673583984
ell 80, elapsed: 0.0005049705505371094
ell 79, elapsed: 0.0006530284881591797
ell 78, elapsed: 0.0007250308990478516
ell 77, elapsed: 0.0007159709930419922
ell 76, elapsed: 0.0005900859832763672
ell 75, elapsed: 0.0006358623504638672
ell 74, elapsed: 0.0005328655242919922
ell 73, elapsed: 0.0004620552062988281
ell 72, elapsed: 0.0006568431854248047
ell 71, elapsed: 0.000762939453125
ell 70, elapsed: 0.0006451606750488281
ell 69, elapsed: 0.0006608963012695312
ell 68, elapsed: 0.0007851123809814453
ell 67, elapsed: 0.0006530284881591797
ell 66, elapsed: 0.0007989406585693359
ell 65, elapsed: 0.0007328987121582031
ell 64, elapsed: 0.0006849765777587891
ell 63, elapsed: 0.0007250308990478516
ell 62, elapsed: 0.0005218982696533203
ell 61, elapsed: 0.0006659030914306641
ell 60, elapsed: 0.0007450580596923828
ell 59, elapsed: 0.0007009506225585938
ell 58, elapsed: 0.0006411075592041016
ell 57, elapsed: 0.0006780624389648438
ell 56, elapsed: 0.0007388591766357422
ell 55, elapsed: 0.0005319118499755859
ell 54, elapsed: 0.000720977783203125
ell 53, elapsed: 0.0005340576171875
ell 52, elapsed: 0.0006971359252929688
ell 51, elapsed: 0.0007929801940917969
ell 50, elapsed: 0.000762939453125
ell 49, elapsed: 0.0007340908050537109
ell 48, elapsed: 0.0006740093231201172
ell 47, elapsed: 0.0007190704345703125
ell 46, elapsed: 0.0007028579711914062
ell 45, elapsed: 0.0006690025329589844
ell 44, elapsed: 0.0007758140563964844
ell 43, elapsed: 0.0007128715515136719
ell 42, elapsed: 0.0007431507110595703
ell 41, elapsed: 0.0007350444793701172
ell 40, elapsed: 0.0004909038543701172
ell 39, elapsed: 0.00047087669372558594
ell 38, elapsed: 0.0006589889526367188
ell 37, elapsed: 0.0007607936859130859
ell 36, elapsed: 0.0004978179931640625
ell 35, elapsed: 0.0007390975952148438
ell 34, elapsed: 0.0005221366882324219
ell 33, elapsed: 0.0007250308990478516
ell 32, elapsed: 0.0007140636444091797
ell 31, elapsed: 0.0005419254302978516
ell 30, elapsed: 0.0006899833679199219
ell 29, elapsed: 0.0006940364837646484
ell 28, elapsed: 0.0005249977111816406
ell 27, elapsed: 0.0005230903625488281
ell 26, elapsed: 0.0005180835723876953
ell 25, elapsed: 0.0007200241088867188
ell 24, elapsed: 0.0005700588226318359
ell 23, elapsed: 0.0005409717559814453
ell 22, elapsed: 0.0007588863372802734
ell 21, elapsed: 0.0005290508270263672
ell 20, elapsed: 0.000514984130859375
ell 19, elapsed: 0.0007719993591308594
ell 18, elapsed: 0.0006518363952636719
ell 17, elapsed: 0.0007939338684082031
ell 16, elapsed: 0.0009410381317138672
ell 15, elapsed: 0.0008330345153808594
ell 14, elapsed: 0.0007648468017578125
ell 13, elapsed: 0.0007700920104980469
ell 12, elapsed: 0.0007870197296142578
ell 11, elapsed: 0.0007619857788085938
ell 10, elapsed: 0.0007650852203369141
ell 9, elapsed: 0.0007908344268798828
ell 8, elapsed: 0.0007901191711425781
ell 7, elapsed: 0.0008008480072021484
ell 6, elapsed: 0.0007579326629638672
ell 5, elapsed: 0.0007288455963134766
ell 4, elapsed: 0.0008699893951416016
ell 3, elapsed: 0.0007710456848144531
ell 2, elapsed: 0.0007991790771484375
ell 1, elapsed: 0.0007729530334472656
ell 0, elapsed: 0.0007588863372802734
  0.842606 seconds (103.30 k allocations: 3.965 MiB)
elapsed: 0.0014841556549072266
step:          0.073399 sec (0 allocations: 0 byte, 0.0% gc time)
swapping:      0.00072 sec (0 allocations: 0 byte, 0.0% gc time)
calc_Mellell!: 0.012193 sec (0 allocations: 0 byte, 0.0% gc time)
  t0 :  0.002328 sec (0 allocations: 0 byte, 0.0% gc time)
  tm2 : 0.106665 sec (0 allocations: 0 byte, 0.0% gc time)
  tm2s: 0.001468 sec (0 allocations: 0 byte, 0.0% gc time)
  tm4 : 0.263362 sec (0 allocations: 0 byte, 0.0% gc time)
  tp2 : 0.0 sec (0 allocations: 0 byte, 0.0% gc time)
  tp2s: 0.0 sec (0 allocations: 0 byte, 0.0% gc time)
  tp4 : 0.0 sec (0 allocations: 0 byte, 0.0% gc time)
calc_wtdll!:   0.406326 sec (9.9 k allocations: 1.047 MB, 0.0% gc time)
calc_wljj!:    0.039947 sec (689 allocations: 10.766 KB, 0.0% gc time)
mult_prefac!:  0.0 sec (0 allocations: 0 byte, 0.0% gc time)
convert:       0.0 sec (0 allocations: 0 byte, 0.0% gc time)
write:         0.042201 sec (0 allocations: 0 byte, 0.0% gc time)
test_rand_2f1: 0.0 sec (0 allocations: 0 byte, 0.0% gc time)
Closing outfile out/Ml21-cache.bin...   0.000009 seconds
  0.000484 seconds (36 allocations: 27.953 KiB)
make_phi():   0.002913 seconds (8.18 k allocations: 237.844 KiB)
  0.264275 seconds (141.90 k allocations: 3.483 MiB)
tskip:       0.001328 sec (0 allocations: 0 byte, 0.0% gc time)
tread:       0.031826 sec (17 allocations: 10.641 KB, 0.0% gc time)
tmultphi:    0.018641 sec (0 allocations: 0 byte, 0.0% gc time)
tbrfft:      0.063931 sec (0 allocations: 0 byte, 0.0% gc time)
tmultprefac: 0.055032 sec (0 allocations: 0 byte, 0.0% gc time)
toutfunc:    0.087809 sec (127.507 k allocations: 2.312 MB, 0.0% gc time)
Testing R=1.0 ... passed
Calculating fmax: 
  dlrec    = 4
  dlrecRg1 = -4
  q=1.1, R=0.9:	  0.484739 seconds (105.76 k allocations: 15.287 MiB, 3.30% gc time)

  0.486246 seconds (105.99 k allocations: 15.324 MiB, 3.29% gc time)
ℓ = 1202
Δℓ = 4
ΔℓRg1 = -4
N = 1600
q = 1.1
kmin = 1.0e-5
kmax = 100000.00000000004
χ0 = 0.023029999999999995
RR = RR.tsv
ℓmax = ℓmax.bin
f21 = f21.bin
kmin = 1.0e-5
kmax = 100000.0
dlrec    = 4
dlrecRg1 = -4
Output size: 5741568 bytes = 0.005347251892089844 GiB
Output size: 51264 bytes = 4.774332046508789e-5 GiB
Reading 'out/F21EllCache'...   0.001107 seconds (197 allocations: 84.203 KiB)
ellmax: 1202
lmaxcache: 1202
fell[:,1,1] = ComplexF64[1.3482014726274674e-57 - 3.302141236118086e-73im, 1.357860004724329e-57 - 3.3257978169518355e-73im]
ell 1202, elapsed: 0.00011992454528808594
ell 1201, elapsed: 0.0005009174346923828
ell 1200, elapsed: 0.0004680156707763672
ell 1199, elapsed: 0.0004799365997314453
ell 1198, elapsed: 0.0003859996795654297
ell 1002, elapsed: 0.011512994766235352
ell 1001, elapsed: 0.0004911422729492188
ell 1000, elapsed: 0.0004830360412597656
ell 999, elapsed: 0.00047898292541503906
ell 998, elapsed: 0.0004730224609375
ell 902, elapsed: 0.005853891372680664
ell 901, elapsed: 0.0006940364837646484
ell 900, elapsed: 0.0007059574127197266
ell 899, elapsed: 0.00084686279296875
ell 898, elapsed: 0.0005929470062255859
ell 802, elapsed: 0.005700826644897461
ell 801, elapsed: 0.0008070468902587891
ell 800, elapsed: 0.0006759166717529297
ell 799, elapsed: 0.0006699562072753906
ell 798, elapsed: 0.0006968975067138672
ell 702, elapsed: 0.0056841373443603516
ell 701, elapsed: 0.0007250308990478516
ell 700, elapsed: 0.00067901611328125
ell 699, elapsed: 0.0004448890686035156
ell 698, elapsed: 0.0004000663757324219
ell 602, elapsed: 0.005280971527099609
ell 601, elapsed: 0.000698089599609375
ell 600, elapsed: 0.0006420612335205078
ell 599, elapsed: 0.0006659030914306641
ell 598, elapsed: 0.0007061958312988281
ell 502, elapsed: 0.005579948425292969
ell 501, elapsed: 0.0006480216979980469
ell 500, elapsed: 0.0006158351898193359
ell 499, elapsed: 0.0007848739624023438
ell 498, elapsed: 0.0007178783416748047
ell 402, elapsed: 0.005567073822021484
ell 401, elapsed: 0.0006270408630371094
ell 400, elapsed: 0.0006649494171142578
ell 399, elapsed: 0.0007369518280029297
ell 398, elapsed: 0.0007309913635253906
ell 302, elapsed: 0.005676984786987305
ell 301, elapsed: 0.0006840229034423828
ell 300, elapsed: 0.0006740093231201172
ell 299, elapsed: 0.0006809234619140625
ell 298, elapsed: 0.0006480216979980469
ell 202, elapsed: 0.005621910095214844
ell 201, elapsed: 0.0006389617919921875
ell 200, elapsed: 0.0006368160247802734
ell 199, elapsed: 0.0007119178771972656
ell 198, elapsed: 0.000576019287109375
ell 152, elapsed: 0.003081083297729492
ell 151, elapsed: 0.0006220340728759766
ell 150, elapsed: 0.0004410743713378906
ell 149, elapsed: 0.0003991127014160156
ell 148, elapsed: 0.0004000663757324219
ell 127, elapsed: 0.0014641284942626953
ell 126, elapsed: 0.0006849765777587891
ell 125, elapsed: 0.0006921291351318359
ell 124, elapsed: 0.0006940364837646484
ell 123, elapsed: 0.00047206878662109375
ell 114, elapsed: 0.0012290477752685547
ell 113, elapsed: 0.0006430149078369141
ell 112, elapsed: 0.00067901611328125
ell 111, elapsed: 0.0007309913635253906
ell 110, elapsed: 0.0007069110870361328
ell 102, elapsed: 0.0009570121765136719
ell 101, elapsed: 0.0006480216979980469
ell 100, elapsed: 0.00047588348388671875
ell 99, elapsed: 0.00043702125549316406
ell 98, elapsed: 0.0006248950958251953
ell 97, elapsed: 0.0008490085601806641
ell 96, elapsed: 0.0008220672607421875
ell 95, elapsed: 0.0008089542388916016
ell 94, elapsed: 0.0007500648498535156
ell 93, elapsed: 0.0007991790771484375
ell 92, elapsed: 0.0008170604705810547
ell 91, elapsed: 0.0007839202880859375
ell 90, elapsed: 0.0007650852203369141
ell 89, elapsed: 0.0008499622344970703
ell 88, elapsed: 0.0008099079132080078
ell 87, elapsed: 0.0008368492126464844
ell 86, elapsed: 0.0008358955383300781
ell 85, elapsed: 0.0008258819580078125
ell 84, elapsed: 0.0007760524749755859
ell 83, elapsed: 0.0008029937744140625
ell 82, elapsed: 0.0008389949798583984
ell 81, elapsed: 0.0008101463317871094
ell 80, elapsed: 0.0007941722869873047
ell 79, elapsed: 0.0008471012115478516
ell 78, elapsed: 0.0007588863372802734
ell 77, elapsed: 0.0005731582641601562
ell 76, elapsed: 0.0007109642028808594
ell 75, elapsed: 0.0007338523864746094
ell 74, elapsed: 0.0005440711975097656
ell 73, elapsed: 0.0005319118499755859
ell 72, elapsed: 0.0007948875427246094
ell 71, elapsed: 0.0007989406585693359
ell 70, elapsed: 0.0007340908050537109
ell 69, elapsed: 0.0007939338684082031
ell 68, elapsed: 0.0007171630859375
ell 67, elapsed: 0.0005199909210205078
ell 66, elapsed: 0.00047278404235839844
ell 65, elapsed: 0.00045800209045410156
ell 64, elapsed: 0.0004570484161376953
ell 63, elapsed: 0.0004489421844482422
ell 62, elapsed: 0.00047397613525390625
ell 61, elapsed: 0.0007910728454589844
ell 60, elapsed: 0.0008060932159423828
ell 59, elapsed: 0.0008220672607421875
ell 58, elapsed: 0.0008411407470703125
ell 57, elapsed: 0.0008051395416259766
ell 56, elapsed: 0.0007538795471191406
ell 55, elapsed: 0.0007679462432861328
ell 54, elapsed: 0.0007998943328857422
ell 53, elapsed: 0.0007660388946533203
ell 52, elapsed: 0.0008230209350585938
ell 51, elapsed: 0.0007269382476806641
ell 50, elapsed: 0.0007808208465576172
ell 49, elapsed: 0.0007798671722412109
ell 48, elapsed: 0.0007369518280029297
ell 47, elapsed: 0.0007638931274414062
ell 46, elapsed: 0.0005390644073486328
ell 45, elapsed: 0.0005528926849365234
ell 44, elapsed: 0.0007538795471191406
ell 43, elapsed: 0.0007679462432861328
ell 42, elapsed: 0.0005440711975097656
ell 41, elapsed: 0.0007529258728027344
ell 40, elapsed: 0.0007669925689697266
ell 39, elapsed: 0.0005600452423095703
ell 38, elapsed: 0.0007228851318359375
ell 37, elapsed: 0.0008080005645751953
ell 36, elapsed: 0.000743865966796875
ell 35, elapsed: 0.0008139610290527344
ell 34, elapsed: 0.0007700920104980469
ell 33, elapsed: 0.0007040500640869141
ell 32, elapsed: 0.0007681846618652344
ell 31, elapsed: 0.0007147789001464844
ell 30, elapsed: 0.0008161067962646484
ell 29, elapsed: 0.0007579326629638672
ell 28, elapsed: 0.0007369518280029297
ell 27, elapsed: 0.0007910728454589844
ell 26, elapsed: 0.0007929801940917969
ell 25, elapsed: 0.000827789306640625
ell 24, elapsed: 0.0005671977996826172
ell 23, elapsed: 0.00080108642578125
ell 22, elapsed: 0.0007870197296142578
ell 21, elapsed: 0.0007860660552978516
ell 20, elapsed: 0.0007607936859130859
ell 19, elapsed: 0.0008029937744140625
ell 18, elapsed: 0.0007951259613037109
ell 17, elapsed: 0.0007700920104980469
ell 16, elapsed: 0.0006709098815917969
ell 15, elapsed: 0.0008001327514648438
ell 14, elapsed: 0.0005431175231933594
ell 13, elapsed: 0.0005540847778320312
ell 12, elapsed: 0.0007021427154541016
ell 11, elapsed: 0.0005359649658203125
ell 10, elapsed: 0.0007011890411376953
ell 9, elapsed: 0.0005159378051757812
ell 8, elapsed: 0.0004980564117431641
ell 7, elapsed: 0.00046706199645996094
ell 6, elapsed: 0.00045609474182128906
ell 5, elapsed: 0.0004570484161376953
ell 4, elapsed: 0.00045990943908691406
ell 3, elapsed: 0.0007340908050537109
ell 2, elapsed: 0.000514984130859375
ell 1, elapsed: 0.0007700920104980469
ell 0, elapsed: 0.000762939453125
  0.224337 seconds (19.48 k allocations: 844.188 KiB)
elapsed: 0.0014929771423339844
step:          0.065458 sec (0 allocations: 0 byte, 0.0% gc time)
swapping:      0.000527 sec (0 allocations: 0 byte, 0.0% gc time)
calc_Mellell!: 0.001917 sec (0 allocations: 0 byte, 0.0% gc time)
  t0 :  0.000344 sec (0 allocations: 0 byte, 0.0% gc time)
  tm2 : 0.01581 sec (0 allocations: 0 byte, 0.0% gc time)
  tm2s: 0.000266 sec (0 allocations: 0 byte, 0.0% gc time)
  tm4 : 0.045999 sec (0 allocations: 0 byte, 0.0% gc time)
  tp2 : 0.0 sec (0 allocations: 0 byte, 0.0% gc time)
  tp2s: 0.0 sec (0 allocations: 0 byte, 0.0% gc time)
  tp4 : 0.0 sec (0 allocations: 0 byte, 0.0% gc time)
calc_wtdll!:   0.063145 sec (1.344 k allocations: 147.0 KB, 0.0% gc time)
calc_wljj!:    0.005949 sec (6 allocations: 96 byte, 0.0% gc time)
mult_prefac!:  0.0 sec (0 allocations: 0 byte, 0.0% gc time)
convert:       0.0 sec (0 allocations: 0 byte, 0.0% gc time)
write:         0.005038 sec (0 allocations: 0 byte, 0.0% gc time)
test_rand_2f1: 0.0 sec (0 allocations: 0 byte, 0.0% gc time)
Closing outfile out/Ml21-cache.bin...   0.000008 seconds
  0.000465 seconds (36 allocations: 27.953 KiB)
make_phi():   0.002829 seconds (8.18 k allocations: 237.844 KiB)
  0.024950 seconds (11.65 k allocations: 308.688 KiB)
tskip:       2.7e-5 sec (0 allocations: 0 byte, 0.0% gc time)
tread:       0.003242 sec (17 allocations: 2.125 KB, 0.0% gc time)
tmultphi:    0.00179 sec (0 allocations: 0 byte, 0.0% gc time)
tbrfft:      0.005935 sec (0 allocations: 0 byte, 0.0% gc time)
tmultprefac: 0.00526 sec (0 allocations: 0 byte, 0.0% gc time)
toutfunc:    0.008227 sec (10.304 k allocations: 196.0 KB, 0.0% gc time)
Testing R=0.9 ... passed
Calculating fmax: 
  dlrec    = 4
  dlrecRg1 = -4
  q=1.1, R=0.8:	  0.402551 seconds (103.25 k allocations: 14.856 MiB)

  0.402940 seconds (103.48 k allocations: 14.893 MiB)
ℓ = 1202
Δℓ = 4
ΔℓRg1 = -4
N = 1600
q = 1.1
kmin = 1.0e-5
kmax = 100000.00000000004
χ0 = 0.023029999999999995
RR = RR.tsv
ℓmax = ℓmax.bin
f21 = f21.bin
kmin = 1.0e-5
kmax = 100000.0
dlrec    = 4
dlrecRg1 = -4
Output size: 5741568 bytes = 0.005347251892089844 GiB
Output size: 51264 bytes = 4.774332046508789e-5 GiB
Reading 'out/F21EllCache'...   0.001046 seconds (197 allocations: 84.203 KiB)
ellmax: 1202
lmaxcache: 1202
fell[:,1,1] = ComplexF64[7.519068145690986e-120 - 1.8416405474382574e-135im, 7.541664537386155e-120 - 1.847175067190611e-135im]
ell 1202, elapsed: 2.384185791015625e-5
ell 1201, elapsed: 0.00045108795166015625
ell 1200, elapsed: 0.00041413307189941406
ell 1199, elapsed: 0.0004069805145263672
ell 1198, elapsed: 0.0004029273986816406
ell 1002, elapsed: 0.009794950485229492
ell 1001, elapsed: 0.00037789344787597656
ell 1000, elapsed: 0.00036597251892089844
ell 999, elapsed: 0.0003581047058105469
ell 998, elapsed: 0.0003612041473388672
ell 902, elapsed: 0.004976034164428711
ell 901, elapsed: 0.0004000663757324219
ell 900, elapsed: 0.0003979206085205078
ell 899, elapsed: 0.00040912628173828125
ell 898, elapsed: 0.000598907470703125
ell 802, elapsed: 0.005545139312744141
ell 801, elapsed: 0.0004100799560546875
ell 800, elapsed: 0.0003898143768310547
ell 799, elapsed: 0.00038695335388183594
ell 798, elapsed: 0.00038504600524902344
ell 702, elapsed: 0.005165815353393555
ell 701, elapsed: 0.0004811286926269531
ell 700, elapsed: 0.00042891502380371094
ell 699, elapsed: 0.00040912628173828125
ell 698, elapsed: 0.00041294097900390625
ell 602, elapsed: 0.005160093307495117
ell 601, elapsed: 0.0004260540008544922
ell 600, elapsed: 0.0006308555603027344
ell 599, elapsed: 0.0004169940948486328
ell 598, elapsed: 0.00043892860412597656
ell 502, elapsed: 0.005439043045043945
ell 501, elapsed: 0.0004410743713378906
ell 500, elapsed: 0.0004699230194091797
ell 499, elapsed: 0.0005950927734375
ell 498, elapsed: 0.0005090236663818359
ell 402, elapsed: 0.005532026290893555
ell 401, elapsed: 0.0004909038543701172
ell 400, elapsed: 0.0005581378936767578
ell 399, elapsed: 0.0005550384521484375
ell 398, elapsed: 0.0005550384521484375
ell 302, elapsed: 0.0069119930267333984
ell 301, elapsed: 0.00048804283142089844
ell 300, elapsed: 0.0004658699035644531
ell 299, elapsed: 0.00047779083251953125
ell 298, elapsed: 0.0004379749298095703
ell 202, elapsed: 0.006446123123168945
ell 201, elapsed: 0.0004849433898925781
ell 200, elapsed: 0.0004830360412597656
ell 199, elapsed: 0.00047779083251953125
ell 198, elapsed: 0.00047397613525390625
ell 152, elapsed: 0.0030679702758789062
ell 151, elapsed: 0.00039887428283691406
ell 150, elapsed: 0.0003769397735595703
ell 149, elapsed: 0.00037980079650878906
ell 148, elapsed: 0.00043487548828125
ell 127, elapsed: 0.002012014389038086
ell 126, elapsed: 0.0005550384521484375
ell 125, elapsed: 0.0005540847778320312
ell 124, elapsed: 0.0005619525909423828
ell 123, elapsed: 0.0005359649658203125
ell 114, elapsed: 0.0011849403381347656
ell 113, elapsed: 0.0005309581756591797
ell 112, elapsed: 0.0005600452423095703
ell 111, elapsed: 0.0005478858947753906
ell 110, elapsed: 0.0005578994750976562
ell 102, elapsed: 0.0010790824890136719
ell 101, elapsed: 0.0005800724029541016
ell 100, elapsed: 0.0005500316619873047
ell 99, elapsed: 0.0005478858947753906
ell 98, elapsed: 0.0005488395690917969
ell 97, elapsed: 0.0006530284881591797
ell 96, elapsed: 0.0006330013275146484
ell 95, elapsed: 0.0006198883056640625
ell 94, elapsed: 0.0006320476531982422
ell 93, elapsed: 0.0006330013275146484
ell 92, elapsed: 0.0006439685821533203
ell 91, elapsed: 0.0006079673767089844
ell 90, elapsed: 0.000640869140625
ell 89, elapsed: 0.0006339550018310547
ell 88, elapsed: 0.0006339550018310547
ell 87, elapsed: 0.0006108283996582031
ell 86, elapsed: 0.0006289482116699219
ell 85, elapsed: 0.000637054443359375
ell 84, elapsed: 0.0006349086761474609
ell 83, elapsed: 0.0005309581756591797
ell 82, elapsed: 0.0005779266357421875
ell 81, elapsed: 0.0005540847778320312
ell 80, elapsed: 0.0005698204040527344
ell 79, elapsed: 0.0005588531494140625
ell 78, elapsed: 0.0005939006805419922
ell 77, elapsed: 0.0005681514739990234
ell 76, elapsed: 0.0005679130554199219
ell 75, elapsed: 0.0005710124969482422
ell 74, elapsed: 0.0005688667297363281
ell 73, elapsed: 0.0005559921264648438
ell 72, elapsed: 0.0005829334259033203
ell 71, elapsed: 0.0005660057067871094
ell 70, elapsed: 0.0005819797515869141
ell 69, elapsed: 0.000579833984375
ell 68, elapsed: 0.0005669593811035156
ell 67, elapsed: 0.0005700588226318359
ell 66, elapsed: 0.0005781650543212891
ell 65, elapsed: 0.00047707557678222656
ell 64, elapsed: 0.00042891502380371094
ell 63, elapsed: 0.00045180320739746094
ell 62, elapsed: 0.00045299530029296875
ell 61, elapsed: 0.00044989585876464844
ell 60, elapsed: 0.0004470348358154297
ell 59, elapsed: 0.00045299530029296875
ell 58, elapsed: 0.0004508495330810547
ell 57, elapsed: 0.0004401206970214844
ell 56, elapsed: 0.00044989585876464844
ell 55, elapsed: 0.00044798851013183594
ell 54, elapsed: 0.0004420280456542969
ell 53, elapsed: 0.0004570484161376953
ell 52, elapsed: 0.0004570484161376953
ell 51, elapsed: 0.0004050731658935547
ell 50, elapsed: 0.00048613548278808594
ell 49, elapsed: 0.0004780292510986328
ell 48, elapsed: 0.0004949569702148438
ell 47, elapsed: 0.0004870891571044922
ell 46, elapsed: 0.00045680999755859375
ell 45, elapsed: 0.0005190372467041016
ell 44, elapsed: 0.0004799365997314453
ell 43, elapsed: 0.0004930496215820312
[...]
ell 788, elapsed: 0.0008480548858642578
ell 782, elapsed: 0.001580953598022461
ell 781, elapsed: 0.0009791851043701172
ell 780, elapsed: 0.0008578300476074219
ell 779, elapsed: 0.0008499622344970703
ell 778, elapsed: 0.0008559226989746094
ell 772, elapsed: 0.0017108917236328125
ell 771, elapsed: 0.0008499622344970703
ell 770, elapsed: 0.0008540153503417969
ell 769, elapsed: 0.0008461475372314453
ell 768, elapsed: 0.0012691020965576172
ell 762, elapsed: 0.0015778541564941406
ell 761, elapsed: 0.0008509159088134766
ell 760, elapsed: 0.0010020732879638672
ell 759, elapsed: 0.0008420944213867188
ell 758, elapsed: 0.0008559226989746094
ell 752, elapsed: 0.0016469955444335938
ell 751, elapsed: 0.0008511543273925781
ell 750, elapsed: 0.0008571147918701172
ell 749, elapsed: 0.0008351802825927734
ell 748, elapsed: 0.0008389949798583984
ell 742, elapsed: 0.001589059829711914
ell 741, elapsed: 0.0008478164672851562
ell 740, elapsed: 0.0008540153503417969
ell 739, elapsed: 0.0009720325469970703
ell 738, elapsed: 0.0008552074432373047
ell 732, elapsed: 0.0015790462493896484
ell 731, elapsed: 0.00084686279296875
ell 730, elapsed: 0.0008559226989746094
ell 729, elapsed: 0.0008440017700195312
ell 728, elapsed: 0.0008530616760253906
ell 722, elapsed: 0.0016679763793945312
ell 721, elapsed: 0.0008289813995361328
ell 720, elapsed: 0.0008540153503417969
ell 719, elapsed: 0.0008471012115478516
ell 718, elapsed: 0.0009839534759521484
ell 712, elapsed: 0.0015950202941894531
ell 711, elapsed: 0.0008480548858642578
ell 710, elapsed: 0.0008549690246582031
ell 709, elapsed: 0.001027822494506836
ell 708, elapsed: 0.0008590221405029297
ell 702, elapsed: 0.0015769004821777344
ell 701, elapsed: 0.0009739398956298828
ell 700, elapsed: 0.0008568763732910156
ell 699, elapsed: 0.0008459091186523438
ell 698, elapsed: 0.0008559226989746094
ell 692, elapsed: 0.0017039775848388672
ell 691, elapsed: 0.0008559226989746094
ell 690, elapsed: 0.0008530616760253906
ell 689, elapsed: 0.0008471012115478516
ell 688, elapsed: 0.001051187515258789
ell 682, elapsed: 0.0015900135040283203
ell 681, elapsed: 0.0008499622344970703
ell 680, elapsed: 0.0009698867797851562
ell 679, elapsed: 0.0008461475372314453
ell 678, elapsed: 0.0008490085601806641
ell 672, elapsed: 0.0015840530395507812
ell 671, elapsed: 0.0009131431579589844
ell 670, elapsed: 0.0008590221405029297
ell 669, elapsed: 0.0008490085601806641
ell 668, elapsed: 0.0008540153503417969
ell 662, elapsed: 0.0016489028930664062
ell 661, elapsed: 0.0008511543273925781
ell 660, elapsed: 0.0008561611175537109
ell 659, elapsed: 0.0008440017700195312
ell 658, elapsed: 0.0009028911590576172
ell 652, elapsed: 0.001600027084350586
ell 651, elapsed: 0.0008449554443359375
ell 650, elapsed: 0.0009319782257080078
ell 649, elapsed: 0.0008108615875244141
ell 648, elapsed: 0.0008490085601806641
ell 642, elapsed: 0.0015749931335449219
ell 641, elapsed: 0.0009140968322753906
ell 640, elapsed: 0.0008630752563476562
ell 639, elapsed: 0.0008499622344970703
ell 638, elapsed: 0.0008509159088134766
ell 632, elapsed: 0.0016379356384277344
ell 631, elapsed: 0.0008499622344970703
ell 630, elapsed: 0.0008590221405029297
ell 629, elapsed: 0.0008449554443359375
ell 628, elapsed: 0.0008051395416259766
ell 622, elapsed: 0.0012600421905517578
ell 621, elapsed: 0.0006871223449707031
ell 620, elapsed: 0.0006930828094482422
ell 619, elapsed: 0.0008170604705810547
ell 618, elapsed: 0.0008568763732910156
ell 612, elapsed: 0.0015690326690673828
ell 611, elapsed: 0.0008480548858642578
ell 610, elapsed: 0.0008749961853027344
ell 609, elapsed: 0.0008499622344970703
ell 608, elapsed: 0.0008568763732910156
ell 602, elapsed: 0.0015981197357177734
ell 601, elapsed: 0.0008502006530761719
ell 600, elapsed: 0.0008540153503417969
ell 599, elapsed: 0.0008459091186523438
ell 598, elapsed: 0.0008640289306640625
ell 592, elapsed: 0.001605987548828125
ell 591, elapsed: 0.0008158683776855469
ell 590, elapsed: 0.0008549690246582031
ell 589, elapsed: 0.0008649826049804688
ell 588, elapsed: 0.0008561611175537109
ell 582, elapsed: 0.0015790462493896484
ell 581, elapsed: 0.0008499622344970703
ell 580, elapsed: 0.0008800029754638672
ell 579, elapsed: 0.0008530616760253906
ell 578, elapsed: 0.0008530616760253906
ell 572, elapsed: 0.0015840530395507812
ell 571, elapsed: 0.00084686279296875
ell 570, elapsed: 0.0008540153503417969
ell 569, elapsed: 0.0008518695831298828
ell 568, elapsed: 0.0008549690246582031
ell 562, elapsed: 0.0016179084777832031
ell 561, elapsed: 0.00084686279296875
ell 560, elapsed: 0.0008521080017089844
ell 559, elapsed: 0.0008490085601806641
ell 558, elapsed: 0.0008738040924072266
ell 552, elapsed: 0.0015871524810791016
ell 551, elapsed: 0.0008540153503417969
ell 550, elapsed: 0.0008909702301025391
ell 549, elapsed: 0.0008568763732910156
ell 548, elapsed: 0.000865936279296875
ell 542, elapsed: 0.0018739700317382812
ell 541, elapsed: 0.0007920265197753906
ell 540, elapsed: 0.000881195068359375
ell 539, elapsed: 0.0008490085601806641
ell 538, elapsed: 0.0008559226989746094
ell 532, elapsed: 0.0017099380493164062
ell 531, elapsed: 0.0008549690246582031
ell 530, elapsed: 0.0008599758148193359
ell 529, elapsed: 0.0008628368377685547
ell 528, elapsed: 0.0008530616760253906
ell 522, elapsed: 0.0015828609466552734
ell 521, elapsed: 0.0008549690246582031
ell 520, elapsed: 0.000865936279296875
ell 519, elapsed: 0.0008509159088134766
ell 518, elapsed: 0.0008530616760253906
ell 512, elapsed: 0.001750946044921875
ell 511, elapsed: 0.0008580684661865234
ell 510, elapsed: 0.0008518695831298828
ell 509, elapsed: 0.0008540153503417969
ell 508, elapsed: 0.0008571147918701172
ell 502, elapsed: 0.0015871524810791016
ell 501, elapsed: 0.0008409023284912109
ell 500, elapsed: 0.0008509159088134766
ell 499, elapsed: 0.0008699893951416016
ell 498, elapsed: 0.00084686279296875
ell 492, elapsed: 0.0015721321105957031
ell 491, elapsed: 0.0008378028869628906
ell 490, elapsed: 0.0007469654083251953
ell 489, elapsed: 0.0006878376007080078
ell 488, elapsed: 0.0006859302520751953
ell 482, elapsed: 0.0012390613555908203
ell 481, elapsed: 0.0008220672607421875
ell 480, elapsed: 0.0008578300476074219
ell 479, elapsed: 0.0008389949798583984
ell 478, elapsed: 0.0008499622344970703
ell 472, elapsed: 0.001672983169555664
ell 471, elapsed: 0.0008499622344970703
ell 470, elapsed: 0.0008559226989746094
ell 469, elapsed: 0.0008509159088134766
ell 468, elapsed: 0.0008678436279296875
ell 462, elapsed: 0.0015840530395507812
ell 461, elapsed: 0.0008540153503417969
ell 460, elapsed: 0.0008571147918701172
ell 459, elapsed: 0.0008771419525146484
ell 458, elapsed: 0.0008549690246582031
ell 452, elapsed: 0.001519918441772461
ell 451, elapsed: 0.0008699893951416016
ell 450, elapsed: 0.0008609294891357422
ell 449, elapsed: 0.0008471012115478516
ell 448, elapsed: 0.0008559226989746094
ell 442, elapsed: 0.0016050338745117188
ell 441, elapsed: 0.0008571147918701172
ell 440, elapsed: 0.0008540153503417969
ell 439, elapsed: 0.0008511543273925781
ell 438, elapsed: 0.0008709430694580078
ell 432, elapsed: 0.0015859603881835938
ell 431, elapsed: 0.0008530616760253906
ell 430, elapsed: 0.0008568763732910156
ell 429, elapsed: 0.0008869171142578125
ell 428, elapsed: 0.0008420944213867188
ell 422, elapsed: 0.0015988349914550781
ell 421, elapsed: 0.0009429454803466797
ell 420, elapsed: 0.0008518695831298828
ell 419, elapsed: 0.0008399486541748047
ell 418, elapsed: 0.0008549690246582031
ell 412, elapsed: 0.0016570091247558594
ell 411, elapsed: 0.0008590221405029297
ell 410, elapsed: 0.0008511543273925781
ell 409, elapsed: 0.0008490085601806641
ell 408, elapsed: 0.0009050369262695312
ell 402, elapsed: 0.0012478828430175781
ell 401, elapsed: 0.0006890296936035156
ell 400, elapsed: 0.0006911754608154297
ell 399, elapsed: 0.0006821155548095703
ell 398, elapsed: 0.0009090900421142578
ell 392, elapsed: 0.0015828609466552734
ell 391, elapsed: 0.0008502006530761719
ell 390, elapsed: 0.0011050701141357422
ell 389, elapsed: 0.0008549690246582031
ell 388, elapsed: 0.0008521080017089844
ell 382, elapsed: 0.001583099365234375
ell 381, elapsed: 0.0010519027709960938
ell 380, elapsed: 0.0008490085601806641
ell 379, elapsed: 0.0008449554443359375
ell 378, elapsed: 0.0008568763732910156
ell 372, elapsed: 0.0017428398132324219
ell 371, elapsed: 0.0008559226989746094
ell 370, elapsed: 0.0008549690246582031
ell 369, elapsed: 0.000865936279296875
ell 368, elapsed: 0.0008540153503417969
ell 362, elapsed: 0.0016131401062011719
ell 361, elapsed: 0.0008561611175537109
ell 360, elapsed: 0.0008718967437744141
ell 359, elapsed: 0.0008471012115478516
ell 358, elapsed: 0.0008549690246582031
ell 352, elapsed: 0.0016601085662841797
ell 351, elapsed: 0.0008518695831298828
ell 350, elapsed: 0.0008549690246582031
ell 349, elapsed: 0.00084686279296875
ell 348, elapsed: 0.0008521080017089844
ell 342, elapsed: 0.0016829967498779297
ell 341, elapsed: 0.0008518695831298828
ell 340, elapsed: 0.0008518695831298828
ell 339, elapsed: 0.0010900497436523438
ell 338, elapsed: 0.0008549690246582031
ell 332, elapsed: 0.001583099365234375
ell 331, elapsed: 0.0008509159088134766
ell 330, elapsed: 0.0009109973907470703
ell 329, elapsed: 0.0008490085601806641
ell 328, elapsed: 0.0008518695831298828
ell 322, elapsed: 0.0016820430755615234
ell 321, elapsed: 0.0008530616760253906
ell 320, elapsed: 0.0008540153503417969
ell 319, elapsed: 0.0008440017700195312
ell 318, elapsed: 0.0009348392486572266
ell 312, elapsed: 0.0015981197357177734
ell 311, elapsed: 0.0008490085601806641
ell 310, elapsed: 0.0008580684661865234
ell 309, elapsed: 0.0009448528289794922
ell 308, elapsed: 0.0008521080017089844
ell 302, elapsed: 0.0015358924865722656
ell 301, elapsed: 0.0008471012115478516
ell 300, elapsed: 0.0009489059448242188
ell 299, elapsed: 0.0008480548858642578
ell 298, elapsed: 0.0008549690246582031
ell 292, elapsed: 0.0016131401062011719
ell 291, elapsed: 0.0008521080017089844
ell 290, elapsed: 0.0008590221405029297
ell 289, elapsed: 0.0008502006530761719
ell 288, elapsed: 0.0008668899536132812
ell 282, elapsed: 0.0015718936920166016
ell 281, elapsed: 0.0008490085601806641
ell 280, elapsed: 0.0008540153503417969
ell 279, elapsed: 0.0009169578552246094
ell 278, elapsed: 0.0008640289306640625
ell 272, elapsed: 0.0016047954559326172
ell 271, elapsed: 0.0010831356048583984
ell 270, elapsed: 0.0008699893951416016
ell 269, elapsed: 0.0008449554443359375
ell 268, elapsed: 0.0008590221405029297
ell 262, elapsed: 0.0016160011291503906
ell 261, elapsed: 0.0008590221405029297
ell 260, elapsed: 0.0008599758148193359
ell 259, elapsed: 0.0008530616760253906
ell 258, elapsed: 0.0008678436279296875
ell 252, elapsed: 0.0016710758209228516
ell 251, elapsed: 0.0008559226989746094
ell 250, elapsed: 0.0008549690246582031
ell 249, elapsed: 0.0008609294891357422
ell 248, elapsed: 0.0008540153503417969
ell 242, elapsed: 0.0015931129455566406
ell 241, elapsed: 0.0009520053863525391
ell 240, elapsed: 0.0008590221405029297
ell 239, elapsed: 0.00084686279296875
ell 238, elapsed: 0.0008540153503417969
ell 232, elapsed: 0.001672983169555664
ell 231, elapsed: 0.0008628368377685547
ell 230, elapsed: 0.0008518695831298828
ell 229, elapsed: 0.0008440017700195312
ell 228, elapsed: 0.0009860992431640625
ell 222, elapsed: 0.0015819072723388672
ell 221, elapsed: 0.0008420944213867188
ell 220, elapsed: 0.0009899139404296875
ell 219, elapsed: 0.0008389949798583984
ell 218, elapsed: 0.0008540153503417969
ell 212, elapsed: 0.001567840576171875
ell 211, elapsed: 0.0009319782257080078
ell 210, elapsed: 0.0008170604705810547
ell 209, elapsed: 0.0008389949798583984
ell 208, elapsed: 0.0008668899536132812
ell 202, elapsed: 0.0017859935760498047
ell 201, elapsed: 0.0008561611175537109
ell 200, elapsed: 0.0008521080017089844
ell 199, elapsed: 0.0008490085601806641
ell 198, elapsed: 0.001026153564453125
ell 192, elapsed: 0.0015950202941894531
ell 191, elapsed: 0.0008661746978759766
ell 190, elapsed: 0.0010190010070800781
ell 189, elapsed: 0.0008499622344970703
ell 188, elapsed: 0.0008509159088134766
ell 182, elapsed: 0.0016970634460449219
ell 181, elapsed: 0.0008409023284912109
ell 180, elapsed: 0.00084686279296875
ell 179, elapsed: 0.0008459091186523438
ell 178, elapsed: 0.0008609294891357422
ell 172, elapsed: 0.0017750263214111328
ell 171, elapsed: 0.0008580684661865234
ell 170, elapsed: 0.0008511543273925781
ell 169, elapsed: 0.0008599758148193359
ell 168, elapsed: 0.0008590221405029297
ell 162, elapsed: 0.0015878677368164062
ell 161, elapsed: 0.0008351802825927734
ell 160, elapsed: 0.0010540485382080078
ell 159, elapsed: 0.0008380413055419922
ell 158, elapsed: 0.0008389949798583984
ell 152, elapsed: 0.0015947818756103516
ell 151, elapsed: 0.0006918907165527344
ell 150, elapsed: 0.0006921291351318359
ell 149, elapsed: 0.0006837844848632812
ell 148, elapsed: 0.0006921291351318359
ell 142, elapsed: 0.001497030258178711
ell 141, elapsed: 0.0006480216979980469
ell 140, elapsed: 0.0006918907165527344
ell 139, elapsed: 0.0006780624389648438
ell 138, elapsed: 0.0006880760192871094
ell 132, elapsed: 0.0012669563293457031
ell 131, elapsed: 0.0006880760192871094
ell 130, elapsed: 0.0006909370422363281
ell 129, elapsed: 0.0006809234619140625
ell 128, elapsed: 0.0006928443908691406
ell 122, elapsed: 0.0012650489807128906
ell 121, elapsed: 0.0006890296936035156
ell 120, elapsed: 0.0006890296936035156
ell 119, elapsed: 0.00067901611328125
ell 118, elapsed: 0.00533294677734375
ell 112, elapsed: 0.002138853073120117
ell 111, elapsed: 0.001132965087890625
ell 110, elapsed: 0.0008180141448974609
ell 109, elapsed: 0.0008158683776855469
ell 108, elapsed: 0.0008199214935302734
ell 102, elapsed: 0.0015158653259277344
ell 101, elapsed: 0.0035309791564941406
ell 100, elapsed: 0.0032570362091064453
ell 99, elapsed: 0.003331899642944336
ell 98, elapsed: 0.0032951831817626953
ell 92, elapsed: 0.006086111068725586
ell 91, elapsed: 0.0032341480255126953
ell 90, elapsed: 0.003390789031982422
ell 89, elapsed: 0.0033957958221435547
ell 88, elapsed: 0.0033788681030273438
ell 82, elapsed: 0.006460905075073242
ell 81, elapsed: 0.003284931182861328
ell 80, elapsed: 0.003874063491821289
ell 79, elapsed: 0.0035719871520996094
ell 78, elapsed: 0.0032911300659179688
ell 72, elapsed: 0.006220817565917969
ell 71, elapsed: 0.0032989978790283203
ell 70, elapsed: 0.0032868385314941406
ell 69, elapsed: 0.004137992858886719
ell 68, elapsed: 0.0036020278930664062
ell 62, elapsed: 0.0061490535736083984
ell 61, elapsed: 0.003362894058227539
ell 60, elapsed: 0.003387928009033203
ell 59, elapsed: 0.0033800601959228516
ell 58, elapsed: 0.0032699108123779297
ell 52, elapsed: 0.006407976150512695
ell 51, elapsed: 0.0033369064331054688
ell 50, elapsed: 0.0035321712493896484
ell 49, elapsed: 0.003264188766479492
ell 48, elapsed: 0.0035851001739501953
ell 42, elapsed: 0.0061609745025634766
ell 41, elapsed: 0.0032820701599121094
ell 40, elapsed: 0.003657102584838867
ell 39, elapsed: 0.003871917724609375
ell 38, elapsed: 0.003696918487548828
ell 32, elapsed: 0.006520986557006836
ell 31, elapsed: 0.003298044204711914
ell 30, elapsed: 0.0036330223083496094
ell 29, elapsed: 0.003406047821044922
ell 28, elapsed: 0.0034220218658447266
ell 22, elapsed: 0.0062940120697021484
ell 21, elapsed: 0.003826141357421875
ell 20, elapsed: 0.0038909912109375
ell 19, elapsed: 0.003323078155517578
ell 18, elapsed: 0.0038361549377441406
ell 12, elapsed: 0.006654024124145508
ell 11, elapsed: 0.003426074981689453
ell 10, elapsed: 0.003361940383911133
ell 9, elapsed: 0.003376007080078125
ell 8, elapsed: 0.003631114959716797
  0.807758 seconds (97.16 k allocations: 12.612 MiB)
elapsed: 0.004316091537475586
step:          0.067916 sec (0 allocations: 0 byte, 0.0% gc time)
swapping:      0.000676 sec (0 allocations: 0 byte, 0.0% gc time)
calc_Mellell!: 0.043853 sec (0 allocations: 0 byte, 0.0% gc time)
  t0 :  0.009981 sec (0 allocations: 0 byte, 0.0% gc time)
  tm2 : 0.07978 sec (0 allocations: 0 byte, 0.0% gc time)
  tm2s: 0.007568 sec (0 allocations: 0 byte, 0.0% gc time)
  tm4 : 0.18583 sec (0 allocations: 0 byte, 0.0% gc time)
  tp2 : 0.0 sec (0 allocations: 0 byte, 0.0% gc time)
  tp2s: 0.0 sec (0 allocations: 0 byte, 0.0% gc time)
  tp4 : 0.0 sec (0 allocations: 0 byte, 0.0% gc time)
calc_wtdll!:   0.557492 sec (48.6 k allocations: 11.096 MB, 0.0% gc time)
calc_wljj!:    0.042768 sec (69 allocations: 1.078 KB, 0.0% gc time)
mult_prefac!:  0.0 sec (0 allocations: 0 byte, 0.0% gc time)
convert:       0.0 sec (0 allocations: 0 byte, 0.0% gc time)
write:         0.035914 sec (0 allocations: 0 byte, 0.0% gc time)
test_rand_2f1: 0.0 sec (0 allocations: 0 byte, 0.0% gc time)
Closing outfile out/MlCache/MlCache.bin...   0.000008 seconds
xi, l=0, nu=0:   0.352700 seconds (602.77 k allocations: 32.922 MiB, 7.14% gc time)
xi, l=0, nu=-2:  0.002284 seconds (114 allocations: 148.969 KiB)
Created 'out/xi.tsv'.
  q=1.1, R=0.6:	  0.681463 seconds (264.52 k allocations: 38.099 MiB)
  q=1.1, R=0.7:	  0.925924 seconds (276.46 k allocations: 40.114 MiB, 2.03% gc time)
  q=1.1, R=0.8:	  0.886271 seconds (271.68 k allocations: 39.302 MiB, 1.29% gc time)
  q=1.1, R=0.9:	  0.912624 seconds (266.62 k allocations: 38.459 MiB, 0.80% gc time)
  q=1.1, R=0.998:	 20.908763 seconds (114.96 k allocations: 7.588 MiB)
  q=1.1, R=1.0:	  0.004678 seconds (8.20 k allocations: 704.344 KiB)

ℓ = 1000
Δℓ = 4
ΔℓRg1 = -4
N = 4096
q = 1.1
kmin = 1.0e-5
kmax = 1000.0
χ0 = 0.001
RR = RR.tsv
ℓmax = ℓmax.bin
f21 = f21.bin
kmin = 1.0e-5
kmax = 1000.0
dlrec    = 4
dlrecRg1 = -4
Output size: 1573632 bytes = 0.0014655590057373047 GiB
Output size: 786816 bytes = 0.0007327795028686523 GiB
Reading 'out/F21EllCache'...   0.001389 seconds (198 allocations: 533.078 KiB)
ellmax: 1002
lmaxcache: 1000
fell[:,1,1] = ComplexF64[1.7262928128202118e-224 - 4.2281979352226944e-240im, 1.7282693092099662e-224 - 4.233038955177176e-240im]
ell 1002, elapsed: 2.6941299438476562e-5
ell 1001, elapsed: 0.0013148784637451172
ell 1000, elapsed: 0.0014951229095458984
ell 999, elapsed: 0.006111860275268555
ell 998, elapsed: 0.005970954895019531
ell 44, elapsed: 0.7055990695953369
ell 43, elapsed: 0.006116151809692383
ell 42, elapsed: 0.006844997406005859
ell 41, elapsed: 0.0068471431732177734
ell 40, elapsed: 0.00722193717956543
  0.756401 seconds (5.04 k allocations: 329.281 KiB)
elapsed: 0.00757598876953125
step:          0.701606 sec (0 allocations: 0 byte, 0.0% gc time)
swapping:      0.000566 sec (0 allocations: 0 byte, 0.0% gc time)
calc_Mellell!: 0.001421 sec (0 allocations: 0 byte, 0.0% gc time)
  t0 :  0.000911 sec (0 allocations: 0 byte, 0.0% gc time)
  tm2 : 0.011334 sec (0 allocations: 0 byte, 0.0% gc time)
  tm2s: 0.000898 sec (0 allocations: 0 byte, 0.0% gc time)
  tm4 : 0.032075 sec (0 allocations: 0 byte, 0.0% gc time)
  tp2 : 0.0 sec (0 allocations: 0 byte, 0.0% gc time)
  tp2s: 0.0 sec (0 allocations: 0 byte, 0.0% gc time)
  tp4 : 0.0 sec (0 allocations: 0 byte, 0.0% gc time)
calc_wtdll!:   0.045455 sec (480 allocations: 52.5 KB, 0.0% gc time)
calc_wljj!:    0.00187 sec (1 allocations: 16 byte, 0.0% gc time)
mult_prefac!:  0.0 sec (0 allocations: 0 byte, 0.0% gc time)
convert:       0.0 sec (0 allocations: 0 byte, 0.0% gc time)
write:         0.00093 sec (0 allocations: 0 byte, 0.0% gc time)
test_rand_2f1: 0.0 sec (0 allocations: 0 byte, 0.0% gc time)
Closing outfile out/MlCache/MlCache.bin...   0.000009 seconds
  0.493184 seconds (38 allocations: 66.859 KiB)
make_phi():   0.010089 seconds (65 allocations: 275.984 KiB)
  0.059927 seconds (11.44 k allocations: 712.460 KiB, 21.83% gc time)
tskip:       1.0e-6 sec (0 allocations: 0 byte, 0.0% gc time)
tread:       0.000776 sec (17 allocations: 1.266 KB, 0.0% gc time)
tmultphi:    0.000412 sec (0 allocations: 0 byte, 0.0% gc time)
tbrfft:      0.00179 sec (0 allocations: 0 byte, 0.0% gc time)
tmultprefac: 0.00192 sec (0 allocations: 0 byte, 0.0% gc time)
toutfunc:    0.000157 sec (0 allocations: 0 byte, 0.0% gc time)
Created 'out/wl42_jj00.tsv'.
Created 'out/wl42_jj02.tsv'.
    Testing TwoFAST tests passed 
