Julia Version 1.6.0-DEV.985
Commit 7bab22eda6* (2020-09-19 17:54 UTC)
Platform Info:
  OS: Linux (x86_64-linux-gnu)
  CPU: Intel(R) Xeon(R) Silver 4114 CPU @ 2.20GHz
  WORD_SIZE: 64
  LIBM: libopenlibm
  LLVM: libLLVM-9.0.1 (ORCJIT, skylake-avx512)
Environment:
  JULIA_DEPOT_PATH = ::/usr/local/share/julia
  JULIA_NUM_THREADS = 2

  Resolving package versions...
  Installed OpenSpecFun_jll ────────────── v0.5.3+3
  Installed MKL_jll ────────────────────── v2020.2.254+0
  Installed FFTW ───────────────────────── v1.2.4
  Installed CompilerSupportLibraries_jll ─ v0.3.3+0
  Installed FFTW_jll ───────────────────── v3.3.9+5
  Installed TwoFAST ────────────────────── v0.1.3
  Installed GenericSVD ─────────────────── v0.3.0
  Installed Reexport ───────────────────── v0.2.0
  Installed AbstractFFTs ───────────────── v0.5.0
  Installed BinaryProvider ─────────────── v0.5.10
  Installed GenericSchur ───────────────── v0.4.0
  Installed SpecialFunctions ───────────── v0.10.3
  Installed Readables ──────────────────── v0.3.3
  Installed ArbNumerics ────────────────── v1.2.1
  Installed IntelOpenMP_jll ────────────── v2018.0.3+0
Updating `~/.julia/environments/v1.6/Project.toml`
  [0dd23c3e] + TwoFAST v0.1.3
Updating `~/.julia/environments/v1.6/Manifest.toml`
  [621f4979] + AbstractFFTs v0.5.0
  [7e558dbc] + ArbNumerics v1.2.1
  [b99e7846] + BinaryProvider v0.5.10
  [e66e0078] + CompilerSupportLibraries_jll v0.3.3+0
  [7a1cc6ca] + FFTW v1.2.4
  [f5851436] + FFTW_jll v3.3.9+5
  [01680d73] + GenericSVD v0.3.0
  [c145ed77] + GenericSchur v0.4.0
  [1d5cc7b8] + IntelOpenMP_jll v2018.0.3+0
  [856f044c] + MKL_jll v2020.2.254+0
  [efe28fd5] + OpenSpecFun_jll v0.5.3+3
  [0d4725de] + Readables v0.3.3
  [189a3867] + Reexport v0.2.0
  [276daf66] + SpecialFunctions v0.10.3
  [0dd23c3e] + TwoFAST v0.1.3
  [56f22d72] + Artifacts
  [2a0f44e3] + Base64
  [ade2ca70] + Dates
  [8bb1440f] + DelimitedFiles
  [8ba89e20] + Distributed
  [b77e0a4c] + InteractiveUtils
  [76f85450] + LibGit2
  [8f399da3] + Libdl
  [37e2e46d] + LinearAlgebra
  [56ddb016] + Logging
  [d6f4376e] + Markdown
  [a63ad114] + Mmap
  [44cfe95a] + Pkg
  [de0858da] + Printf
  [3fa0cd96] + REPL
  [9a3f8284] + Random
  [ea8e919c] + SHA
  [9e88b42a] + Serialization
  [6462fe0b] + Sockets
  [fa267f1f] + TOML
  [8dfed614] + Test
  [cf7118a7] + UUIDs
  [4ec0a83e] + Unicode
   Building FFTW ───────→ `~/.julia/packages/FFTW/DMUbN/deps/build.log`
   Building ArbNumerics → `~/.julia/packages/ArbNumerics/joGFm/deps/build.log`
    Testing TwoFAST
Status `/tmp/jl_LZ5g2K/Project.toml`
  [7e558dbc] ArbNumerics v1.2.1
  [39dd38d3] Dierckx v0.5.0
  [7a1cc6ca] FFTW v1.2.4
  [276daf66] SpecialFunctions v0.10.3
  [0dd23c3e] TwoFAST v0.1.3
  [8bb1440f] DelimitedFiles
  [37e2e46d] LinearAlgebra
  [56ddb016] Logging
  [8dfed614] Test
Status `/tmp/jl_LZ5g2K/Manifest.toml`
  [621f4979] AbstractFFTs v0.5.0
  [7e558dbc] ArbNumerics v1.2.1
  [b99e7846] BinaryProvider v0.5.10
  [e66e0078] CompilerSupportLibraries_jll v0.3.3+0
  [39dd38d3] Dierckx v0.5.0
  [cd4c43a9] Dierckx_jll v0.0.1+0
  [7a1cc6ca] FFTW v1.2.4
  [f5851436] FFTW_jll v3.3.9+5
  [01680d73] GenericSVD v0.3.0
  [c145ed77] GenericSchur v0.4.0
  [1d5cc7b8] IntelOpenMP_jll v2018.0.3+0
  [856f044c] MKL_jll v2020.2.254+0
  [efe28fd5] OpenSpecFun_jll v0.5.3+3
  [0d4725de] Readables v0.3.3
  [189a3867] Reexport v0.2.0
  [276daf66] SpecialFunctions v0.10.3
  [0dd23c3e] TwoFAST v0.1.3
  [56f22d72] Artifacts
  [2a0f44e3] Base64
  [ade2ca70] Dates
  [8bb1440f] DelimitedFiles
  [8ba89e20] Distributed
  [b77e0a4c] InteractiveUtils
  [76f85450] LibGit2
  [8f399da3] Libdl
  [37e2e46d] LinearAlgebra
  [56ddb016] Logging
  [d6f4376e] Markdown
  [a63ad114] Mmap
  [44cfe95a] Pkg
  [de0858da] Printf
  [3fa0cd96] REPL
  [9a3f8284] Random
  [ea8e919c] SHA
  [9e88b42a] Serialization
  [6462fe0b] Sockets
  [fa267f1f] TOML
  [8dfed614] Test
  [cf7118a7] UUIDs
  [4ec0a83e] Unicode
    Testing Running tests...
WARNING: could not import Printf.ini_hex into ArbNumerics
WARNING: could not import Printf.ini_HEX into ArbNumerics
t = 0.0 sec (0 allocations: 0 byte, 0.0% gc time)
typeof(t) = NamedTuple{(:value, :time, :bytes, :gctime, :gcstats), Tuple{DataType, Float64, Int64, Float64, Base.GC_Diff}}
TwoFAST.PerformanceStats.TimedType = Union{NamedTuple{(:value, :time, :bytes, :gctime, :gcstats), Tuple{T, Float64, Int64, Float64, Base.GC_Diff}}, Tuple{Any, Float64, Int64, Float64, Base.GC_Diff}} where T
t = 0.0 sec (0 allocations: 0 byte, 0.0% gc time)
t: 0.0 sec (0 allocations: 0 byte, 0.0% gc time)
Testing ξ(r), ℓ=0, ν=-1 ... passed
Testing ξ(r), ℓ=0, ν=0 ... passed
Testing ξ(r), ℓ=0, ν=1 ... passed
Testing ξ(r), ℓ=0, ν=2 ... passed
Testing ξ(r), ℓ=0, ν=3 ... passed
Testing ξ(r), ℓ=1, ν=0 ... passed
Testing ξ(r), ℓ=1, ν=1 ... passed
Testing ξ(r), ℓ=1, ν=2 ... passed
Testing ξ(r), ℓ=1, ν=3 ... passed
Testing ξ(r), ℓ=2, ν=-1 ... passed
Testing ξ(r), ℓ=2, ν=0 ... passed
Testing ξ(r), ℓ=2, ν=1 ... passed
Testing ξ(r), ℓ=2, ν=2 ... passed
Testing ξ(r), ℓ=2, ν=3 ... passed
Testing ξ(r), ℓ=3, ν=-1 ... passed
Testing ξ(r), ℓ=3, ν=0 ... passed
Testing ξ(r), ℓ=3, ν=1 ... passed
Testing ξ(r), ℓ=3, ν=2 ... passed
Testing ξ(r), ℓ=3, ν=3 ... passed
Testing ξ(r), ℓ=4, ν=-1 ... passed
Testing ξ(r), ℓ=4, ν=0 ... passed
Testing ξ(r), ℓ=4, ν=1 ... passed
Testing ξ(r), ℓ=4, ν=2 ... passed
Testing ξ(r), ℓ=4, ν=3 ... passed
Testing ξ(r) ... passed
Testing ξ′(r) ... passed
Testing ξ″(r) ... passed
Calculating fmax: 
  dlrec    = 4
  dlrecRg1 = -4
  q=1.1, R=1.1:	  4.276020 seconds (838.64 k allocations: 53.532 MiB, 0.52% gc time)

  4.367115 seconds (851.32 k allocations: 54.322 MiB, 2.25% gc time)
ℓ = 1202
Δℓ = 4
ΔℓRg1 = -4
N = 1600
q = 1.1
kmin = 1.0e-5
kmax = 100000.00000000004
χ0 = 0.023029999999999995
RR = RR.tsv
ℓmax = ℓmax.bin
f21 = f21.bin
kmin = 1.0e-5
kmax = 100000.0
dlrec    = 4
dlrecRg1 = -4
Output size: 5741568 bytes = 0.005347251892089844 GiB
Output size: 51264 bytes = 4.774332046508789e-5 GiB
Reading 'out/F21EllCache'...   0.681861 seconds (396.01 k allocations: 23.248 MiB)
ellmax: 1202
lmaxcache: 1202
fell[:,1,1] = ComplexF64[3.9583795592771634e-52 - 9.695233714158177e-68im, 3.990121772925759e-52 - 9.772979714843386e-68im]
ell 1202, elapsed: 3.814697265625e-5
ell 1201, elapsed: 1.2509260177612305
ell 1200, elapsed: 0.0005519390106201172
ell 1199, elapsed: 0.0005469322204589844
ell 1198, elapsed: 0.0005660057067871094
ell 1002, elapsed: 0.010151147842407227
ell 1001, elapsed: 0.0006229877471923828
ell 1000, elapsed: 0.0005650520324707031
ell 999, elapsed: 0.0006170272827148438
ell 998, elapsed: 0.0006449222564697266
ell 902, elapsed: 0.005438089370727539
ell 901, elapsed: 0.0005500316619873047
ell 900, elapsed: 0.0005438327789306641
ell 899, elapsed: 0.0005428791046142578
ell 898, elapsed: 0.0006089210510253906
ell 802, elapsed: 0.005384922027587891
ell 801, elapsed: 0.0005328655242919922
ell 800, elapsed: 0.0005490779876708984
ell 799, elapsed: 0.0005359649658203125
ell 798, elapsed: 0.0005810260772705078
ell 702, elapsed: 0.005269050598144531
ell 701, elapsed: 0.0005640983581542969
ell 700, elapsed: 0.0005650520324707031
ell 699, elapsed: 0.0005898475646972656
ell 698, elapsed: 0.0005660057067871094
ell 602, elapsed: 0.005202054977416992
ell 601, elapsed: 0.0005037784576416016
ell 600, elapsed: 0.0006039142608642578
ell 599, elapsed: 0.0005750656127929688
ell 598, elapsed: 0.0005619525909423828
ell 502, elapsed: 0.005388021469116211
ell 501, elapsed: 0.000614166259765625
ell 500, elapsed: 0.0005099773406982422
ell 499, elapsed: 0.0005719661712646484
ell 498, elapsed: 0.0005440711975097656
ell 402, elapsed: 0.0052988529205322266
ell 401, elapsed: 0.0006248950958251953
ell 400, elapsed: 0.0006120204925537109
ell 399, elapsed: 0.0006299018859863281
ell 398, elapsed: 0.0006279945373535156
ell 302, elapsed: 0.005439043045043945
ell 301, elapsed: 0.0006198883056640625
ell 300, elapsed: 0.0005018711090087891
ell 299, elapsed: 0.0005741119384765625
ell 298, elapsed: 0.000637054443359375
ell 202, elapsed: 0.005321025848388672
ell 201, elapsed: 0.000537872314453125
ell 200, elapsed: 0.0005848407745361328
ell 199, elapsed: 0.0005700588226318359
ell 198, elapsed: 0.0005629062652587891
ell 152, elapsed: 0.002753019332885742
ell 151, elapsed: 0.0005710124969482422
ell 150, elapsed: 0.0005609989166259766
ell 149, elapsed: 0.0005698204040527344
ell 148, elapsed: 0.0005621910095214844
ell 127, elapsed: 0.0016019344329833984
ell 126, elapsed: 0.0005609989166259766
ell 125, elapsed: 0.0005738735198974609
ell 124, elapsed: 0.0005550384521484375
ell 123, elapsed: 0.0005559921264648438
ell 114, elapsed: 0.0010058879852294922
ell 113, elapsed: 0.0005559921264648438
ell 112, elapsed: 0.0005540847778320312
ell 111, elapsed: 0.00055694580078125
ell 110, elapsed: 0.0005550384521484375
ell 102, elapsed: 0.0009670257568359375
ell 101, elapsed: 0.0005600452423095703
ell 100, elapsed: 0.000553131103515625
ell 99, elapsed: 0.0005669593811035156
ell 98, elapsed: 0.0005571842193603516
ell 97, elapsed: 0.0006749629974365234
ell 96, elapsed: 0.0006451606750488281
ell 95, elapsed: 0.0006539821624755859
ell 94, elapsed: 0.0006639957427978516
ell 93, elapsed: 0.0006520748138427734
ell 92, elapsed: 0.000637054443359375
ell 91, elapsed: 0.0006749629974365234
ell 90, elapsed: 0.0006690025329589844
ell 89, elapsed: 0.0006699562072753906
ell 88, elapsed: 0.0006649494171142578
ell 87, elapsed: 0.0006639957427978516
ell 86, elapsed: 0.0006680488586425781
ell 85, elapsed: 0.0006821155548095703
ell 84, elapsed: 0.000659942626953125
ell 83, elapsed: 0.0006389617919921875
ell 82, elapsed: 0.0006449222564697266
ell 81, elapsed: 0.0006389617919921875
ell 80, elapsed: 0.0006399154663085938
ell 79, elapsed: 0.0006530284881591797
ell 78, elapsed: 0.0006389617919921875
ell 77, elapsed: 0.0006361007690429688
ell 76, elapsed: 0.0006420612335205078
ell 75, elapsed: 0.0006430149078369141
ell 74, elapsed: 0.0006527900695800781
ell 73, elapsed: 0.0006411075592041016
ell 72, elapsed: 0.0006380081176757812
ell 71, elapsed: 0.0006301403045654297
ell 70, elapsed: 0.0006160736083984375
ell 69, elapsed: 0.00067901611328125
ell 68, elapsed: 0.0006630420684814453
ell 67, elapsed: 0.0006091594696044922
ell 66, elapsed: 0.0006139278411865234
ell 65, elapsed: 0.0005519390106201172
ell 64, elapsed: 0.0006198883056640625
ell 63, elapsed: 0.0006480216979980469
ell 62, elapsed: 0.0006649494171142578
ell 61, elapsed: 0.00055694580078125
ell 60, elapsed: 0.0006740093231201172
ell 59, elapsed: 0.0006458759307861328
ell 58, elapsed: 0.0006330013275146484
ell 57, elapsed: 0.0005939006805419922
ell 56, elapsed: 0.0005910396575927734
ell 55, elapsed: 0.0005910396575927734
ell 54, elapsed: 0.0006029605865478516
ell 53, elapsed: 0.0005550384521484375
ell 52, elapsed: 0.0005488395690917969
ell 51, elapsed: 0.0006239414215087891
ell 50, elapsed: 0.0005860328674316406
ell 49, elapsed: 0.0005390644073486328
ell 48, elapsed: 0.0005419254302978516
ell 47, elapsed: 0.0005550384521484375
ell 46, elapsed: 0.0005581378936767578
ell 45, elapsed: 0.0006091594696044922
ell 44, elapsed: 0.0005400180816650391
ell 43, elapsed: 0.0005428791046142578
ell 42, elapsed: 0.0005390644073486328
ell 41, elapsed: 0.0005600452423095703
ell 40, elapsed: 0.0005409717559814453
ell 39, elapsed: 0.0005609989166259766
ell 38, elapsed: 0.0006158351898193359
ell 37, elapsed: 0.0005478858947753906
ell 36, elapsed: 0.0005400180816650391
ell 35, elapsed: 0.0005409717559814453
ell 34, elapsed: 0.0005638599395751953
ell 33, elapsed: 0.0005469322204589844
ell 32, elapsed: 0.0005629062652587891
ell 31, elapsed: 0.0005419254302978516
ell 30, elapsed: 0.0005450248718261719
ell 29, elapsed: 0.0005621910095214844
ell 28, elapsed: 0.0005609989166259766
ell 27, elapsed: 0.0005848407745361328
ell 26, elapsed: 0.0006330013275146484
ell 25, elapsed: 0.0006008148193359375
ell 24, elapsed: 0.0006210803985595703
ell 23, elapsed: 0.0006420612335205078
ell 22, elapsed: 0.0006380081176757812
ell 21, elapsed: 0.0006117820739746094
ell 20, elapsed: 0.0006339550018310547
ell 19, elapsed: 0.0006561279296875
ell 18, elapsed: 0.0007030963897705078
ell 17, elapsed: 0.0006659030914306641
ell 16, elapsed: 0.0006330013275146484
ell 15, elapsed: 0.0006170272827148438
ell 14, elapsed: 0.0006241798400878906
ell 13, elapsed: 0.0006620883941650391
ell 12, elapsed: 0.0006239414215087891
ell 11, elapsed: 0.0006129741668701172
ell 10, elapsed: 0.0006220340728759766
ell 9, elapsed: 0.0006299018859863281
ell 8, elapsed: 0.0006361007690429688
ell 7, elapsed: 0.0006241798400878906
ell 6, elapsed: 0.0006210803985595703
ell 5, elapsed: 0.0006418228149414062
ell 4, elapsed: 0.0006310939788818359
ell 3, elapsed: 0.0006220340728759766
ell 2, elapsed: 0.0006101131439208984
ell 1, elapsed: 0.0006201267242431641
ell 0, elapsed: 0.0006279945373535156
  1.883877 seconds (1.27 M allocations: 69.775 MiB, 2.63% gc time)
elapsed: 0.0014109611511230469
step:          0.348301 sec (307.13 k allocations: 16.681 MB, 6.78% gc time)
swapping:      0.000533 sec (0 allocations: 0 byte, 0.0% gc time)
calc_Mellell!: 0.148897 sec (133.359 k allocations: 7.263 MB, 17.4% gc time)
  t0 :  0.0 sec (0 allocations: 0 byte, 0.0% gc time)
  tm2 : 0.0 sec (0 allocations: 0 byte, 0.0% gc time)
  tm2s: 0.0 sec (0 allocations: 0 byte, 0.0% gc time)
  tm4 : 0.0 sec (0 allocations: 0 byte, 0.0% gc time)
  tp2 : 0.0 sec (0 allocations: 0 byte, 0.0% gc time)
  tp2s: 0.0 sec (0 allocations: 0 byte, 0.0% gc time)
  tp4 : 0.0 sec (0 allocations: 0 byte, 0.0% gc time)
calc_wtdll!:   0.887465 sec (510.258 k allocations: 28.227 MB, 0.0% gc time)
calc_wljj!:    0.003371 sec (6 allocations: 96 byte, 0.0% gc time)
mult_prefac!:  0.0 sec (0 allocations: 0 byte, 0.0% gc time)
convert:       0.0 sec (0 allocations: 0 byte, 0.0% gc time)
write:         0.003862 sec (0 allocations: 0 byte, 0.0% gc time)
test_rand_2f1: 0.0 sec (0 allocations: 0 byte, 0.0% gc time)
Closing outfile out/Ml21-cache.bin...   0.000075 seconds
  1.339790 seconds (346.92 k allocations: 21.113 MiB)
make_phi():   0.015386 seconds (8.18 k allocations: 237.844 KiB)
  0.261951 seconds (87.66 k allocations: 4.754 MiB)
tskip:       3.0e-5 sec (0 allocations: 0 byte, 0.0% gc time)
tread:       0.00322 sec (17 allocations: 2.125 KB, 0.0% gc time)
tmultphi:    0.043505 sec (21.455 k allocations: 1.289 MB, 0.0% gc time)
tbrfft:      0.006624 sec (0 allocations: 0 byte, 0.0% gc time)
tmultprefac: 0.005962 sec (0 allocations: 0 byte, 0.0% gc time)
toutfunc:    0.16227 sec (64.546 k allocations: 3.334 MB, 0.0% gc time)
Testing R=1.1 ... passed
Calculating fmax: 
  dlrec    = 4
  dlrecRg1 = -4
  q=1.1, R=1.0:	  0.001825 seconds (3.20 k allocations: 275.344 KiB)

  0.002697 seconds (3.34 k allocations: 311.422 KiB)
ℓ = 1202
Δℓ = 4
ΔℓRg1 = -4
N = 1600
q = 1.1
kmin = 1.0e-5
kmax = 100000.00000000004
χ0 = 0.023029999999999995
RR = RR.tsv
ℓmax = ℓmax.bin
f21 = f21.bin
kmin = 1.0e-5
kmax = 100000.0
dlrec    = 4
dlrecRg1 = -4
Output size: 61465536 bytes = 0.05724424123764038 GiB
Output size: 51264 bytes = 4.774332046508789e-5 GiB
Reading 'out/F21EllCache'...   0.001139 seconds (197 allocations: 84.203 KiB)
ellmax: 1202
lmaxcache: 1202
fell[:,1,1] = ComplexF64[809.6031528389767 - 1.9829558194077161e-13im, 0.0 + 0.0im]
ell 1202, elapsed: 0.00019407272338867188
ell 1201, elapsed: 0.01694512367248535
ell 1200, elapsed: 0.03977203369140625
ell 1199, elapsed: 0.00048804283142089844
ell 1198, elapsed: 0.0004429817199707031
ell 1197, elapsed: 0.000537872314453125
ell 1196, elapsed: 0.0005168914794921875
ell 1195, elapsed: 0.0007379055023193359
ell 1194, elapsed: 0.0006101131439208984
ell 1193, elapsed: 0.0005900859832763672
ell 1192, elapsed: 0.0009608268737792969
ell 1191, elapsed: 0.0005228519439697266
ell 1190, elapsed: 0.0006248950958251953
ell 1189, elapsed: 0.0006458759307861328
ell 1188, elapsed: 0.0006270408630371094
ell 1187, elapsed: 0.0008771419525146484
ell 1186, elapsed: 0.0008440017700195312
ell 1185, elapsed: 0.0006270408630371094
ell 1184, elapsed: 0.0006270408630371094
ell 1183, elapsed: 0.0006668567657470703
ell 1182, elapsed: 0.0006589889526367188
ell 1181, elapsed: 0.0006749629974365234
ell 1180, elapsed: 0.0006351470947265625
ell 1179, elapsed: 0.0006580352783203125
ell 1178, elapsed: 0.0006649494171142578
ell 1177, elapsed: 0.0006630420684814453
ell 1176, elapsed: 0.0006489753723144531
ell 1175, elapsed: 0.0006530284881591797
ell 1174, elapsed: 0.0006520748138427734
ell 1173, elapsed: 0.0009088516235351562
ell 1172, elapsed: 0.0009260177612304688
ell 1171, elapsed: 0.0006749629974365234
ell 1170, elapsed: 0.0006570816040039062
ell 1169, elapsed: 0.0006690025329589844
ell 1168, elapsed: 0.0006580352783203125
ell 1167, elapsed: 0.0006890296936035156
ell 1166, elapsed: 0.0006821155548095703
ell 1165, elapsed: 0.0006818771362304688
ell 1164, elapsed: 0.0006759166717529297
ell 1163, elapsed: 0.0006890296936035156
ell 1162, elapsed: 0.0006680488586425781
ell 1161, elapsed: 0.0009200572967529297
ell 1160, elapsed: 0.0009398460388183594
ell 1159, elapsed: 0.00067901611328125
ell 1158, elapsed: 0.0008671283721923828
ell 1157, elapsed: 0.0006740093231201172
ell 1156, elapsed: 0.0006499290466308594
ell 1155, elapsed: 0.0006339550018310547
ell 1154, elapsed: 0.0006380081176757812
ell 1153, elapsed: 0.0006330013275146484
ell 1152, elapsed: 0.0006361007690429688
ell 1151, elapsed: 0.0006690025329589844
ell 1150, elapsed: 0.0006349086761474609
ell 1149, elapsed: 0.0006368160247802734
ell 1148, elapsed: 0.0006988048553466797
ell 1147, elapsed: 0.0006549358367919922
ell 1146, elapsed: 0.0006480216979980469
ell 1145, elapsed: 0.0006802082061767578
ell 1144, elapsed: 0.0007030963897705078
ell 1143, elapsed: 0.0007021427154541016
ell 1142, elapsed: 0.0007419586181640625
ell 1141, elapsed: 0.0007190704345703125
ell 1140, elapsed: 0.0007090568542480469
ell 1139, elapsed: 0.0007100105285644531
ell 1138, elapsed: 0.0007150173187255859
ell 1137, elapsed: 0.000720977783203125
ell 1136, elapsed: 0.0005710124969482422
ell 1135, elapsed: 0.0005331039428710938
ell 1134, elapsed: 0.0005500316619873047
ell 1133, elapsed: 0.0006859302520751953
ell 1132, elapsed: 0.0005438327789306641
ell 1131, elapsed: 0.0005590915679931641
ell 1130, elapsed: 0.0005660057067871094
ell 1129, elapsed: 0.00043392181396484375
ell 1128, elapsed: 0.0005581378936767578
ell 1127, elapsed: 0.0005440711975097656
ell 1126, elapsed: 0.0005600452423095703
ell 1125, elapsed: 0.00045108795166015625
ell 1124, elapsed: 0.0005230903625488281
ell 1123, elapsed: 0.0005581378936767578
ell 1122, elapsed: 0.00044798851013183594
ell 1121, elapsed: 0.000537872314453125
ell 1120, elapsed: 0.0005319118499755859
ell 1119, elapsed: 0.0005300045013427734
ell 1118, elapsed: 0.0005481243133544922
ell 1117, elapsed: 0.0007300376892089844
ell 1116, elapsed: 0.0005660057067871094
ell 1115, elapsed: 0.0005431175231933594
ell 1114, elapsed: 0.0005519390106201172
ell 1113, elapsed: 0.0005350112915039062
ell 1112, elapsed: 0.0005269050598144531
ell 1111, elapsed: 0.0006060600280761719
ell 1110, elapsed: 0.0005710124969482422
ell 1109, elapsed: 0.0007779598236083984
ell 1108, elapsed: 0.0005500316619873047
ell 1107, elapsed: 0.0005919933319091797
ell 1106, elapsed: 0.0005640983581542969
ell 1105, elapsed: 0.0005271434783935547
ell 1104, elapsed: 0.0005278587341308594
ell 1103, elapsed: 0.0005259513854980469
ell 1102, elapsed: 0.0005898475646972656
ell 1101, elapsed: 0.0005929470062255859
ell 1100, elapsed: 0.0005488395690917969
ell 1099, elapsed: 0.0005919933319091797
ell 1098, elapsed: 0.0006039142608642578
ell 1097, elapsed: 0.0005309581756591797
ell 1096, elapsed: 0.0006198883056640625
ell 1095, elapsed: 0.000804901123046875
ell 1094, elapsed: 0.0006151199340820312
ell 1093, elapsed: 0.0005879402160644531
ell 1092, elapsed: 0.0007259845733642578
ell 1091, elapsed: 0.000598907470703125
ell 1090, elapsed: 0.0006000995635986328
ell 1089, elapsed: 0.0006561279296875
ell 1088, elapsed: 0.0005638599395751953
ell 1087, elapsed: 0.0005450248718261719
ell 1086, elapsed: 0.0005660057067871094
ell 1085, elapsed: 0.0008211135864257812
ell 1084, elapsed: 0.0005350112915039062
ell 1083, elapsed: 0.0005240440368652344
ell 1082, elapsed: 0.0004611015319824219
ell 1081, elapsed: 0.0005309581756591797
ell 1080, elapsed: 0.0005440711975097656
ell 1079, elapsed: 0.0005431175231933594
ell 1078, elapsed: 0.0005590915679931641
ell 1077, elapsed: 0.000576019287109375
ell 1076, elapsed: 0.0005280971527099609
ell 1075, elapsed: 0.0005481243133544922
ell 1074, elapsed: 0.0005209445953369141
ell 1073, elapsed: 0.0005300045013427734
ell 1072, elapsed: 0.000553131103515625
ell 1071, elapsed: 0.0005719661712646484
ell 1070, elapsed: 0.0005888938903808594
ell 1069, elapsed: 0.0005469322204589844
ell 1068, elapsed: 0.00045299530029296875
ell 1067, elapsed: 0.0005669593811035156
ell 1066, elapsed: 0.000553131103515625
ell 1065, elapsed: 0.0005578994750976562
ell 1064, elapsed: 0.0005450248718261719
ell 1063, elapsed: 0.0005409717559814453
ell 1062, elapsed: 0.0005369186401367188
ell 1061, elapsed: 0.0004830360412597656
ell 1060, elapsed: 0.0004661083221435547
ell 1059, elapsed: 0.0004639625549316406
ell 1058, elapsed: 0.0004458427429199219
ell 1057, elapsed: 0.00047087669372558594
ell 1056, elapsed: 0.0006911754608154297
ell 1055, elapsed: 0.0004699230194091797
ell 1054, elapsed: 0.0004677772521972656
ell 1053, elapsed: 0.00045013427734375
ell 1052, elapsed: 0.00045990943908691406
ell 1051, elapsed: 0.0004649162292480469
ell 1050, elapsed: 0.00045800209045410156
ell 1049, elapsed: 0.0004811286926269531
ell 1048, elapsed: 0.0006399154663085938
ell 1047, elapsed: 0.0004658699035644531
ell 1046, elapsed: 0.0004630088806152344
ell 1045, elapsed: 0.00046706199645996094
ell 1044, elapsed: 0.00047516822814941406
ell 1043, elapsed: 0.00044608116149902344
ell 1042, elapsed: 0.00047898292541503906
ell 1041, elapsed: 0.000659942626953125
ell 1040, elapsed: 0.0005497932434082031
ell 1039, elapsed: 0.0006251335144042969
ell 1038, elapsed: 0.0005688667297363281
ell 1037, elapsed: 0.0004680156707763672
ell 1036, elapsed: 0.0004620552062988281
ell 1035, elapsed: 0.00046706199645996094
ell 1034, elapsed: 0.0004639625549316406
ell 1033, elapsed: 0.00043892860412597656
ell 1032, elapsed: 0.0004630088806152344
ell 1031, elapsed: 0.0004451274871826172
ell 1030, elapsed: 0.0004620552062988281
ell 1029, elapsed: 0.0004630088806152344
ell 1028, elapsed: 0.0004439353942871094
ell 1027, elapsed: 0.00045680999755859375
ell 1026, elapsed: 0.00045990943908691406
ell 1025, elapsed: 0.0004570484161376953
ell 1024, elapsed: 0.0004630088806152344
ell 1023, elapsed: 0.00045800209045410156
ell 1022, elapsed: 0.0004749298095703125
ell 1021, elapsed: 0.0004558563232421875
ell 1020, elapsed: 0.00045609474182128906
ell 1019, elapsed: 0.0004699230194091797
ell 1018, elapsed: 0.0004630088806152344
ell 1017, elapsed: 0.00045108795166015625
ell 1016, elapsed: 0.0005478858947753906
ell 1015, elapsed: 0.0004911422729492188
ell 1014, elapsed: 0.00048613548278808594
ell 1013, elapsed: 0.00045180320739746094
ell 1012, elapsed: 0.0006608963012695312
ell 1011, elapsed: 0.0005018711090087891
ell 1010, elapsed: 0.00046706199645996094
ell 1009, elapsed: 0.0004799365997314453
ell 1008, elapsed: 0.000453948974609375
ell 1007, elapsed: 0.00045800209045410156
ell 1006, elapsed: 0.0005180835723876953
ell 1005, elapsed: 0.0005991458892822266
ell 1004, elapsed: 0.00044989585876464844
ell 1003, elapsed: 0.00044798851013183594
ell 1002, elapsed: 0.0004551410675048828
ell 1001, elapsed: 0.0004508495330810547
ell 1000, elapsed: 0.0004489421844482422
ell 999, elapsed: 0.0004429817199707031
ell 998, elapsed: 0.00049591064453125
ell 997, elapsed: 0.0004508495330810547
ell 996, elapsed: 0.0004439353942871094
ell 995, elapsed: 0.0006380081176757812
ell 994, elapsed: 0.0004680156707763672
ell 993, elapsed: 0.00043392181396484375
ell 992, elapsed: 0.0005118846893310547
ell 991, elapsed: 0.0004799365997314453
ell 990, elapsed: 0.0004329681396484375
ell 989, elapsed: 0.00043702125549316406
ell 988, elapsed: 0.00043201446533203125
ell 987, elapsed: 0.0004420280456542969
ell 986, elapsed: 0.00043511390686035156
ell 985, elapsed: 0.0004448890686035156
ell 984, elapsed: 0.0004360675811767578
ell 983, elapsed: 0.0005030632019042969
ell 982, elapsed: 0.0004467964172363281
ell 981, elapsed: 0.00044798851013183594
ell 980, elapsed: 0.00044608116149902344
ell 979, elapsed: 0.0004429817199707031
ell 978, elapsed: 0.0005180835723876953
ell 977, elapsed: 0.0006041526794433594
ell 976, elapsed: 0.00043392181396484375
ell 975, elapsed: 0.0004928112030029297
ell 974, elapsed: 0.0005412101745605469
ell 973, elapsed: 0.0006949901580810547
ell 972, elapsed: 0.0004940032958984375
ell 971, elapsed: 0.00043582916259765625
ell 970, elapsed: 0.00043892860412597656
ell 969, elapsed: 0.00043892860412597656
ell 968, elapsed: 0.0004980564117431641
ell 967, elapsed: 0.00043201446533203125
ell 966, elapsed: 0.0004210472106933594
ell 965, elapsed: 0.0004260540008544922
ell 964, elapsed: 0.0004210472106933594
ell 963, elapsed: 0.0004181861877441406
ell 962, elapsed: 0.0005240440368652344
ell 961, elapsed: 0.0005650520324707031
ell 960, elapsed: 0.0006301403045654297
ell 959, elapsed: 0.0005009174346923828
ell 958, elapsed: 0.00043082237243652344
ell 957, elapsed: 0.0004329681396484375
ell 956, elapsed: 0.00043010711669921875
ell 955, elapsed: 0.0005950927734375
ell 954, elapsed: 0.0004980564117431641
ell 953, elapsed: 0.0005230903625488281
ell 952, elapsed: 0.0004410743713378906
ell 951, elapsed: 0.0006010532379150391
ell 950, elapsed: 0.0006690025329589844
ell 949, elapsed: 0.0005390644073486328
ell 948, elapsed: 0.0004260540008544922
ell 947, elapsed: 0.0006589889526367188
ell 946, elapsed: 0.0005650520324707031
ell 945, elapsed: 0.0006709098815917969
ell 944, elapsed: 0.0005090236663818359
ell 943, elapsed: 0.0004439353942871094
ell 942, elapsed: 0.0004229545593261719
ell 941, elapsed: 0.00042510032653808594
ell 940, elapsed: 0.00045299530029296875
ell 939, elapsed: 0.00043201446533203125
ell 938, elapsed: 0.000614166259765625
ell 937, elapsed: 0.0004980564117431641
ell 936, elapsed: 0.00043892860412597656
ell 935, elapsed: 0.0004398822784423828
ell 934, elapsed: 0.0004360675811767578
ell 933, elapsed: 0.00044417381286621094
ell 932, elapsed: 0.0005619525909423828
ell 931, elapsed: 0.0004360675811767578
ell 930, elapsed: 0.0004401206970214844
ell 929, elapsed: 0.00043392181396484375
ell 928, elapsed: 0.0004379749298095703
ell 927, elapsed: 0.00045299530029296875
ell 926, elapsed: 0.0004279613494873047
ell 925, elapsed: 0.0004398822784423828
ell 924, elapsed: 0.00045990943908691406
ell 923, elapsed: 0.00043392181396484375
ell 922, elapsed: 0.0004360675811767578
ell 921, elapsed: 0.00043702125549316406
ell 920, elapsed: 0.00043511390686035156
ell 919, elapsed: 0.0005509853363037109
ell 918, elapsed: 0.0005450248718261719
ell 917, elapsed: 0.0007939338684082031
ell 916, elapsed: 0.0004360675811767578
ell 915, elapsed: 0.00042891502380371094
ell 914, elapsed: 0.00042319297790527344
ell 913, elapsed: 0.00043201446533203125
ell 912, elapsed: 0.0004260540008544922
ell 911, elapsed: 0.0004260540008544922
ell 910, elapsed: 0.000720977783203125
ell 909, elapsed: 0.00047206878662109375
ell 908, elapsed: 0.00043320655822753906
ell 907, elapsed: 0.0005748271942138672
ell 906, elapsed: 0.0004949569702148438
ell 905, elapsed: 0.00043082237243652344
ell 904, elapsed: 0.0004239082336425781
ell 903, elapsed: 0.00043010711669921875
ell 902, elapsed: 0.0005750656127929688
ell 901, elapsed: 0.0004258155822753906
ell 900, elapsed: 0.0004298686981201172
ell 899, elapsed: 0.0004239082336425781
ell 898, elapsed: 0.00042891502380371094
ell 897, elapsed: 0.0004229545593261719
ell 896, elapsed: 0.00043201446533203125
ell 895, elapsed: 0.0004239082336425781
ell 894, elapsed: 0.0005829334259033203
ell 893, elapsed: 0.0004429817199707031
ell 892, elapsed: 0.0004410743713378906
ell 891, elapsed: 0.0004439353942871094
ell 890, elapsed: 0.00043892860412597656
ell 889, elapsed: 0.00043892860412597656
ell 888, elapsed: 0.0004448890686035156
ell 887, elapsed: 0.00043702125549316406
ell 886, elapsed: 0.0005700588226318359
ell 885, elapsed: 0.0004220008850097656
ell 884, elapsed: 0.0005199909210205078
ell 883, elapsed: 0.0005819797515869141
ell 882, elapsed: 0.00043511390686035156
ell 881, elapsed: 0.0004470348358154297
ell 880, elapsed: 0.0004379749298095703
ell 879, elapsed: 0.0005300045013427734
ell 878, elapsed: 0.0004429817199707031
ell 877, elapsed: 0.0004429817199707031
ell 876, elapsed: 0.00043392181396484375
ell 875, elapsed: 0.0004360675811767578
ell 874, elapsed: 0.0004401206970214844
ell 873, elapsed: 0.00043702125549316406
ell 872, elapsed: 0.0004439353942871094
ell 871, elapsed: 0.0005490779876708984
ell 870, elapsed: 0.0004398822784423828
ell 869, elapsed: 0.00042891502380371094
ell 868, elapsed: 0.0004429817199707031
ell 867, elapsed: 0.00043392181396484375
ell 866, elapsed: 0.0004382133483886719
ell 865, elapsed: 0.0004401206970214844
ell 864, elapsed: 0.00042700767517089844
ell 863, elapsed: 0.0005359649658203125
ell 862, elapsed: 0.00043487548828125
ell 861, elapsed: 0.0004398822784423828
ell 860, elapsed: 0.00043392181396484375
ell 859, elapsed: 0.0004391670227050781
ell 858, elapsed: 0.00045299530029296875
ell 857, elapsed: 0.0004448890686035156
ell 856, elapsed: 0.0004508495330810547
ell 855, elapsed: 0.0005359649658203125
ell 854, elapsed: 0.0004379749298095703
ell 853, elapsed: 0.0004429817199707031
ell 852, elapsed: 0.0004298686981201172
ell 851, elapsed: 0.0005631446838378906
ell 850, elapsed: 0.0005450248718261719
ell 849, elapsed: 0.0005841255187988281
ell 848, elapsed: 0.0006320476531982422
ell 847, elapsed: 0.0005960464477539062
ell 846, elapsed: 0.0006759166717529297
ell 845, elapsed: 0.0006492137908935547
ell 844, elapsed: 0.0006771087646484375
ell 843, elapsed: 0.0005619525909423828
ell 842, elapsed: 0.0006468296051025391
ell 841, elapsed: 0.0006852149963378906
ell 840, elapsed: 0.0006711483001708984
ell 839, elapsed: 0.0005450248718261719
ell 838, elapsed: 0.0004248619079589844
ell 837, elapsed: 0.0004341602325439453
ell 836, elapsed: 0.0005469322204589844
ell 835, elapsed: 0.0004398822784423828
ell 834, elapsed: 0.0004420280456542969
ell 833, elapsed: 0.0004341602325439453
ell 832, elapsed: 0.00043892860412597656
ell 831, elapsed: 0.0004401206970214844
ell 830, elapsed: 0.0004379749298095703
ell 829, elapsed: 0.0004329681396484375
ell 828, elapsed: 0.0005350112915039062
ell 827, elapsed: 0.0006079673767089844
ell 826, elapsed: 0.0005331039428710938
ell 825, elapsed: 0.0005850791931152344
ell 824, elapsed: 0.000659942626953125
ell 823, elapsed: 0.0005309581756591797
ell 822, elapsed: 0.0005490779876708984
ell 821, elapsed: 0.0005469322204589844
ell 820, elapsed: 0.0006730556488037109
ell 819, elapsed: 0.0006780624389648438
ell 818, elapsed: 0.0006508827209472656
ell 817, elapsed: 0.0005669593811035156
ell 816, elapsed: 0.0005440711975097656
ell 815, elapsed: 0.0005359649658203125
ell 814, elapsed: 0.0005550384521484375
ell 813, elapsed: 0.0006201267242431641
ell 812, elapsed: 0.0006570816040039062
ell 811, elapsed: 0.0006549358367919922
ell 810, elapsed: 0.0006840229034423828
ell 809, elapsed: 0.0004451274871826172
ell 808, elapsed: 0.00044798851013183594
ell 807, elapsed: 0.00043511390686035156
ell 806, elapsed: 0.00043892860412597656
ell 805, elapsed: 0.0004360675811767578
ell 804, elapsed: 0.0004391670227050781
ell 803, elapsed: 0.00043582916259765625
ell 802, elapsed: 0.0005459785461425781
ell 801, elapsed: 0.0004341602325439453
ell 800, elapsed: 0.000431060791015625
ell 799, elapsed: 0.00043487548828125
ell 798, elapsed: 0.0005939006805419922
ell 797, elapsed: 0.0005180835723876953
ell 796, elapsed: 0.0005478858947753906
ell 795, elapsed: 0.0006449222564697266
ell 794, elapsed: 0.0004410743713378906
ell 793, elapsed: 0.0004279613494873047
ell 792, elapsed: 0.00043487548828125
ell 791, elapsed: 0.00043892860412597656
ell 790, elapsed: 0.0004398822784423828
ell 789, elapsed: 0.0004398822784423828
ell 788, elapsed: 0.0004398822784423828
ell 787, elapsed: 0.0006010532379150391
ell 786, elapsed: 0.0006039142608642578
ell 785, elapsed: 0.0004391670227050781
ell 784, elapsed: 0.0004298686981201172
ell 783, elapsed: 0.0004379749298095703
ell 782, elapsed: 0.00044417381286621094
ell 781, elapsed: 0.0004398822784423828
ell 780, elapsed: 0.0005459785461425781
ell 779, elapsed: 0.00044083595275878906
ell 778, elapsed: 0.00043511390686035156
ell 777, elapsed: 0.0004398822784423828
ell 776, elapsed: 0.00043201446533203125
ell 775, elapsed: 0.0004420280456542969
ell 774, elapsed: 0.00043392181396484375
ell 773, elapsed: 0.00043201446533203125
ell 772, elapsed: 0.0005481243133544922
ell 771, elapsed: 0.00043392181396484375
ell 770, elapsed: 0.00044608116149902344
ell 769, elapsed: 0.00043702125549316406
ell 768, elapsed: 0.0004420280456542969
ell 767, elapsed: 0.0004398822784423828
ell 766, elapsed: 0.0004379749298095703
ell 765, elapsed: 0.0004360675811767578
ell 764, elapsed: 0.0005331039428710938
ell 763, elapsed: 0.00043892860412597656
ell 762, elapsed: 0.0004508495330810547
ell 761, elapsed: 0.0004420280456542969
ell 760, elapsed: 0.00044989585876464844
ell 759, elapsed: 0.00044608116149902344
ell 758, elapsed: 0.00044417381286621094
ell 757, elapsed: 0.0004458427429199219
ell 756, elapsed: 0.00047087669372558594
ell 755, elapsed: 0.0005970001220703125
ell 754, elapsed: 0.0004839897155761719
ell 753, elapsed: 0.0004470348358154297
ell 752, elapsed: 0.00044608116149902344
ell 751, elapsed: 0.0004379749298095703
ell 750, elapsed: 0.00043582916259765625
ell 749, elapsed: 0.0005939006805419922
ell 748, elapsed: 0.0005240440368652344
ell 747, elapsed: 0.0004401206970214844
ell 746, elapsed: 0.00043892860412597656
ell 745, elapsed: 0.00043582916259765625
ell 744, elapsed: 0.00043702125549316406
ell 743, elapsed: 0.0004391670227050781
ell 742, elapsed: 0.00043892860412597656
ell 741, elapsed: 0.00045800209045410156
ell 740, elapsed: 0.0004401206970214844
ell 739, elapsed: 0.0006139278411865234
ell 738, elapsed: 0.0004980564117431641
ell 737, elapsed: 0.0005850791931152344
ell 736, elapsed: 0.0005540847778320312
ell 735, elapsed: 0.00043392181396484375
ell 734, elapsed: 0.00045800209045410156
ell 733, elapsed: 0.0004401206970214844
ell 732, elapsed: 0.0004439353942871094
ell 731, elapsed: 0.00045990943908691406
ell 730, elapsed: 0.00043320655822753906
ell 729, elapsed: 0.00043702125549316406
ell 728, elapsed: 0.0004360675811767578
ell 727, elapsed: 0.00043892860412597656
ell 726, elapsed: 0.0004608631134033203
ell 725, elapsed: 0.00043201446533203125
ell 724, elapsed: 0.0005879402160644531
ell 723, elapsed: 0.0006167888641357422
ell 722, elapsed: 0.00043702125549316406
ell 721, elapsed: 0.00043511390686035156
ell 720, elapsed: 0.0005590915679931641
ell 719, elapsed: 0.000576019287109375
ell 718, elapsed: 0.00043702125549316406
ell 717, elapsed: 0.00044608116149902344
ell 716, elapsed: 0.00043320655822753906
ell 715, elapsed: 0.00043511390686035156
ell 714, elapsed: 0.000431060791015625
ell 713, elapsed: 0.0004341602325439453
ell 712, elapsed: 0.0004279613494873047
ell 711, elapsed: 0.0005228519439697266
ell 710, elapsed: 0.0004279613494873047
ell 709, elapsed: 0.0004391670227050781
ell 708, elapsed: 0.00043892860412597656
ell 707, elapsed: 0.0004401206970214844
ell 706, elapsed: 0.00043892860412597656
ell 705, elapsed: 0.0004360675811767578
ell 704, elapsed: 0.0004420280456542969
ell 703, elapsed: 0.0005438327789306641
ell 702, elapsed: 0.0004470348358154297
ell 701, elapsed: 0.0004470348358154297
ell 700, elapsed: 0.0005259513854980469
ell 699, elapsed: 0.0006959438323974609
ell 698, elapsed: 0.0005259513854980469
ell 697, elapsed: 0.0004401206970214844
ell 696, elapsed: 0.0005259513854980469
ell 695, elapsed: 0.0004379749298095703
ell 694, elapsed: 0.0004429817199707031
ell 693, elapsed: 0.0004909038543701172
ell 692, elapsed: 0.0006201267242431641
ell 691, elapsed: 0.00043702125549316406
ell 690, elapsed: 0.0006270408630371094
ell 689, elapsed: 0.000682830810546875
ell 688, elapsed: 0.0004420280456542969
ell 687, elapsed: 0.00043892860412597656
ell 686, elapsed: 0.0004489421844482422
ell 685, elapsed: 0.0005028247833251953
ell 684, elapsed: 0.0006079673767089844
ell 683, elapsed: 0.00043892860412597656
ell 682, elapsed: 0.0005331039428710938
ell 681, elapsed: 0.0004451274871826172
ell 680, elapsed: 0.0004429817199707031
ell 679, elapsed: 0.0004470348358154297
ell 678, elapsed: 0.0004391670227050781
ell 677, elapsed: 0.00043892860412597656
ell 676, elapsed: 0.0004448890686035156
ell 675, elapsed: 0.0004379749298095703
ell 674, elapsed: 0.0005428791046142578
ell 673, elapsed: 0.0004458427429199219
ell 672, elapsed: 0.0004401206970214844
ell 671, elapsed: 0.0004341602325439453
ell 670, elapsed: 0.00042319297790527344
ell 669, elapsed: 0.00042891502380371094
ell 668, elapsed: 0.000576019287109375
ell 667, elapsed: 0.0006198883056640625
ell 666, elapsed: 0.0004329681396484375
ell 665, elapsed: 0.00043010711669921875
ell 664, elapsed: 0.00043201446533203125
ell 663, elapsed: 0.0006270408630371094
ell 662, elapsed: 0.0006070137023925781
ell 661, elapsed: 0.0005400180816650391
ell 660, elapsed: 0.0005297660827636719
ell 659, elapsed: 0.0004439353942871094
ell 658, elapsed: 0.0004360675811767578
ell 657, elapsed: 0.0004448890686035156
ell 656, elapsed: 0.0004382133483886719
ell 655, elapsed: 0.0004410743713378906
ell 654, elapsed: 0.0004410743713378906
ell 653, elapsed: 0.0004439353942871094
ell 652, elapsed: 0.0005447864532470703
ell 651, elapsed: 0.0005359649658203125
ell 650, elapsed: 0.0005810260772705078
ell 649, elapsed: 0.0004439353942871094
ell 648, elapsed: 0.00043892860412597656
ell 647, elapsed: 0.00045299530029296875
ell 646, elapsed: 0.00043582916259765625
ell 645, elapsed: 0.0005278587341308594
ell 644, elapsed: 0.0004439353942871094
ell 643, elapsed: 0.0005609989166259766
ell 642, elapsed: 0.0005509853363037109
ell 641, elapsed: 0.0004379749298095703
ell 640, elapsed: 0.00043892860412597656
ell 639, elapsed: 0.0005919933319091797
ell 638, elapsed: 0.0006959438323974609
ell 637, elapsed: 0.0004448890686035156
ell 636, elapsed: 0.0005621910095214844
ell 635, elapsed: 0.0006101131439208984
ell 634, elapsed: 0.0006051063537597656
ell 633, elapsed: 0.00043392181396484375
ell 632, elapsed: 0.0004489421844482422
ell 631, elapsed: 0.0006148815155029297
ell 630, elapsed: 0.0006098747253417969
ell 629, elapsed: 0.0005590915679931641
ell 628, elapsed: 0.0005619525909423828
ell 627, elapsed: 0.0005371570587158203
ell 626, elapsed: 0.0005700588226318359
ell 625, elapsed: 0.0005428791046142578
ell 624, elapsed: 0.0004391670227050781
ell 623, elapsed: 0.0004279613494873047
ell 622, elapsed: 0.00044083595275878906
ell 621, elapsed: 0.0004360675811767578
ell 620, elapsed: 0.0005300045013427734
ell 619, elapsed: 0.0005788803100585938
ell 618, elapsed: 0.0007159709930419922
ell 617, elapsed: 0.00046706199645996094
ell 616, elapsed: 0.0004971027374267578
ell 615, elapsed: 0.0006551742553710938
ell 614, elapsed: 0.0005500316619873047
ell 613, elapsed: 0.00041413307189941406
ell 612, elapsed: 0.0006098747253417969
ell 611, elapsed: 0.0006411075592041016
ell 610, elapsed: 0.00043892860412597656
ell 609, elapsed: 0.0004241466522216797
ell 608, elapsed: 0.0005290508270263672
ell 607, elapsed: 0.0005810260772705078
ell 606, elapsed: 0.0005741119384765625
ell 605, elapsed: 0.0005218982696533203
ell 604, elapsed: 0.0007040500640869141
ell 603, elapsed: 0.0006148815155029297
ell 602, elapsed: 0.0005180835723876953
ell 601, elapsed: 0.0006868839263916016
ell 600, elapsed: 0.0005109310150146484
ell 599, elapsed: 0.0004329681396484375
ell 598, elapsed: 0.0007069110870361328
ell 597, elapsed: 0.0006351470947265625
ell 596, elapsed: 0.0004980564117431641
ell 595, elapsed: 0.0004298686981201172
ell 594, elapsed: 0.0004248619079589844
ell 593, elapsed: 0.0004258155822753906
ell 592, elapsed: 0.0004169940948486328
ell 591, elapsed: 0.0005230903625488281
ell 590, elapsed: 0.000431060791015625
ell 589, elapsed: 0.0004229545593261719
ell 588, elapsed: 0.0004329681396484375
ell 587, elapsed: 0.000431060791015625
ell 586, elapsed: 0.000431060791015625
ell 585, elapsed: 0.00043487548828125
ell 584, elapsed: 0.00042700767517089844
ell 583, elapsed: 0.0005249977111816406
ell 582, elapsed: 0.0004210472106933594
ell 581, elapsed: 0.00042700767517089844
ell 580, elapsed: 0.0004220008850097656
ell 579, elapsed: 0.0004241466522216797
ell 578, elapsed: 0.00042700767517089844
ell 577, elapsed: 0.00041985511779785156
ell 576, elapsed: 0.00042700767517089844
ell 575, elapsed: 0.000514984130859375
ell 574, elapsed: 0.0004298686981201172
ell 573, elapsed: 0.00042700767517089844
ell 572, elapsed: 0.0004189014434814453
ell 571, elapsed: 0.00042510032653808594
ell 570, elapsed: 0.00041794776916503906
ell 569, elapsed: 0.0004229545593261719
ell 568, elapsed: 0.0004248619079589844
ell 567, elapsed: 0.0004169940948486328
ell 566, elapsed: 0.0005428791046142578
ell 565, elapsed: 0.000431060791015625
ell 564, elapsed: 0.000431060791015625
ell 563, elapsed: 0.0004868507385253906
ell 562, elapsed: 0.0004401206970214844
ell 561, elapsed: 0.0004429817199707031
ell 560, elapsed: 0.00043892860412597656
ell 559, elapsed: 0.00043702125549316406
ell 558, elapsed: 0.0004630088806152344
ell 557, elapsed: 0.0004410743713378906
ell 556, elapsed: 0.0004489421844482422
ell 555, elapsed: 0.0004439353942871094
ell 554, elapsed: 0.0004420280456542969
ell 553, elapsed: 0.0004439353942871094
ell 552, elapsed: 0.0004439353942871094
ell 551, elapsed: 0.0005578994750976562
ell 550, elapsed: 0.00045299530029296875
ell 549, elapsed: 0.0004410743713378906
ell 548, elapsed: 0.0004439353942871094
ell 547, elapsed: 0.0004410743713378906
ell 546, elapsed: 0.0004439353942871094
ell 545, elapsed: 0.0004439353942871094
ell 544, elapsed: 0.0004448890686035156
ell 543, elapsed: 0.0005481243133544922
ell 542, elapsed: 0.0004429817199707031
ell 541, elapsed: 0.00045013427734375
ell 540, elapsed: 0.0004439353942871094
ell 539, elapsed: 0.00045013427734375
ell 538, elapsed: 0.00044608116149902344
ell 537, elapsed: 0.0004458427429199219
ell 536, elapsed: 0.0004458427429199219
ell 535, elapsed: 0.0005478858947753906
ell 534, elapsed: 0.0004439353942871094
ell 533, elapsed: 0.0004401206970214844
ell 532, elapsed: 0.0005888938903808594
ell 531, elapsed: 0.0005290508270263672
ell 530, elapsed: 0.0005559921264648438
ell 529, elapsed: 0.0005979537963867188
ell 528, elapsed: 0.0004410743713378906
ell 527, elapsed: 0.0004451274871826172
ell 526, elapsed: 0.0004470348358154297
ell 525, elapsed: 0.0004398822784423828
ell 524, elapsed: 0.00044989585876464844
ell 523, elapsed: 0.0004398822784423828
ell 522, elapsed: 0.000431060791015625
ell 521, elapsed: 0.0005431175231933594
ell 520, elapsed: 0.00043201446533203125
ell 519, elapsed: 0.00044798851013183594
ell 518, elapsed: 0.00043892860412597656
ell 517, elapsed: 0.00043892860412597656
ell 516, elapsed: 0.0004429817199707031
ell 515, elapsed: 0.00044608116149902344
ell 514, elapsed: 0.0004429817199707031
ell 513, elapsed: 0.0005300045013427734
ell 512, elapsed: 0.0004608631134033203
ell 511, elapsed: 0.0004329681396484375
ell 510, elapsed: 0.0004391670227050781
ell 509, elapsed: 0.0004432201385498047
ell 508, elapsed: 0.00043702125549316406
ell 507, elapsed: 0.00043511390686035156
ell 506, elapsed: 0.00042510032653808594
ell 505, elapsed: 0.0005199909210205078
ell 504, elapsed: 0.00043892860412597656
ell 503, elapsed: 0.0004248619079589844
ell 502, elapsed: 0.0004379749298095703
ell 501, elapsed: 0.0004239082336425781
ell 500, elapsed: 0.00042700767517089844
ell 499, elapsed: 0.00042700767517089844
ell 498, elapsed: 0.0004291534423828125
ell 497, elapsed: 0.0005369186401367188
ell 496, elapsed: 0.00043487548828125
ell 495, elapsed: 0.00042510032653808594
ell 494, elapsed: 0.00044798851013183594
ell 493, elapsed: 0.00043702125549316406
ell 492, elapsed: 0.0004279613494873047
ell 491, elapsed: 0.0004229545593261719
ell 490, elapsed: 0.00042700767517089844
ell 489, elapsed: 0.0004241466522216797
ell 488, elapsed: 0.0004200935363769531
ell 487, elapsed: 0.0004420280456542969
ell 486, elapsed: 0.0004401206970214844
ell 485, elapsed: 0.0005319118499755859
ell 484, elapsed: 0.0006649494171142578
ell 483, elapsed: 0.000659942626953125
ell 482, elapsed: 0.0006630420684814453
ell 481, elapsed: 0.0006110668182373047
ell 480, elapsed: 0.0006480216979980469
ell 479, elapsed: 0.000514984130859375
ell 478, elapsed: 0.0006010532379150391
ell 477, elapsed: 0.0005228519439697266
ell 476, elapsed: 0.0005190372467041016
ell 475, elapsed: 0.0004470348358154297
ell 474, elapsed: 0.0004398822784423828
ell 473, elapsed: 0.00042700767517089844
ell 472, elapsed: 0.0004191398620605469
ell 471, elapsed: 0.0004210472106933594
ell 470, elapsed: 0.0005869865417480469
ell 469, elapsed: 0.0005240440368652344
ell 468, elapsed: 0.0005168914794921875
ell 467, elapsed: 0.0004429817199707031
ell 466, elapsed: 0.00043892860412597656
ell 465, elapsed: 0.0004410743713378906
ell 464, elapsed: 0.00041294097900390625
ell 463, elapsed: 0.0004410743713378906
ell 462, elapsed: 0.00043082237243652344
ell 461, elapsed: 0.0004379749298095703
ell 460, elapsed: 0.0005178451538085938
ell 459, elapsed: 0.0004410743713378906
ell 458, elapsed: 0.00044798851013183594
ell 457, elapsed: 0.0004470348358154297
ell 456, elapsed: 0.00044608116149902344
ell 455, elapsed: 0.0004220008850097656
ell 454, elapsed: 0.0005462169647216797
ell 453, elapsed: 0.0005691051483154297
ell 452, elapsed: 0.00043201446533203125
ell 451, elapsed: 0.0004379749298095703
ell 450, elapsed: 0.0005388259887695312
ell 449, elapsed: 0.0006051063537597656
ell 448, elapsed: 0.0005638599395751953
ell 447, elapsed: 0.0005640983581542969
ell 446, elapsed: 0.000637054443359375
ell 445, elapsed: 0.0004940032958984375
ell 444, elapsed: 0.0004391670227050781
ell 443, elapsed: 0.00044417381286621094
ell 442, elapsed: 0.0005509853363037109
ell 441, elapsed: 0.0006799697875976562
ell 440, elapsed: 0.0006768703460693359
ell 439, elapsed: 0.0006818771362304688
ell 438, elapsed: 0.00048804283142089844
ell 437, elapsed: 0.0004417896270751953
ell 436, elapsed: 0.0004429817199707031
ell 435, elapsed: 0.0004439353942871094
ell 434, elapsed: 0.0004429817199707031
ell 433, elapsed: 0.0004451274871826172
ell 432, elapsed: 0.0004711151123046875
ell 431, elapsed: 0.0005390644073486328
ell 430, elapsed: 0.0005829334259033203
ell 429, elapsed: 0.0004451274871826172
ell 428, elapsed: 0.0004520416259765625
ell 427, elapsed: 0.0004410743713378906
ell 426, elapsed: 0.00044608116149902344
ell 425, elapsed: 0.0005979537963867188
ell 424, elapsed: 0.0005009174346923828
ell 423, elapsed: 0.0006320476531982422
ell 422, elapsed: 0.0004911422729492188
ell 421, elapsed: 0.00044417381286621094
ell 420, elapsed: 0.0004379749298095703
ell 419, elapsed: 0.00043702125549316406
ell 418, elapsed: 0.0004520416259765625
ell 417, elapsed: 0.0006270408630371094
ell 416, elapsed: 0.0004839897155761719
ell 415, elapsed: 0.0004420280456542969
ell 414, elapsed: 0.0004410743713378906
ell 413, elapsed: 0.00045418739318847656
ell 412, elapsed: 0.0004379749298095703
ell 411, elapsed: 0.00044608116149902344
ell 410, elapsed: 0.00045990943908691406
ell 409, elapsed: 0.0006110668182373047
ell 408, elapsed: 0.0005180835723876953
ell 407, elapsed: 0.0004470348358154297
ell 406, elapsed: 0.0004520416259765625
ell 405, elapsed: 0.00044083595275878906
ell 404, elapsed: 0.0004429817199707031
ell 403, elapsed: 0.00047016143798828125
ell 402, elapsed: 0.0004379749298095703
ell 401, elapsed: 0.0004391670227050781
ell 400, elapsed: 0.00042319297790527344
ell 399, elapsed: 0.0004279613494873047
ell 398, elapsed: 0.0004200935363769531
ell 397, elapsed: 0.0004210472106933594
ell 396, elapsed: 0.0004220008850097656
ell 395, elapsed: 0.0006158351898193359
ell 394, elapsed: 0.0004980564117431641
ell 393, elapsed: 0.0005619525909423828
ell 392, elapsed: 0.0006020069122314453
ell 391, elapsed: 0.0005130767822265625
ell 390, elapsed: 0.0006718635559082031
ell 389, elapsed: 0.0005350112915039062
ell 388, elapsed: 0.0004520416259765625
ell 387, elapsed: 0.0005488395690917969
ell 386, elapsed: 0.00067901611328125
ell 385, elapsed: 0.0005528926849365234
ell 384, elapsed: 0.0005550384521484375
ell 383, elapsed: 0.0005288124084472656
ell 382, elapsed: 0.0006191730499267578
ell 381, elapsed: 0.0005059242248535156
ell 380, elapsed: 0.0005512237548828125
ell 379, elapsed: 0.0005269050598144531
ell 378, elapsed: 0.0005860328674316406
ell 377, elapsed: 0.0005099773406982422
ell 376, elapsed: 0.000492095947265625
ell 375, elapsed: 0.0006160736083984375
ell 374, elapsed: 0.0005540847778320312
ell 373, elapsed: 0.0005459785461425781
ell 372, elapsed: 0.00045800209045410156
ell 371, elapsed: 0.0004379749298095703
ell 370, elapsed: 0.0005421638488769531
ell 369, elapsed: 0.0005619525909423828
ell 368, elapsed: 0.0004611015319824219
ell 367, elapsed: 0.0004470348358154297
ell 366, elapsed: 0.00043511390686035156
ell 365, elapsed: 0.00043511390686035156
ell 364, elapsed: 0.0004391670227050781
ell 363, elapsed: 0.00043201446533203125
ell 362, elapsed: 0.0004489421844482422
ell 361, elapsed: 0.0005440711975097656
ell 360, elapsed: 0.0005469322204589844
ell 359, elapsed: 0.00043892860412597656
ell 358, elapsed: 0.0004391670227050781
ell 357, elapsed: 0.00045013427734375
ell 356, elapsed: 0.00043892860412597656
ell 355, elapsed: 0.0005249977111816406
ell 354, elapsed: 0.0005869865417480469
ell 353, elapsed: 0.0006630420684814453
ell 352, elapsed: 0.0005900859832763672
ell 351, elapsed: 0.0005679130554199219
ell 350, elapsed: 0.00043201446533203125
ell 349, elapsed: 0.00044989585876464844
ell 348, elapsed: 0.0004341602325439453
ell 347, elapsed: 0.0004439353942871094
ell 346, elapsed: 0.000453948974609375
ell 345, elapsed: 0.00043201446533203125
ell 344, elapsed: 0.0004360675811767578
ell 343, elapsed: 0.0006239414215087891
ell 342, elapsed: 0.0005040168762207031
ell 341, elapsed: 0.0004379749298095703
ell 340, elapsed: 0.0004401206970214844
ell 339, elapsed: 0.0005609989166259766
ell 338, elapsed: 0.0005719661712646484
ell 337, elapsed: 0.0005679130554199219
ell 336, elapsed: 0.0006239414215087891
ell 335, elapsed: 0.0006229877471923828
ell 334, elapsed: 0.0005288124084472656
ell 333, elapsed: 0.0006189346313476562
ell 332, elapsed: 0.0004520416259765625
ell 331, elapsed: 0.0004439353942871094
ell 330, elapsed: 0.0006401538848876953
ell 329, elapsed: 0.0004930496215820312
ell 328, elapsed: 0.0004429817199707031
ell 327, elapsed: 0.0004429817199707031
ell 326, elapsed: 0.00043702125549316406
ell 325, elapsed: 0.0004761219024658203
ell 324, elapsed: 0.00043487548828125
ell 323, elapsed: 0.0004379749298095703
ell 322, elapsed: 0.0004360675811767578
ell 321, elapsed: 0.00043511390686035156
ell 320, elapsed: 0.0004417896270751953
ell 319, elapsed: 0.00043702125549316406
ell 318, elapsed: 0.0004391670227050781
ell 317, elapsed: 0.0004661083221435547
ell 316, elapsed: 0.0004379749298095703
ell 315, elapsed: 0.00049591064453125
ell 314, elapsed: 0.0006039142608642578
ell 313, elapsed: 0.0004379749298095703
ell 312, elapsed: 0.0005171298980712891
ell 311, elapsed: 0.0006771087646484375
ell 310, elapsed: 0.0005397796630859375
ell 309, elapsed: 0.0005879402160644531
ell 308, elapsed: 0.0005059242248535156
ell 307, elapsed: 0.0004398822784423828
ell 306, elapsed: 0.0004410743713378906
ell 305, elapsed: 0.0004489421844482422
ell 304, elapsed: 0.0004429817199707031
ell 303, elapsed: 0.00045800209045410156
ell 302, elapsed: 0.00043487548828125
ell 301, elapsed: 0.0004382133483886719
ell 300, elapsed: 0.0004379749298095703
ell 299, elapsed: 0.0004379749298095703
ell 298, elapsed: 0.0004458427429199219
ell 297, elapsed: 0.00043702125549316406
ell 296, elapsed: 0.0004379749298095703
ell 295, elapsed: 0.0004558563232421875
ell 294, elapsed: 0.0004329681396484375
ell 293, elapsed: 0.0004432201385498047
ell 292, elapsed: 0.00043487548828125
ell 291, elapsed: 0.0004360675811767578
ell 290, elapsed: 0.00043511390686035156
ell 289, elapsed: 0.000431060791015625
ell 288, elapsed: 0.00043892860412597656
ell 287, elapsed: 0.000553131103515625
ell 286, elapsed: 0.000576019287109375
ell 285, elapsed: 0.0004398822784423828
ell 284, elapsed: 0.00043487548828125
ell 283, elapsed: 0.0004451274871826172
ell 282, elapsed: 0.0004429817199707031
ell 281, elapsed: 0.0004520416259765625
ell 280, elapsed: 0.00044608116149902344
ell 279, elapsed: 0.0004658699035644531
ell 278, elapsed: 0.00043392181396484375
ell 277, elapsed: 0.0004360675811767578
ell 276, elapsed: 0.0004420280456542969
ell 275, elapsed: 0.0004379749298095703
ell 274, elapsed: 0.0004329681396484375
ell 273, elapsed: 0.0004451274871826172
ell 272, elapsed: 0.0006501674652099609
ell 271, elapsed: 0.000621795654296875
ell 270, elapsed: 0.0005331039428710938
ell 269, elapsed: 0.0004420280456542969
ell 268, elapsed: 0.0006220340728759766
ell 267, elapsed: 0.0005040168762207031
ell 266, elapsed: 0.0004482269287109375
ell 265, elapsed: 0.0004680156707763672
ell 264, elapsed: 0.0004379749298095703
ell 263, elapsed: 0.0004448890686035156
ell 262, elapsed: 0.0004489421844482422
ell 261, elapsed: 0.00044798851013183594
ell 260, elapsed: 0.0004379749298095703
ell 259, elapsed: 0.00043487548828125
ell 258, elapsed: 0.00044918060302734375
ell 257, elapsed: 0.00045800209045410156
ell 256, elapsed: 0.00045013427734375
ell 255, elapsed: 0.0006380081176757812
ell 254, elapsed: 0.0005400180816650391
ell 253, elapsed: 0.00061798095703125
ell 252, elapsed: 0.00045013427734375
ell 251, elapsed: 0.0004448890686035156
ell 250, elapsed: 0.0005068778991699219
ell 249, elapsed: 0.0004439353942871094
ell 248, elapsed: 0.0006070137023925781
ell 247, elapsed: 0.0005071163177490234
ell 246, elapsed: 0.00045299530029296875
ell 245, elapsed: 0.0004398822784423828
ell 244, elapsed: 0.0004489421844482422
ell 243, elapsed: 0.0005419254302978516
ell 242, elapsed: 0.0004448890686035156
ell 241, elapsed: 0.0004448890686035156
ell 240, elapsed: 0.0004410743713378906
ell 239, elapsed: 0.00044608116149902344
ell 238, elapsed: 0.00043892860412597656
ell 237, elapsed: 0.0005140304565429688
ell 236, elapsed: 0.0008108615875244141
ell 235, elapsed: 0.0006229877471923828
ell 234, elapsed: 0.0006041526794433594
ell 233, elapsed: 0.0004451274871826172
ell 232, elapsed: 0.0006229877471923828
ell 231, elapsed: 0.0006289482116699219
ell 230, elapsed: 0.0005941390991210938
ell 229, elapsed: 0.0005500316619873047
ell 228, elapsed: 0.0007531642913818359
ell 227, elapsed: 0.0005810260772705078
ell 226, elapsed: 0.0006489753723144531
ell 225, elapsed: 0.0006830692291259766
ell 224, elapsed: 0.0007128715515136719
ell 223, elapsed: 0.0004892349243164062
ell 222, elapsed: 0.0005910396575927734
ell 221, elapsed: 0.0005199909210205078
ell 220, elapsed: 0.0006210803985595703
ell 219, elapsed: 0.0006868839263916016
ell 218, elapsed: 0.0006139278411865234
ell 217, elapsed: 0.00043582916259765625
ell 216, elapsed: 0.00061798095703125
ell 215, elapsed: 0.0005719661712646484
ell 214, elapsed: 0.0006129741668701172
ell 213, elapsed: 0.0006809234619140625
ell 212, elapsed: 0.0006990432739257812
ell 211, elapsed: 0.0006821155548095703
ell 210, elapsed: 0.0006918907165527344
ell 209, elapsed: 0.00045609474182128906
ell 208, elapsed: 0.00047588348388671875
ell 207, elapsed: 0.0004379749298095703
ell 206, elapsed: 0.00045108795166015625
ell 205, elapsed: 0.0005469322204589844
ell 204, elapsed: 0.0005850791931152344
ell 203, elapsed: 0.0004410743713378906
ell 202, elapsed: 0.0004379749298095703
ell 201, elapsed: 0.00044083595275878906
ell 200, elapsed: 0.0006010532379150391
ell 199, elapsed: 0.0005400180816650391
ell 198, elapsed: 0.00043201446533203125
ell 197, elapsed: 0.0004360675811767578
ell 196, elapsed: 0.0004329681396484375
ell 195, elapsed: 0.0004420280456542969
ell 194, elapsed: 0.0004382133483886719
ell 193, elapsed: 0.008762121200561523
ell 192, elapsed: 0.0006678104400634766
ell 191, elapsed: 0.0009810924530029297
ell 190, elapsed: 0.000637054443359375
ell 189, elapsed: 0.0005781650543212891
ell 188, elapsed: 0.0006461143493652344
ell 187, elapsed: 0.0007021427154541016
ell 186, elapsed: 0.0006949901580810547
ell 185, elapsed: 0.000701904296875
ell 184, elapsed: 0.0006937980651855469
ell 183, elapsed: 0.0006959438323974609
ell 182, elapsed: 0.0007410049438476562
ell 181, elapsed: 0.0005910396575927734
ell 180, elapsed: 0.0004410743713378906
ell 179, elapsed: 0.0004830360412597656
ell 178, elapsed: 0.0004341602325439453
ell 177, elapsed: 0.0004260540008544922
ell 176, elapsed: 0.0004260540008544922
ell 175, elapsed: 0.00043010711669921875
ell 174, elapsed: 0.0004589557647705078
ell 173, elapsed: 0.0006458759307861328
ell 172, elapsed: 0.0006651878356933594
ell 171, elapsed: 0.0005002021789550781
ell 170, elapsed: 0.0004401206970214844
ell 169, elapsed: 0.0004398822784423828
ell 168, elapsed: 0.0005810260772705078
ell 167, elapsed: 0.0007050037384033203
ell 166, elapsed: 0.0005650520324707031
ell 165, elapsed: 0.0006830692291259766
ell 164, elapsed: 0.0007028579711914062
ell 163, elapsed: 0.0006880760192871094
ell 162, elapsed: 0.0007610321044921875
ell 161, elapsed: 0.0007040500640869141
ell 160, elapsed: 0.000698089599609375
ell 159, elapsed: 0.0006639957427978516
ell 158, elapsed: 0.0007710456848144531
ell 157, elapsed: 0.0007231235504150391
ell 156, elapsed: 0.0006999969482421875
ell 155, elapsed: 0.0006959438323974609
ell 154, elapsed: 0.0006449222564697266
ell 153, elapsed: 0.0007140636444091797
ell 152, elapsed: 0.0008459091186523438
ell 151, elapsed: 0.0007050037384033203
ell 150, elapsed: 0.0005588531494140625
ell 149, elapsed: 0.0007669925689697266
ell 148, elapsed: 0.0007050037384033203
ell 147, elapsed: 0.0007219314575195312
ell 146, elapsed: 0.0006239414215087891
ell 145, elapsed: 0.0006399154663085938
ell 144, elapsed: 0.0006902217864990234
ell 143, elapsed: 0.0007050037384033203
ell 142, elapsed: 0.0008230209350585938
ell 141, elapsed: 0.0005500316619873047
ell 140, elapsed: 0.0005130767822265625
ell 139, elapsed: 0.0004329681396484375
ell 138, elapsed: 0.00042700767517089844
ell 137, elapsed: 0.0004258155822753906
ell 136, elapsed: 0.0004298686981201172
ell 135, elapsed: 0.0004489421844482422
ell 134, elapsed: 0.0004279613494873047
ell 133, elapsed: 0.0004379749298095703
ell 132, elapsed: 0.00043511390686035156
ell 131, elapsed: 0.00044608116149902344
ell 130, elapsed: 0.00043201446533203125
ell 129, elapsed: 0.00043487548828125
ell 128, elapsed: 0.0004999637603759766
ell 127, elapsed: 0.0004508495330810547
ell 126, elapsed: 0.0005960464477539062
ell 125, elapsed: 0.0006930828094482422
ell 124, elapsed: 0.0007100105285644531
ell 123, elapsed: 0.0006930828094482422
ell 122, elapsed: 0.0007030963897705078
ell 121, elapsed: 0.0008440017700195312
ell 120, elapsed: 0.0007011890411376953
ell 119, elapsed: 0.0007801055908203125
ell 118, elapsed: 0.0005660057067871094
ell 117, elapsed: 0.0006799697875976562
ell 116, elapsed: 0.0007188320159912109
ell 115, elapsed: 0.0006670951843261719
ell 114, elapsed: 0.0007128715515136719
ell 113, elapsed: 0.0005710124969482422
ell 112, elapsed: 0.0006940364837646484
ell 111, elapsed: 0.0007131099700927734
ell 110, elapsed: 0.0006709098815917969
ell 109, elapsed: 0.00061798095703125
ell 108, elapsed: 0.0006639957427978516
ell 107, elapsed: 0.0004668235778808594
ell 106, elapsed: 0.000514984130859375
ell 105, elapsed: 0.0007109642028808594
ell 104, elapsed: 0.0006840229034423828
ell 103, elapsed: 0.0006208419799804688
ell 102, elapsed: 0.00067901611328125
ell 101, elapsed: 0.0006780624389648438
ell 100, elapsed: 0.000576019287109375
ell 99, elapsed: 0.0006690025329589844
ell 98, elapsed: 0.0005898475646972656
ell 97, elapsed: 0.0006539821624755859
ell 96, elapsed: 0.0007011890411376953
ell 95, elapsed: 0.0006999969482421875
ell 94, elapsed: 0.0005791187286376953
ell 93, elapsed: 0.0004889965057373047
ell 92, elapsed: 0.00043892860412597656
ell 91, elapsed: 0.0004420280456542969
ell 90, elapsed: 0.00043010711669921875
ell 89, elapsed: 0.0004410743713378906
ell 88, elapsed: 0.0005381107330322266
ell 87, elapsed: 0.0005691051483154297
ell 86, elapsed: 0.0003418922424316406
ell 85, elapsed: 0.0003261566162109375
ell 84, elapsed: 0.0003249645233154297
ell 83, elapsed: 0.00032401084899902344
ell 82, elapsed: 0.00032591819763183594
ell 81, elapsed: 0.00032401084899902344
ell 80, elapsed: 0.0003230571746826172
ell 79, elapsed: 0.0003750324249267578
ell 78, elapsed: 0.00032591819763183594
ell 77, elapsed: 0.00032806396484375
ell 76, elapsed: 0.0003960132598876953
ell 75, elapsed: 0.0006489753723144531
ell 74, elapsed: 0.0006251335144042969
ell 73, elapsed: 0.0005609989166259766
ell 72, elapsed: 0.0005440711975097656
ell 71, elapsed: 0.0005741119384765625
ell 70, elapsed: 0.000640869140625
ell 69, elapsed: 0.0004999637603759766
ell 68, elapsed: 0.0005679130554199219
ell 67, elapsed: 0.0005600452423095703
ell 66, elapsed: 0.0005958080291748047
ell 65, elapsed: 0.000701904296875
ell 64, elapsed: 0.0006268024444580078
ell 63, elapsed: 0.0004911422729492188
ell 62, elapsed: 0.0004839897155761719
ell 61, elapsed: 0.00035691261291503906
ell 60, elapsed: 0.0006060600280761719
ell 59, elapsed: 0.0005481243133544922
ell 58, elapsed: 0.0004398822784423828
ell 57, elapsed: 0.0005750656127929688
ell 56, elapsed: 0.0006639957427978516
ell 55, elapsed: 0.0006680488586425781
ell 54, elapsed: 0.0006029605865478516
ell 53, elapsed: 0.0006310939788818359
ell 52, elapsed: 0.00043511390686035156
ell 51, elapsed: 0.0004329681396484375
ell 50, elapsed: 0.0006067752838134766
ell 49, elapsed: 0.0006589889526367188
ell 48, elapsed: 0.0005159378051757812
ell 47, elapsed: 0.00045990943908691406
ell 46, elapsed: 0.0006079673767089844
ell 45, elapsed: 0.0006020069122314453
ell 44, elapsed: 0.0005950927734375
ell 43, elapsed: 0.0004968643188476562
ell 42, elapsed: 0.00043392181396484375
ell 41, elapsed: 0.0006289482116699219
ell 40, elapsed: 0.0006990432739257812
ell 39, elapsed: 0.0005910396575927734
ell 38, elapsed: 0.0004248619079589844
ell 37, elapsed: 0.00043511390686035156
ell 36, elapsed: 0.00043511390686035156
ell 35, elapsed: 0.0004410743713378906
ell 34, elapsed: 0.0006411075592041016
ell 33, elapsed: 0.0005660057067871094
ell 32, elapsed: 0.0005421638488769531
ell 31, elapsed: 0.0005340576171875
ell 30, elapsed: 0.00044798851013183594
ell 29, elapsed: 0.00044417381286621094
ell 28, elapsed: 0.0005121231079101562
ell 27, elapsed: 0.0006308555603027344
ell 26, elapsed: 0.0006799697875976562
ell 25, elapsed: 0.0005707740783691406
ell 24, elapsed: 0.0006079673767089844
ell 23, elapsed: 0.0005621910095214844
ell 22, elapsed: 0.0005130767822265625
ell 21, elapsed: 0.0004639625549316406
ell 20, elapsed: 0.00045299530029296875
ell 19, elapsed: 0.00043702125549316406
ell 18, elapsed: 0.0005660057067871094
ell 17, elapsed: 0.0006721019744873047
ell 16, elapsed: 0.0006670951843261719
ell 15, elapsed: 0.0004980564117431641
ell 14, elapsed: 0.00047898292541503906
ell 13, elapsed: 0.0005788803100585938
ell 12, elapsed: 0.0006270408630371094
ell 11, elapsed: 0.00044918060302734375
ell 10, elapsed: 0.0006129741668701172
ell 9, elapsed: 0.0006709098815917969
ell 8, elapsed: 0.0005860328674316406
ell 7, elapsed: 0.0006079673767089844
ell 6, elapsed: 0.0005190372467041016
ell 5, elapsed: 0.0006659030914306641
ell 4, elapsed: 0.0006659030914306641
ell 3, elapsed: 0.0006020069122314453
ell 2, elapsed: 0.0007350444793701172
ell 1, elapsed: 0.0005578994750976562
ell 0, elapsed: 0.0008118152618408203
  0.827175 seconds (103.66 k allocations: 3.970 MiB)
elapsed: 0.002240896224975586
step:          0.074498 sec (0 allocations: 0 byte, 0.0% gc time)
swapping:      0.000854 sec (0 allocations: 0 byte, 0.0% gc time)
calc_Mellell!: 0.0129 sec (0 allocations: 0 byte, 0.0% gc time)
  t0 :  0.002493 sec (0 allocations: 0 byte, 0.0% gc time)
  tm2 : 0.107086 sec (0 allocations: 0 byte, 0.0% gc time)
  tm2s: 0.001738 sec (0 allocations: 0 byte, 0.0% gc time)
  tm4 : 0.280382 sec (0 allocations: 0 byte, 0.0% gc time)
  tp2 : 0.0 sec (0 allocations: 0 byte, 0.0% gc time)
  tp2s: 0.0 sec (0 allocations: 0 byte, 0.0% gc time)
  tp4 : 0.0 sec (0 allocations: 0 byte, 0.0% gc time)
calc_wtdll!:   0.451419 sec (9.9 k allocations: 1.047 MB, 0.0% gc time)
calc_wljj!:    0.050642 sec (689 allocations: 10.766 KB, 0.0% gc time)
mult_prefac!:  0.0 sec (0 allocations: 0 byte, 0.0% gc time)
convert:       0.0 sec (0 allocations: 0 byte, 0.0% gc time)
write:         0.048056 sec (0 allocations: 0 byte, 0.0% gc time)
test_rand_2f1: 0.0 sec (0 allocations: 0 byte, 0.0% gc time)
Closing outfile out/Ml21-cache.bin...   0.000007 seconds
  0.000637 seconds (36 allocations: 27.953 KiB)
make_phi():   0.002843 seconds (8.18 k allocations: 237.844 KiB)
  0.289923 seconds (141.90 k allocations: 3.483 MiB)
tskip:       0.001212 sec (0 allocations: 0 byte, 0.0% gc time)
tread:       0.033476 sec (17 allocations: 10.641 KB, 0.0% gc time)
tmultphi:    0.018852 sec (0 allocations: 0 byte, 0.0% gc time)
tbrfft:      0.078488 sec (0 allocations: 0 byte, 0.0% gc time)
tmultprefac: 0.066442 sec (0 allocations: 0 byte, 0.0% gc time)
toutfunc:    0.086447 sec (127.507 k allocations: 2.312 MB, 0.0% gc time)
Testing R=1.0 ... passed
Calculating fmax: 
  dlrec    = 4
  dlrecRg1 = -4
  q=1.1, R=0.9:	  0.518697 seconds (105.76 k allocations: 15.287 MiB, 3.37% gc time)

  0.519076 seconds (105.99 k allocations: 15.324 MiB, 3.36% gc time)
ℓ = 1202
Δℓ = 4
ΔℓRg1 = -4
N = 1600
q = 1.1
kmin = 1.0e-5
kmax = 100000.00000000004
χ0 = 0.023029999999999995
RR = RR.tsv
ℓmax = ℓmax.bin
f21 = f21.bin
kmin = 1.0e-5
kmax = 100000.0
dlrec    = 4
dlrecRg1 = -4
Output size: 5741568 bytes = 0.005347251892089844 GiB
Output size: 51264 bytes = 4.774332046508789e-5 GiB
Reading 'out/F21EllCache'...   0.001277 seconds (197 allocations: 84.203 KiB)
ellmax: 1202
lmaxcache: 1202
fell[:,1,1] = ComplexF64[1.3482014726274674e-57 - 3.302141236118086e-73im, 1.357860004724329e-57 - 3.3257978169518355e-73im]
ell 1202, elapsed: 6.103515625e-5
ell 1201, elapsed: 0.0006411075592041016
ell 1200, elapsed: 0.0006070137023925781
ell 1199, elapsed: 0.0006701946258544922
ell 1198, elapsed: 0.0006392002105712891
ell 1002, elapsed: 0.012138843536376953
ell 1001, elapsed: 0.00045800209045410156
ell 1000, elapsed: 0.0004260540008544922
ell 999, elapsed: 0.00045990943908691406
ell 998, elapsed: 0.0004990100860595703
ell 902, elapsed: 0.007445096969604492
ell 901, elapsed: 0.00045990943908691406
ell 900, elapsed: 0.0005481243133544922
ell 899, elapsed: 0.0003809928894042969
ell 898, elapsed: 0.0003809928894042969
ell 802, elapsed: 0.006125926971435547
ell 801, elapsed: 0.00047707557678222656
ell 800, elapsed: 0.0005400180816650391
ell 799, elapsed: 0.00037789344787597656
ell 798, elapsed: 0.00038909912109375
ell 702, elapsed: 0.006016969680786133
ell 701, elapsed: 0.0005590915679931641
ell 700, elapsed: 0.0005660057067871094
ell 699, elapsed: 0.0005478858947753906
ell 698, elapsed: 0.004417896270751953
ell 602, elapsed: 0.005553007125854492
ell 601, elapsed: 0.0005710124969482422
ell 600, elapsed: 0.0005841255187988281
ell 599, elapsed: 0.0005381107330322266
ell 598, elapsed: 0.0005578994750976562
ell 502, elapsed: 0.006206035614013672
ell 501, elapsed: 0.00078582763671875
ell 500, elapsed: 0.0005559921264648438
ell 499, elapsed: 0.0005459785461425781
ell 498, elapsed: 0.00055694580078125
ell 402, elapsed: 0.005713224411010742
ell 401, elapsed: 0.0005030632019042969
ell 400, elapsed: 0.000476837158203125
ell 399, elapsed: 0.00046706199645996094
ell 398, elapsed: 0.0006711483001708984
ell 302, elapsed: 0.006067991256713867
ell 301, elapsed: 0.0005438327789306641
ell 300, elapsed: 0.0004649162292480469
ell 299, elapsed: 0.00037288665771484375
ell 298, elapsed: 0.0005180835723876953
ell 202, elapsed: 0.00599980354309082
ell 201, elapsed: 0.0006618499755859375
ell 200, elapsed: 0.0005400180816650391
ell 199, elapsed: 0.0006411075592041016
ell 198, elapsed: 0.0005788803100585938
ell 152, elapsed: 0.002971172332763672
ell 151, elapsed: 0.0005390644073486328
ell 150, elapsed: 0.0005772113800048828
ell 149, elapsed: 0.000579833984375
ell 148, elapsed: 0.0005860328674316406
ell 127, elapsed: 0.0019450187683105469
ell 126, elapsed: 0.0006060600280761719
ell 125, elapsed: 0.0006058216094970703
ell 124, elapsed: 0.0008158683776855469
ell 123, elapsed: 0.0003809928894042969
ell 114, elapsed: 0.00090789794921875
ell 113, elapsed: 0.000370025634765625
ell 112, elapsed: 0.00037407875061035156
ell 111, elapsed: 0.0003750324249267578
ell 110, elapsed: 0.00037384033203125
ell 102, elapsed: 0.0009438991546630859
ell 101, elapsed: 0.0003719329833984375
ell 100, elapsed: 0.00047898292541503906
ell 99, elapsed: 0.0005860328674316406
ell 98, elapsed: 0.0005559921264648438
ell 97, elapsed: 0.0004558563232421875
ell 96, elapsed: 0.0006990432739257812
ell 95, elapsed: 0.0005030632019042969
ell 94, elapsed: 0.00044608116149902344
ell 93, elapsed: 0.0005648136138916016
ell 92, elapsed: 0.0005519390106201172
ell 91, elapsed: 0.0004470348358154297
ell 90, elapsed: 0.00045800209045410156
ell 89, elapsed: 0.0005359649658203125
ell 88, elapsed: 0.0005800724029541016
ell 87, elapsed: 0.0005338191986083984
ell 86, elapsed: 0.00044798851013183594
ell 85, elapsed: 0.0004448890686035156
ell 84, elapsed: 0.0004489421844482422
ell 83, elapsed: 0.0004470348358154297
ell 82, elapsed: 0.0005819797515869141
ell 81, elapsed: 0.0004978179931640625
ell 80, elapsed: 0.0005018711090087891
ell 79, elapsed: 0.00048804283142089844
ell 78, elapsed: 0.0004940032958984375
ell 77, elapsed: 0.0004801750183105469
ell 76, elapsed: 0.0006558895111083984
ell 75, elapsed: 0.000576019287109375
ell 74, elapsed: 0.00044608116149902344
ell 73, elapsed: 0.0004489421844482422
ell 72, elapsed: 0.0005908012390136719
ell 71, elapsed: 0.0005052089691162109
ell 70, elapsed: 0.00045609474182128906
ell 69, elapsed: 0.0005669593811035156
ell 68, elapsed: 0.0004930496215820312
ell 67, elapsed: 0.0006201267242431641
ell 66, elapsed: 0.0006508827209472656
ell 65, elapsed: 0.0007350444793701172
ell 64, elapsed: 0.0006709098815917969
ell 63, elapsed: 0.0005280971527099609
ell 62, elapsed: 0.0004417896270751953
ell 61, elapsed: 0.0005481243133544922
ell 60, elapsed: 0.0005781650543212891
ell 59, elapsed: 0.0004470348358154297
ell 58, elapsed: 0.0005719661712646484
ell 57, elapsed: 0.0006389617919921875
ell 56, elapsed: 0.0004410743713378906
ell 55, elapsed: 0.00043892860412597656
ell 54, elapsed: 0.0004470348358154297
ell 53, elapsed: 0.0004470348358154297
ell 52, elapsed: 0.0004429817199707031
ell 51, elapsed: 0.0004458427429199219
ell 50, elapsed: 0.0007081031799316406
ell 49, elapsed: 0.00047206878662109375
ell 48, elapsed: 0.00043511390686035156
ell 47, elapsed: 0.0004341602325439453
ell 46, elapsed: 0.0004420280456542969
ell 45, elapsed: 0.0004451274871826172
ell 44, elapsed: 0.00044989585876464844
ell 43, elapsed: 0.0004470348358154297
ell 42, elapsed: 0.0005450248718261719
ell 41, elapsed: 0.00045299530029296875
ell 40, elapsed: 0.0004448890686035156
ell 39, elapsed: 0.0004439353942871094
ell 38, elapsed: 0.0004470348358154297
ell 37, elapsed: 0.0004470348358154297
ell 36, elapsed: 0.00044918060302734375
ell 35, elapsed: 0.0004489421844482422
ell 34, elapsed: 0.00044798851013183594
ell 33, elapsed: 0.0004439353942871094
ell 32, elapsed: 0.00043582916259765625
ell 31, elapsed: 0.0004439353942871094
ell 30, elapsed: 0.0005309581756591797
ell 29, elapsed: 0.000698089599609375
ell 28, elapsed: 0.0005898475646972656
ell 27, elapsed: 0.00043892860412597656
ell 26, elapsed: 0.00044083595275878906
ell 25, elapsed: 0.00043511390686035156
ell 24, elapsed: 0.000431060791015625
ell 23, elapsed: 0.00043392181396484375
ell 22, elapsed: 0.000431060791015625
ell 21, elapsed: 0.00043201446533203125
ell 20, elapsed: 0.0005049705505371094
ell 19, elapsed: 0.00043702125549316406
ell 18, elapsed: 0.0004401206970214844
ell 17, elapsed: 0.00043487548828125
ell 16, elapsed: 0.0004379749298095703
ell 15, elapsed: 0.00043392181396484375
ell 14, elapsed: 0.0004329681396484375
ell 13, elapsed: 0.0004248619079589844
ell 12, elapsed: 0.0004189014434814453
ell 11, elapsed: 0.00043392181396484375
ell 10, elapsed: 0.0004248619079589844
ell 9, elapsed: 0.0004239082336425781
ell 8, elapsed: 0.00043201446533203125
ell 7, elapsed: 0.0004220008850097656
ell 6, elapsed: 0.00042700767517089844
ell 5, elapsed: 0.0004200935363769531
ell 4, elapsed: 0.000431060791015625
ell 3, elapsed: 0.0005259513854980469
ell 2, elapsed: 0.0004229545593261719
ell 1, elapsed: 0.0004210472106933594
ell 0, elapsed: 0.0004210472106933594
  0.173810 seconds (19.61 k allocations: 846.188 KiB)
elapsed: 0.0005040168762207031
step:          0.066865 sec (0 allocations: 0 byte, 0.0% gc time)
swapping:      0.000549 sec (0 allocations: 0 byte, 0.0% gc time)
calc_Mellell!: 0.001926 sec (0 allocations: 0 byte, 0.0% gc time)
  t0 :  0.000361 sec (0 allocations: 0 byte, 0.0% gc time)
  tm2 : 0.014722 sec (0 allocations: 0 byte, 0.0% gc time)
  tm2s: 0.000249 sec (0 allocations: 0 byte, 0.0% gc time)
  tm4 : 0.039297 sec (0 allocations: 0 byte, 0.0% gc time)
  tp2 : 0.0 sec (0 allocations: 0 byte, 0.0% gc time)
  tp2s: 0.0 sec (0 allocations: 0 byte, 0.0% gc time)
  tp4 : 0.0 sec (0 allocations: 0 byte, 0.0% gc time)
calc_wtdll!:   0.055407 sec (1.344 k allocations: 147.0 KB, 0.0% gc time)
calc_wljj!:    0.003673 sec (6 allocations: 96 byte, 0.0% gc time)
mult_prefac!:  0.0 sec (0 allocations: 0 byte, 0.0% gc time)
convert:       0.0 sec (0 allocations: 0 byte, 0.0% gc time)
write:         0.004573 sec (0 allocations: 0 byte, 0.0% gc time)
test_rand_2f1: 0.0 sec (0 allocations: 0 byte, 0.0% gc time)
Closing outfile out/Ml21-cache.bin...   0.000006 seconds
  0.000642 seconds (36 allocations: 27.953 KiB)
make_phi():   0.003116 seconds (8.18 k allocations: 237.844 KiB)
  0.025087 seconds (11.65 k allocations: 308.688 KiB)
tskip:       3.1e-5 sec (0 allocations: 0 byte, 0.0% gc time)
tread:       0.003372 sec (17 allocations: 2.125 KB, 0.0% gc time)
tmultphi:    0.00167 sec (0 allocations: 0 byte, 0.0% gc time)
tbrfft:      0.005539 sec (0 allocations: 0 byte, 0.0% gc time)
tmultprefac: 0.005663 sec (0 allocations: 0 byte, 0.0% gc time)
toutfunc:    0.008231 sec (10.304 k allocations: 196.0 KB, 0.0% gc time)
Testing R=0.9 ... passed
Calculating fmax: 
  dlrec    = 4
  dlrecRg1 = -4
  q=1.1, R=0.8:	  0.379426 seconds (103.25 k allocations: 14.856 MiB)

  0.379761 seconds (103.48 k allocations: 14.893 MiB)
ℓ = 1202
Δℓ = 4
ΔℓRg1 = -4
N = 1600
q = 1.1
kmin = 1.0e-5
kmax = 100000.00000000004
χ0 = 0.023029999999999995
RR = RR.tsv
ℓmax = ℓmax.bin
f21 = f21.bin
kmin = 1.0e-5
kmax = 100000.0
dlrec    = 4
dlrecRg1 = -4
Output size: 5741568 bytes = 0.005347251892089844 GiB
Output size: 51264 bytes = 4.774332046508789e-5 GiB
Reading 'out/F21EllCache'...   0.001171 seconds (197 allocations: 84.203 KiB)
ellmax: 1202
lmaxcache: 1202
fell[:,1,1] = ComplexF64[7.519068145690986e-120 - 1.8416405474382574e-135im, 7.541664537386155e-120 - 1.847175067190611e-135im]
ell 1202, elapsed: 2.7179718017578125e-5
ell 1201, elapsed: 0.0005590915679931641
ell 1200, elapsed: 0.0005881786346435547
ell 1199, elapsed: 0.0006020069122314453
ell 1198, elapsed: 0.00041484832763671875
ell 1002, elapsed: 0.011841058731079102
ell 1001, elapsed: 0.0004241466522216797
ell 1000, elapsed: 0.00040793418884277344
ell 999, elapsed: 0.0004088878631591797
ell 998, elapsed: 0.00040912628173828125
ell 902, elapsed: 0.006457090377807617
ell 901, elapsed: 0.00041413307189941406
ell 900, elapsed: 0.00041103363037109375
ell 899, elapsed: 0.00041103363037109375
ell 898, elapsed: 0.0004930496215820312
ell 802, elapsed: 0.0064008235931396484
ell 801, elapsed: 0.0004119873046875
ell 800, elapsed: 0.00040984153747558594
ell 799, elapsed: 0.00040912628173828125
ell 798, elapsed: 0.00041294097900390625
ell 702, elapsed: 0.0064640045166015625
ell 701, elapsed: 0.00045180320739746094
ell 700, elapsed: 0.00046181678771972656
ell 699, elapsed: 0.00041413307189941406
ell 698, elapsed: 0.0005960464477539062
ell 602, elapsed: 0.0055048465728759766
ell 601, elapsed: 0.00044608116149902344
ell 600, elapsed: 0.0004801750183105469
ell 599, elapsed: 0.00044798851013183594
ell 598, elapsed: 0.0004448890686035156
ell 502, elapsed: 0.006451845169067383
ell 501, elapsed: 0.0004458427429199219
ell 500, elapsed: 0.00044918060302734375
ell 499, elapsed: 0.0004439353942871094
ell 498, elapsed: 0.00044918060302734375
ell 402, elapsed: 0.006381988525390625
ell 401, elapsed: 0.000453948974609375
ell 400, elapsed: 0.0004439353942871094
ell 399, elapsed: 0.0004169940948486328
ell 398, elapsed: 0.0005729198455810547
ell 302, elapsed: 0.006101846694946289
ell 301, elapsed: 0.0004639625549316406
ell 300, elapsed: 0.0004489421844482422
ell 299, elapsed: 0.0004730224609375
ell 298, elapsed: 0.0004489421844482422
ell 202, elapsed: 0.006426811218261719
ell 201, elapsed: 0.0004489421844482422
ell 200, elapsed: 0.0004119873046875
ell 199, elapsed: 0.0004088878631591797
ell 198, elapsed: 0.0004138946533203125
ell 152, elapsed: 0.003258943557739258
ell 151, elapsed: 0.0003790855407714844
ell 150, elapsed: 0.0003800392150878906
ell 149, elapsed: 0.0003800392150878906
ell 148, elapsed: 0.00037598609924316406
ell 127, elapsed: 0.0016169548034667969
ell 126, elapsed: 0.0004189014434814453
ell 125, elapsed: 0.0004189014434814453
ell 124, elapsed: 0.0004100799560546875
ell 123, elapsed: 0.0004107952117919922
ell 114, elapsed: 0.0010080337524414062
ell 113, elapsed: 0.00041103363037109375
ell 112, elapsed: 0.00042510032653808594
ell 111, elapsed: 0.0004107952117919922
ell 110, elapsed: 0.0004119873046875
ell 102, elapsed: 0.0009191036224365234
ell 101, elapsed: 0.000408172607421875
ell 100, elapsed: 0.00040984153747558594
ell 99, elapsed: 0.00040793418884277344
ell 98, elapsed: 0.00040793418884277344
ell 97, elapsed: 0.0004949569702148438
ell 96, elapsed: 0.00047397613525390625
ell 95, elapsed: 0.00047397613525390625
ell 94, elapsed: 0.00047206878662109375
ell 93, elapsed: 0.0004780292510986328
ell 92, elapsed: 0.0004451274871826172
ell 91, elapsed: 0.0004470348358154297
ell 90, elapsed: 0.0004379749298095703
ell 89, elapsed: 0.0005829334259033203
ell 88, elapsed: 0.00047898292541503906
ell 87, elapsed: 0.0004601478576660156
ell 86, elapsed: 0.0004839897155761719
ell 85, elapsed: 0.0004749298095703125
ell 84, elapsed: 0.0004780292510986328
ell 83, elapsed: 0.00047779083251953125
ell 82, elapsed: 0.0005779266357421875
ell 81, elapsed: 0.0004780292510986328
ell 80, elapsed: 0.0005908012390136719
ell 79, elapsed: 0.0005440711975097656
ell 78, elapsed: 0.0005002021789550781
ell 77, elapsed: 0.000514984130859375
ell 76, elapsed: 0.0005218982696533203
ell 75, elapsed: 0.0006318092346191406
ell 74, elapsed: 0.0005140304565429688
ell 73, elapsed: 0.0005271434783935547
ell 72, elapsed: 0.0005202293395996094
ell 71, elapsed: 0.0005230903625488281
ell 70, elapsed: 0.0005178451538085938
ell 69, elapsed: 0.0005087852478027344
ell 68, elapsed: 0.0006740093231201172
ell 67, elapsed: 0.0005259513854980469
ell 66, elapsed: 0.0006389617919921875
ell 65, elapsed: 0.0005857944488525391
ell 64, elapsed: 0.0005240440368652344
ell 63, elapsed: 0.0005240440368652344
ell 62, elapsed: 0.0005788803100585938
ell 61, elapsed: 0.0005230903625488281
ell 60, elapsed: 0.0005240440368652344
ell 59, elapsed: 0.0005269050598144531
ell 58, elapsed: 0.000514984130859375
ell 57, elapsed: 0.0005202293395996094
ell 56, elapsed: 0.0005900859832763672
ell 55, elapsed: 0.0008330345153808594
ell 54, elapsed: 0.0005421638488769531
ell 53, elapsed: 0.0005249977111816406
ell 52, elapsed: 0.0004830360412597656
ell 51, elapsed: 0.0005910396575927734
ell 50, elapsed: 0.0005218982696533203
ell 49, elapsed: 0.00046896934509277344
ell 48, elapsed: 0.0004489421844482422
ell 47, elapsed: 0.0004458427429199219
ell 46, elapsed: 0.00044083595275878906
ell 45, elapsed: 0.0006029605865478516
ell 44, elapsed: 0.0006251335144042969
ell 43, elapsed: 0.0006120204925537109
[...]
ell 788, elapsed: 0.0008151531219482422
ell 782, elapsed: 0.001477956771850586
ell 781, elapsed: 0.0012891292572021484
ell 780, elapsed: 0.0008261203765869141
ell 779, elapsed: 0.0008199214935302734
ell 778, elapsed: 0.0008199214935302734
ell 772, elapsed: 0.001772165298461914
ell 771, elapsed: 0.0008220672607421875
ell 770, elapsed: 0.0008199214935302734
ell 769, elapsed: 0.0008170604705810547
ell 768, elapsed: 0.0011000633239746094
ell 762, elapsed: 0.0015289783477783203
ell 761, elapsed: 0.0008189678192138672
ell 760, elapsed: 0.001096963882446289
ell 759, elapsed: 0.0008280277252197266
ell 758, elapsed: 0.0008261203765869141
ell 752, elapsed: 0.0015060901641845703
ell 751, elapsed: 0.0009210109710693359
ell 750, elapsed: 0.0008141994476318359
ell 749, elapsed: 0.0008151531219482422
ell 748, elapsed: 0.0008161067962646484
ell 742, elapsed: 0.0016009807586669922
ell 741, elapsed: 0.0008218288421630859
ell 740, elapsed: 0.0008170604705810547
ell 739, elapsed: 0.0008139610290527344
ell 738, elapsed: 0.0009238719940185547
ell 732, elapsed: 0.0015010833740234375
ell 731, elapsed: 0.0008230209350585938
ell 730, elapsed: 0.0009138584136962891
ell 729, elapsed: 0.0008268356323242188
ell 728, elapsed: 0.0008189678192138672
ell 722, elapsed: 0.0014789104461669922
ell 721, elapsed: 0.0009188652038574219
ell 720, elapsed: 0.0008220672607421875
ell 719, elapsed: 0.000820159912109375
ell 718, elapsed: 0.0008170604705810547
ell 712, elapsed: 0.0015940666198730469
ell 711, elapsed: 0.0008211135864257812
ell 710, elapsed: 0.0008161067962646484
ell 709, elapsed: 0.001013040542602539
ell 708, elapsed: 0.0008971691131591797
ell 702, elapsed: 0.001497030258178711
ell 701, elapsed: 0.0008199214935302734
ell 700, elapsed: 0.0008168220520019531
ell 699, elapsed: 0.0007431507110595703
ell 698, elapsed: 0.0008318424224853516
ell 692, elapsed: 0.0015110969543457031
ell 691, elapsed: 0.0009009838104248047
ell 690, elapsed: 0.0009198188781738281
ell 689, elapsed: 0.000885009765625
ell 688, elapsed: 0.0010709762573242188
ell 682, elapsed: 0.001641988754272461
ell 681, elapsed: 0.0008249282836914062
ell 680, elapsed: 0.0008130073547363281
ell 679, elapsed: 0.0008890628814697266
ell 678, elapsed: 0.0011661052703857422
ell 672, elapsed: 0.0017600059509277344
ell 671, elapsed: 0.0008308887481689453
ell 670, elapsed: 0.0008921623229980469
ell 669, elapsed: 0.0008862018585205078
ell 668, elapsed: 0.0008230209350585938
ell 662, elapsed: 0.0016689300537109375
ell 661, elapsed: 0.000985860824584961
ell 660, elapsed: 0.0008168220520019531
ell 659, elapsed: 0.0008699893951416016
ell 658, elapsed: 0.0008218288421630859
ell 652, elapsed: 0.0018618106842041016
ell 651, elapsed: 0.0007739067077636719
ell 650, elapsed: 0.000820159912109375
ell 649, elapsed: 0.0009291172027587891
ell 648, elapsed: 0.0010879039764404297
ell 642, elapsed: 0.0017349720001220703
ell 641, elapsed: 0.0007669925689697266
ell 640, elapsed: 0.0008890628814697266
ell 639, elapsed: 0.0010750293731689453
ell 638, elapsed: 0.0007650852203369141
ell 632, elapsed: 0.001631021499633789
ell 631, elapsed: 0.0008211135864257812
ell 630, elapsed: 0.0008299350738525391
ell 629, elapsed: 0.0008130073547363281
ell 628, elapsed: 0.0008280277252197266
ell 622, elapsed: 0.0015268325805664062
ell 621, elapsed: 0.0008130073547363281
ell 620, elapsed: 0.000823974609375
ell 619, elapsed: 0.0009050369262695312
ell 618, elapsed: 0.0008189678192138672
ell 612, elapsed: 0.0015099048614501953
ell 611, elapsed: 0.0008389949798583984
ell 610, elapsed: 0.0009109973907470703
ell 609, elapsed: 0.0008480548858642578
ell 608, elapsed: 0.0008599758148193359
ell 602, elapsed: 0.0019941329956054688
ell 601, elapsed: 0.0008230209350585938
ell 600, elapsed: 0.0008749961853027344
ell 599, elapsed: 0.000823974609375
ell 598, elapsed: 0.0012249946594238281
ell 592, elapsed: 0.0015728473663330078
ell 591, elapsed: 0.0008220672607421875
ell 590, elapsed: 0.0011570453643798828
ell 589, elapsed: 0.0008549690246582031
ell 588, elapsed: 0.0008161067962646484
ell 582, elapsed: 0.0016930103302001953
ell 581, elapsed: 0.0010638236999511719
ell 580, elapsed: 0.0008318424224853516
ell 579, elapsed: 0.0008080005645751953
ell 578, elapsed: 0.0008308887481689453
ell 572, elapsed: 0.001332998275756836
ell 571, elapsed: 0.000827789306640625
ell 570, elapsed: 0.0008180141448974609
ell 569, elapsed: 0.0008089542388916016
ell 568, elapsed: 0.0008590221405029297
ell 562, elapsed: 0.00152587890625
ell 561, elapsed: 0.0008120536804199219
ell 560, elapsed: 0.0008189678192138672
ell 559, elapsed: 0.0008318424224853516
ell 558, elapsed: 0.0008161067962646484
ell 552, elapsed: 0.0015010833740234375
ell 551, elapsed: 0.0008349418640136719
ell 550, elapsed: 0.0010979175567626953
ell 549, elapsed: 0.0008130073547363281
ell 548, elapsed: 0.0011069774627685547
ell 542, elapsed: 0.0018019676208496094
ell 541, elapsed: 0.0007719993591308594
ell 540, elapsed: 0.0010771751403808594
ell 539, elapsed: 0.0008120536804199219
ell 538, elapsed: 0.0008518695831298828
ell 532, elapsed: 0.0015048980712890625
ell 531, elapsed: 0.0008339881896972656
ell 530, elapsed: 0.0008809566497802734
ell 529, elapsed: 0.0008449554443359375
ell 528, elapsed: 0.0008149147033691406
ell 522, elapsed: 0.0015099048614501953
ell 521, elapsed: 0.0008301734924316406
ell 520, elapsed: 0.0008139610290527344
ell 519, elapsed: 0.0008130073547363281
ell 518, elapsed: 0.0008180141448974609
ell 512, elapsed: 0.0015518665313720703
ell 511, elapsed: 0.0008208751678466797
ell 510, elapsed: 0.0008139610290527344
ell 509, elapsed: 0.0008261203765869141
ell 508, elapsed: 0.0010471343994140625
ell 502, elapsed: 0.0017688274383544922
ell 501, elapsed: 0.0010478496551513672
ell 500, elapsed: 0.0007781982421875
ell 499, elapsed: 0.0008230209350585938
ell 498, elapsed: 0.0008199214935302734
ell 492, elapsed: 0.0014989376068115234
ell 491, elapsed: 0.000843048095703125
ell 490, elapsed: 0.0008139610290527344
ell 489, elapsed: 0.0008170604705810547
ell 488, elapsed: 0.000820159912109375
ell 482, elapsed: 0.0017478466033935547
ell 481, elapsed: 0.0008299350738525391
ell 480, elapsed: 0.0010149478912353516
ell 479, elapsed: 0.0007951259613037109
ell 478, elapsed: 0.0008358955383300781
ell 472, elapsed: 0.0015048980712890625
ell 471, elapsed: 0.0008270740509033203
ell 470, elapsed: 0.0008211135864257812
ell 469, elapsed: 0.0008580684661865234
ell 468, elapsed: 0.0008189678192138672
ell 462, elapsed: 0.0015139579772949219
ell 461, elapsed: 0.0008480548858642578
ell 460, elapsed: 0.000843048095703125
ell 459, elapsed: 0.0008709430694580078
ell 458, elapsed: 0.0008709430694580078
ell 452, elapsed: 0.001714944839477539
ell 451, elapsed: 0.0008699893951416016
ell 450, elapsed: 0.0008678436279296875
ell 449, elapsed: 0.0008559226989746094
ell 448, elapsed: 0.0009019374847412109
ell 442, elapsed: 0.0016398429870605469
ell 441, elapsed: 0.0008549690246582031
ell 440, elapsed: 0.0008800029754638672
ell 439, elapsed: 0.0008530616760253906
ell 438, elapsed: 0.0008561611175537109
ell 432, elapsed: 0.0015990734100341797
ell 431, elapsed: 0.017007827758789062
ell 430, elapsed: 0.0008800029754638672
ell 429, elapsed: 0.0008308887481689453
ell 428, elapsed: 0.0008869171142578125
ell 422, elapsed: 0.001714944839477539
ell 421, elapsed: 0.0008640289306640625
ell 420, elapsed: 0.0008611679077148438
ell 419, elapsed: 0.0008490085601806641
ell 418, elapsed: 0.0008759498596191406
ell 412, elapsed: 0.0015840530395507812
ell 411, elapsed: 0.0008559226989746094
ell 410, elapsed: 0.0008738040924072266
ell 409, elapsed: 0.0008530616760253906
ell 408, elapsed: 0.0008549690246582031
ell 402, elapsed: 0.0016047954559326172
ell 401, elapsed: 0.0008969306945800781
ell 400, elapsed: 0.0008590221405029297
ell 399, elapsed: 0.0008509159088134766
ell 398, elapsed: 0.0008559226989746094
ell 392, elapsed: 0.010198116302490234
ell 391, elapsed: 0.0008308887481689453
ell 390, elapsed: 0.0008420944213867188
ell 389, elapsed: 0.0008900165557861328
ell 388, elapsed: 0.0008220672607421875
ell 382, elapsed: 0.0014870166778564453
ell 381, elapsed: 0.0008280277252197266
ell 380, elapsed: 0.002351045608520508
ell 379, elapsed: 0.0008440017700195312
ell 378, elapsed: 0.0008618831634521484
ell 372, elapsed: 0.0015850067138671875
ell 371, elapsed: 0.0008409023284912109
ell 370, elapsed: 0.0008349418640136719
ell 369, elapsed: 0.0049610137939453125
ell 368, elapsed: 0.0008611679077148438
ell 362, elapsed: 0.0015740394592285156
ell 361, elapsed: 0.0009009838104248047
ell 360, elapsed: 0.0008399486541748047
ell 359, elapsed: 0.0008308887481689453
ell 358, elapsed: 0.0008349418640136719
ell 352, elapsed: 0.0015959739685058594
ell 351, elapsed: 0.0008411407470703125
ell 350, elapsed: 0.0008339881896972656
ell 349, elapsed: 0.0008330345153808594
ell 348, elapsed: 0.0008389949798583984
ell 342, elapsed: 0.0016188621520996094
ell 341, elapsed: 0.0008449554443359375
ell 340, elapsed: 0.0008449554443359375
ell 339, elapsed: 0.0008590221405029297
ell 338, elapsed: 0.0008640289306640625
ell 332, elapsed: 0.0015919208526611328
ell 331, elapsed: 0.0008420944213867188
ell 330, elapsed: 0.0008831024169921875
ell 329, elapsed: 0.0008449554443359375
ell 328, elapsed: 0.0008330345153808594
ell 322, elapsed: 0.0016171932220458984
ell 321, elapsed: 0.000885009765625
ell 320, elapsed: 0.0007920265197753906
ell 319, elapsed: 0.0008640289306640625
ell 318, elapsed: 0.0008819103240966797
ell 312, elapsed: 0.001703023910522461
ell 311, elapsed: 0.0008399486541748047
ell 310, elapsed: 0.0008368492126464844
ell 309, elapsed: 0.0008502006530761719
ell 308, elapsed: 0.0008299350738525391
ell 302, elapsed: 0.0015549659729003906
ell 301, elapsed: 0.0008280277252197266
ell 300, elapsed: 0.0008509159088134766
ell 299, elapsed: 0.0008339881896972656
ell 298, elapsed: 0.0008380413055419922
ell 292, elapsed: 0.0015799999237060547
ell 291, elapsed: 0.0008308887481689453
ell 290, elapsed: 0.0008790493011474609
ell 289, elapsed: 0.0008330345153808594
ell 288, elapsed: 0.0008568763732910156
ell 282, elapsed: 0.0015749931335449219
ell 281, elapsed: 0.0008339881896972656
ell 280, elapsed: 0.0008358955383300781
ell 279, elapsed: 0.009026050567626953
ell 278, elapsed: 0.0008699893951416016
ell 272, elapsed: 0.0015919208526611328
ell 271, elapsed: 0.0009360313415527344
ell 270, elapsed: 0.0008339881896972656
ell 269, elapsed: 0.0009019374847412109
ell 268, elapsed: 0.0008327960968017578
ell 262, elapsed: 0.005680084228515625
ell 261, elapsed: 0.0007970333099365234
ell 260, elapsed: 0.0008230209350585938
ell 259, elapsed: 0.0008487701416015625
ell 258, elapsed: 0.0049479007720947266
ell 252, elapsed: 0.0017361640930175781
ell 251, elapsed: 0.0008590221405029297
ell 250, elapsed: 0.0008668899536132812
ell 249, elapsed: 0.0008449554443359375
ell 248, elapsed: 0.0008471012115478516
ell 242, elapsed: 0.0015749931335449219
ell 241, elapsed: 0.0011560916900634766
ell 240, elapsed: 0.0009191036224365234
ell 239, elapsed: 0.0008389949798583984
ell 238, elapsed: 0.0008399486541748047
ell 232, elapsed: 0.001703023910522461
ell 231, elapsed: 0.0008339881896972656
ell 230, elapsed: 0.0008330345153808594
ell 229, elapsed: 0.0008301734924316406
ell 228, elapsed: 0.0051419734954833984
ell 222, elapsed: 0.0015749931335449219
ell 221, elapsed: 0.0008709430694580078
ell 220, elapsed: 0.0009438991546630859
ell 219, elapsed: 0.0008339881896972656
ell 218, elapsed: 0.0008380413055419922
ell 212, elapsed: 0.0016551017761230469
ell 211, elapsed: 0.0008640289306640625
ell 210, elapsed: 0.0008289813995361328
ell 209, elapsed: 0.0008320808410644531
ell 208, elapsed: 0.0008380413055419922
ell 202, elapsed: 0.0016820430755615234
ell 201, elapsed: 0.0008358955383300781
ell 200, elapsed: 0.0008370876312255859
ell 199, elapsed: 0.0009348392486572266
ell 198, elapsed: 0.0008389949798583984
ell 192, elapsed: 0.001569986343383789
ell 191, elapsed: 0.0008361339569091797
ell 190, elapsed: 0.0009431838989257812
ell 189, elapsed: 0.0008370876312255859
ell 188, elapsed: 0.0008358955383300781
ell 182, elapsed: 0.001672983169555664
ell 181, elapsed: 0.000843048095703125
ell 180, elapsed: 0.0008339881896972656
ell 179, elapsed: 0.0008339881896972656
ell 178, elapsed: 0.0008330345153808594
ell 172, elapsed: 0.0016849040985107422
ell 171, elapsed: 0.0008420944213867188
ell 170, elapsed: 0.0008370876312255859
ell 169, elapsed: 0.0008540153503417969
ell 168, elapsed: 0.0008399486541748047
ell 162, elapsed: 0.0015959739685058594
ell 161, elapsed: 0.0008521080017089844
ell 160, elapsed: 0.0008771419525146484
ell 159, elapsed: 0.0008440017700195312
ell 158, elapsed: 0.0008471012115478516
ell 152, elapsed: 0.0015900135040283203
ell 151, elapsed: 0.0008330345153808594
ell 150, elapsed: 0.0008349418640136719
ell 149, elapsed: 0.0008251667022705078
ell 148, elapsed: 0.0008301734924316406
ell 142, elapsed: 0.0015799999237060547
ell 141, elapsed: 0.0008440017700195312
ell 140, elapsed: 0.0008449554443359375
ell 139, elapsed: 0.0008330345153808594
ell 138, elapsed: 0.0008411407470703125
ell 132, elapsed: 0.0015079975128173828
ell 131, elapsed: 0.0008411407470703125
ell 130, elapsed: 0.0008480548858642578
ell 129, elapsed: 0.0008270740509033203
ell 128, elapsed: 0.0008389949798583984
ell 122, elapsed: 0.0015530586242675781
ell 121, elapsed: 0.0008561611175537109
ell 120, elapsed: 0.0008342266082763672
ell 119, elapsed: 0.0008368492126464844
ell 118, elapsed: 0.0008420944213867188
ell 112, elapsed: 0.00162506103515625
ell 111, elapsed: 0.0008378028869628906
ell 110, elapsed: 0.0008339881896972656
ell 109, elapsed: 0.0008270740509033203
ell 108, elapsed: 0.0009069442749023438
ell 102, elapsed: 0.0015799999237060547
ell 101, elapsed: 0.003314971923828125
ell 100, elapsed: 0.0033011436462402344
ell 99, elapsed: 0.0033500194549560547
ell 98, elapsed: 0.0032949447631835938
ell 92, elapsed: 0.006067991256713867
ell 91, elapsed: 0.0032699108123779297
ell 90, elapsed: 0.003306865692138672
ell 89, elapsed: 0.003431081771850586
ell 88, elapsed: 0.01750802993774414
ell 82, elapsed: 0.006016969680786133
ell 81, elapsed: 0.003278017044067383
ell 80, elapsed: 0.0033681392669677734
ell 79, elapsed: 0.019407033920288086
ell 78, elapsed: 0.003316164016723633
ell 72, elapsed: 0.005988121032714844
ell 71, elapsed: 0.0033440589904785156
ell 70, elapsed: 0.003331899642944336
ell 69, elapsed: 0.0033609867095947266
ell 68, elapsed: 0.0033011436462402344
ell 62, elapsed: 0.0061588287353515625
ell 61, elapsed: 0.003347158432006836
ell 60, elapsed: 0.0033109188079833984
ell 59, elapsed: 0.0033190250396728516
ell 58, elapsed: 0.0033969879150390625
ell 52, elapsed: 0.006206989288330078
ell 51, elapsed: 0.0032930374145507812
ell 50, elapsed: 0.0033528804779052734
ell 49, elapsed: 0.00333404541015625
ell 48, elapsed: 0.003322124481201172
ell 42, elapsed: 0.00607609748840332
ell 41, elapsed: 0.003306865692138672
ell 40, elapsed: 0.0033919811248779297
ell 39, elapsed: 0.0033240318298339844
ell 38, elapsed: 0.0033130645751953125
ell 32, elapsed: 0.006006956100463867
ell 31, elapsed: 0.0033180713653564453
ell 30, elapsed: 0.007424116134643555
ell 29, elapsed: 0.003345966339111328
ell 28, elapsed: 0.0033240318298339844
ell 22, elapsed: 0.0060880184173583984
ell 21, elapsed: 0.0033049583435058594
ell 20, elapsed: 0.0033559799194335938
ell 19, elapsed: 0.003393888473510742
ell 18, elapsed: 0.0033159255981445312
ell 12, elapsed: 0.006042003631591797
ell 11, elapsed: 0.003278970718383789
ell 10, elapsed: 0.003317117691040039
ell 9, elapsed: 0.0033121109008789062
ell 8, elapsed: 0.0034749507904052734
  0.874955 seconds (97.17 k allocations: 12.613 MiB)
elapsed: 0.004562854766845703
step:          0.062549 sec (0 allocations: 0 byte, 0.0% gc time)
swapping:      0.000664 sec (0 allocations: 0 byte, 0.0% gc time)
calc_Mellell!: 0.043559 sec (0 allocations: 0 byte, 0.0% gc time)
  t0 :  0.010348 sec (0 allocations: 0 byte, 0.0% gc time)
  tm2 : 0.099604 sec (0 allocations: 0 byte, 0.0% gc time)
  tm2s: 0.008464 sec (0 allocations: 0 byte, 0.0% gc time)
  tm4 : 0.206636 sec (0 allocations: 0 byte, 0.0% gc time)
  tp2 : 0.0 sec (0 allocations: 0 byte, 0.0% gc time)
  tp2s: 0.0 sec (0 allocations: 0 byte, 0.0% gc time)
  tp4 : 0.0 sec (0 allocations: 0 byte, 0.0% gc time)
calc_wtdll!:   0.628848 sec (48.6 k allocations: 11.096 MB, 0.0% gc time)
calc_wljj!:    0.043787 sec (69 allocations: 1.078 KB, 0.0% gc time)
mult_prefac!:  0.0 sec (0 allocations: 0 byte, 0.0% gc time)
convert:       0.0 sec (0 allocations: 0 byte, 0.0% gc time)
write:         0.035363 sec (0 allocations: 0 byte, 0.0% gc time)
test_rand_2f1: 0.0 sec (0 allocations: 0 byte, 0.0% gc time)
Closing outfile out/MlCache/MlCache.bin...   0.000006 seconds
xi, l=0, nu=0:   0.408418 seconds (602.47 k allocations: 32.902 MiB, 5.05% gc time)
xi, l=0, nu=-2:  0.002288 seconds (114 allocations: 148.969 KiB)
Created 'out/xi.tsv'.
  q=1.1, R=0.6:	  0.766146 seconds (264.52 k allocations: 38.099 MiB, 1.91% gc time)
  q=1.1, R=0.7:	  0.898391 seconds (276.46 k allocations: 40.114 MiB)
  q=1.1, R=0.8:	  0.994032 seconds (271.68 k allocations: 39.302 MiB, 1.07% gc time)
  q=1.1, R=0.9:	  1.081332 seconds (266.62 k allocations: 38.459 MiB, 0.74% gc time)
  q=1.1, R=0.998:	 21.445117 seconds (114.96 k allocations: 7.588 MiB)
  q=1.1, R=1.0:	  0.004133 seconds (8.20 k allocations: 704.344 KiB)

ℓ = 1000
Δℓ = 4
ΔℓRg1 = -4
N = 4096
q = 1.1
kmin = 1.0e-5
kmax = 1000.0
χ0 = 0.001
RR = RR.tsv
ℓmax = ℓmax.bin
f21 = f21.bin
kmin = 1.0e-5
kmax = 1000.0
dlrec    = 4
dlrecRg1 = -4
Output size: 1573632 bytes = 0.0014655590057373047 GiB
Output size: 786816 bytes = 0.0007327795028686523 GiB
Reading 'out/F21EllCache'...   0.001654 seconds (198 allocations: 533.078 KiB)
ellmax: 1002
lmaxcache: 1000
fell[:,1,1] = ComplexF64[1.7262928128202118e-224 - 4.2281979352226944e-240im, 1.7282693092099662e-224 - 4.233038955177176e-240im]
ell 1002, elapsed: 0.00015592575073242188
ell 1001, elapsed: 0.0009319782257080078
ell 1000, elapsed: 0.0009508132934570312
ell 999, elapsed: 0.0064280033111572266
ell 998, elapsed: 0.00615692138671875
ell 44, elapsed: 0.6909489631652832
ell 43, elapsed: 0.0063550472259521484
ell 42, elapsed: 0.006865978240966797
ell 41, elapsed: 0.0057849884033203125
ell 40, elapsed: 0.005775928497314453
  0.739787 seconds (5.07 k allocations: 329.609 KiB)
elapsed: 0.007122039794921875
step:          0.688014 sec (0 allocations: 0 byte, 0.0% gc time)
swapping:      0.000489 sec (0 allocations: 0 byte, 0.0% gc time)
calc_Mellell!: 0.001438 sec (0 allocations: 0 byte, 0.0% gc time)
  t0 :  0.000689 sec (0 allocations: 0 byte, 0.0% gc time)
  tm2 : 0.010618 sec (0 allocations: 0 byte, 0.0% gc time)
  tm2s: 0.000522 sec (0 allocations: 0 byte, 0.0% gc time)
  tm4 : 0.029402 sec (0 allocations: 0 byte, 0.0% gc time)
  tp2 : 0.0 sec (0 allocations: 0 byte, 0.0% gc time)
  tp2s: 0.0 sec (0 allocations: 0 byte, 0.0% gc time)
  tp4 : 0.0 sec (0 allocations: 0 byte, 0.0% gc time)
calc_wtdll!:   0.041424 sec (480 allocations: 52.5 KB, 0.0% gc time)
calc_wljj!:    0.001663 sec (1 allocations: 16 byte, 0.0% gc time)
mult_prefac!:  0.0 sec (0 allocations: 0 byte, 0.0% gc time)
convert:       0.0 sec (0 allocations: 0 byte, 0.0% gc time)
write:         0.000929 sec (0 allocations: 0 byte, 0.0% gc time)
test_rand_2f1: 0.0 sec (0 allocations: 0 byte, 0.0% gc time)
Closing outfile out/MlCache/MlCache.bin...   0.000008 seconds
  0.552411 seconds (38 allocations: 66.859 KiB)
make_phi():   0.009953 seconds (65 allocations: 275.984 KiB)
  0.040872 seconds (11.44 k allocations: 728.585 KiB)
tskip:       1.0e-6 sec (0 allocations: 0 byte, 0.0% gc time)
tread:       0.000965 sec (17 allocations: 1.266 KB, 0.0% gc time)
tmultphi:    0.000358 sec (0 allocations: 0 byte, 0.0% gc time)
tbrfft:      0.002178 sec (0 allocations: 0 byte, 0.0% gc time)
tmultprefac: 0.001049 sec (0 allocations: 0 byte, 0.0% gc time)
toutfunc:    0.000144 sec (0 allocations: 0 byte, 0.0% gc time)
Created 'out/wl42_jj00.tsv'.
Created 'out/wl42_jj02.tsv'.
    Testing TwoFAST tests passed 
