Julia Version 1.4.0-DEV.662
Commit ce498d65f8 (2019-12-25 11:44 UTC)
Platform Info:
  OS: Linux (x86_64-pc-linux-gnu)
  CPU: Intel(R) Xeon(R) Silver 4114 CPU @ 2.20GHz
  WORD_SIZE: 64
  LIBM: libopenlibm
  LLVM: libLLVM-8.0.1 (ORCJIT, skylake)
Environment:
  JULIA_DEPOT_PATH = ::/usr/local/share/julia

 Resolving package versions...
 Installed Reexport ───────── v0.2.0
 Installed IncGammaBeta ───── v0.1.0
 Installed MKL_jll ────────── v2019.0.117+0
 Installed AbstractFFTs ───── v0.5.0
 Installed FFTW ───────────── v1.2.0
 Installed SpecialFunctions ─ v0.8.0
 Installed BinaryProvider ─── v0.5.8
 Installed FFTW_jll ───────── v3.3.9+3
 Installed URIParser ──────── v0.4.0
 Installed IntelOpenMP_jll ── v2018.0.3+0
 Installed BinDeps ────────── v1.0.0
 Installed Nemo ───────────── v0.15.1
 Installed TwoFAST ────────── v0.1.0
 Installed AbstractAlgebra ── v0.7.1
  Updating `~/.julia/environments/v1.4/Project.toml`
  [0dd23c3e] + TwoFAST v0.1.0
  Updating `~/.julia/environments/v1.4/Manifest.toml`
  [c3fe647b] + AbstractAlgebra v0.7.1
  [621f4979] + AbstractFFTs v0.5.0
  [9e28174c] + BinDeps v1.0.0
  [b99e7846] + BinaryProvider v0.5.8
  [7a1cc6ca] + FFTW v1.2.0
  [f5851436] + FFTW_jll v3.3.9+3
  [5087d2c0] + IncGammaBeta v0.1.0
  [1d5cc7b8] + IntelOpenMP_jll v2018.0.3+0
  [856f044c] + MKL_jll v2019.0.117+0
  [2edaba10] + Nemo v0.15.1
  [189a3867] + Reexport v0.2.0
  [276daf66] + SpecialFunctions v0.8.0
  [0dd23c3e] + TwoFAST v0.1.0
  [30578b45] + URIParser v0.4.0
  [2a0f44e3] + Base64 
  [ade2ca70] + Dates 
  [8bb1440f] + DelimitedFiles 
  [8ba89e20] + Distributed 
  [b77e0a4c] + InteractiveUtils 
  [76f85450] + LibGit2 
  [8f399da3] + Libdl 
  [37e2e46d] + LinearAlgebra 
  [56ddb016] + Logging 
  [d6f4376e] + Markdown 
  [a63ad114] + Mmap 
  [44cfe95a] + Pkg 
  [de0858da] + Printf 
  [3fa0cd96] + REPL 
  [9a3f8284] + Random 
  [ea8e919c] + SHA 
  [9e88b42a] + Serialization 
  [6462fe0b] + Sockets 
  [2f01184e] + SparseArrays 
  [8dfed614] + Test 
  [cf7118a7] + UUIDs 
  [4ec0a83e] + Unicode 
  Building FFTW ────────────→ `~/.julia/packages/FFTW/qqcBj/deps/build.log`
  Updating `/tmp/jl_2CFJ1Q/Project.toml`
 [no changes]
  Updating `/tmp/jl_2CFJ1Q/Manifest.toml`
 [no changes]
  Building SpecialFunctions → `~/.julia/packages/SpecialFunctions/ne2iw/deps/build.log`
  Updating `/tmp/jl_HCfa64/Project.toml`
 [no changes]
  Updating `/tmp/jl_HCfa64/Manifest.toml`
 [no changes]
  Building Nemo ────────────→ `~/.julia/packages/Nemo/qzx0m/deps/build.log`
  Updating `/tmp/jl_ahGtKO/Project.toml`
 [no changes]
  Updating `/tmp/jl_ahGtKO/Manifest.toml`
 [no changes]
   Testing TwoFAST
 Installed Dierckx ─ v0.4.1
  Updating `/tmp/jl_7IKgwa/Project.toml`
  [39dd38d3] + Dierckx v0.4.1
  Updating `/tmp/jl_7IKgwa/Manifest.toml`
  [39dd38d3] + Dierckx v0.4.1
  Building Dierckx → `~/.julia/packages/Dierckx/9SY4A/deps/build.log`
  Updating `/tmp/jl_94pTPU/Project.toml`
 [no changes]
  Updating `/tmp/jl_94pTPU/Manifest.toml`
 [no changes]
Running sandbox
Status `/tmp/jl_7IKgwa/Project.toml`
  [39dd38d3] Dierckx v0.4.1
  [7a1cc6ca] FFTW v1.2.0
  [5087d2c0] IncGammaBeta v0.1.0
  [2edaba10] Nemo v0.15.1
  [276daf66] SpecialFunctions v0.8.0
  [0dd23c3e] TwoFAST v0.1.0
  [8bb1440f] DelimitedFiles 
  [37e2e46d] LinearAlgebra 
  [56ddb016] Logging 
  [8dfed614] Test 

Welcome to Nemo version 0.15.1

Nemo comes with absolutely no warranty whatsoever


Welcome to Nemo version 0.15.1

Nemo comes with absolutely no warranty whatsoever

Testing ξ(r), ℓ=0, ν=-1 ... passed
Testing ξ(r), ℓ=0, ν=0 ... passed
Testing ξ(r), ℓ=0, ν=1 ... passed
Testing ξ(r), ℓ=0, ν=2 ... passed
Testing ξ(r), ℓ=0, ν=3 ... passed
Testing ξ(r), ℓ=1, ν=0 ... passed
Testing ξ(r), ℓ=1, ν=1 ... passed
Testing ξ(r), ℓ=1, ν=2 ... passed
Testing ξ(r), ℓ=1, ν=3 ... passed
Testing ξ(r), ℓ=2, ν=-1 ... passed
Testing ξ(r), ℓ=2, ν=0 ... passed
Testing ξ(r), ℓ=2, ν=1 ... passed
Testing ξ(r), ℓ=2, ν=2 ... passed
Testing ξ(r), ℓ=2, ν=3 ... passed
Testing ξ(r), ℓ=3, ν=-1 ... passed
Testing ξ(r), ℓ=3, ν=0 ... passed
Testing ξ(r), ℓ=3, ν=1 ... passed
Testing ξ(r), ℓ=3, ν=2 ... passed
Testing ξ(r), ℓ=3, ν=3 ... passed
Testing ξ(r), ℓ=4, ν=-1 ... passed
Testing ξ(r), ℓ=4, ν=0 ... passed
Testing ξ(r), ℓ=4, ν=1 ... passed
Testing ξ(r), ℓ=4, ν=2 ... passed
Testing ξ(r), ℓ=4, ν=3 ... passed
Testing ξ(r) ... passed
Testing ξ′(r) ... passed
Testing ξ″(r) ... passed
Calculating fmax: 
  dlrec    = 4
  dlrecRg1 = -4
  q=1.1, R=1.1:	  4.671371 seconds (1.20 M allocations: 67.954 MiB, 2.01% gc time)

  4.712556 seconds (1.22 M allocations: 69.064 MiB, 1.99% gc time)
ℓ = 1202
Δℓ = 4
ΔℓRg1 = -4
N = 1600
q = 1.1
kmin = 1.0e-5
kmax = 100000.00000000004
χ0 = 0.023029999999999995
RR = RR.tsv
ℓmax = ℓmax.bin
f21 = f21.bin
kmin = 1.0e-5
kmax = 100000.0
dlrec    = 4
dlrecRg1 = -4
Output size: 5741568 bytes = 0.005347251892089844 GiB
Output size: 51264 bytes = 4.774332046508789e-5 GiB
Reading 'out/F21EllCache'...   0.607984 seconds (318.67 k allocations: 16.380 MiB, 11.12% gc time)
ellmax: 1202
lmaxcache: 1202
fell[:,1,1] = Complex{Float64}[3.9583795592771634e-52 - 9.695233714158177e-68im, 3.990121772925759e-52 - 9.772979714843386e-68im]
ell 1202, elapsed: 9.703636169433594e-5
ell 1201, elapsed: 2.0739798545837402
ell 1200, elapsed: 0.0005359649658203125
ell 1199, elapsed: 0.0004949569702148438
ell 1198, elapsed: 0.0004930496215820312
ell 1002, elapsed: 0.009413003921508789
ell 1001, elapsed: 0.0005171298980712891
ell 1000, elapsed: 0.0004918575286865234
ell 999, elapsed: 0.0004839897155761719
ell 998, elapsed: 0.0005061626434326172
ell 902, elapsed: 0.004858970642089844
ell 901, elapsed: 0.0005199909210205078
ell 900, elapsed: 0.0004811286926269531
ell 899, elapsed: 0.0005259513854980469
ell 898, elapsed: 0.0005240440368652344
ell 802, elapsed: 0.005094051361083984
ell 801, elapsed: 0.0005030632019042969
ell 800, elapsed: 0.0004830360412597656
ell 799, elapsed: 0.0004870891571044922
ell 798, elapsed: 0.0005428791046142578
ell 702, elapsed: 0.004950046539306641
ell 701, elapsed: 0.0005118846893310547
ell 700, elapsed: 0.0004961490631103516
ell 699, elapsed: 0.00048613548278808594
ell 698, elapsed: 0.0004811286926269531
ell 602, elapsed: 0.005328178405761719
ell 601, elapsed: 0.0004940032958984375
ell 600, elapsed: 0.00047898292541503906
ell 599, elapsed: 0.00047707557678222656
ell 598, elapsed: 0.0005390644073486328
ell 502, elapsed: 0.005198001861572266
ell 501, elapsed: 0.0004909038543701172
ell 500, elapsed: 0.0004830360412597656
ell 499, elapsed: 0.0004899501800537109
ell 498, elapsed: 0.0004749298095703125
ell 402, elapsed: 0.005084037780761719
ell 401, elapsed: 0.0006530284881591797
ell 400, elapsed: 0.0006501674652099609
ell 399, elapsed: 0.0005209445953369141
ell 398, elapsed: 0.0005440711975097656
ell 302, elapsed: 0.0049190521240234375
ell 301, elapsed: 0.0005581378936767578
ell 300, elapsed: 0.0005128383636474609
ell 299, elapsed: 0.0005180835723876953
ell 298, elapsed: 0.0005178451538085938
ell 202, elapsed: 0.004997968673706055
ell 201, elapsed: 0.0004968643188476562
ell 200, elapsed: 0.0004818439483642578
ell 199, elapsed: 0.0005080699920654297
ell 198, elapsed: 0.0005209445953369141
ell 152, elapsed: 0.002580881118774414
ell 151, elapsed: 0.0005099773406982422
ell 150, elapsed: 0.0005178451538085938
ell 149, elapsed: 0.0005521774291992188
ell 148, elapsed: 0.0005238056182861328
ell 127, elapsed: 0.0015349388122558594
ell 126, elapsed: 0.00048089027404785156
ell 125, elapsed: 0.0004839897155761719
ell 124, elapsed: 0.000476837158203125
ell 123, elapsed: 0.0005040168762207031
ell 114, elapsed: 0.0009639263153076172
ell 113, elapsed: 0.0005080699920654297
ell 112, elapsed: 0.0004940032958984375
ell 111, elapsed: 0.0004811286926269531
ell 110, elapsed: 0.00047707557678222656
ell 102, elapsed: 0.0009567737579345703
ell 101, elapsed: 0.0005319118499755859
ell 100, elapsed: 0.0005421638488769531
ell 99, elapsed: 0.00047898292541503906
ell 98, elapsed: 0.0004792213439941406
ell 97, elapsed: 0.0005431175231933594
ell 96, elapsed: 0.00061798095703125
ell 95, elapsed: 0.0005528926849365234
ell 94, elapsed: 0.0006759166717529297
ell 93, elapsed: 0.0005121231079101562
ell 92, elapsed: 0.0006020069122314453
ell 91, elapsed: 0.0005199909210205078
ell 90, elapsed: 0.0005998611450195312
ell 89, elapsed: 0.0005259513854980469
ell 88, elapsed: 0.0006060600280761719
ell 87, elapsed: 0.000537872314453125
ell 86, elapsed: 0.0006699562072753906
ell 85, elapsed: 0.0005109310150146484
ell 84, elapsed: 0.0006101131439208984
ell 83, elapsed: 0.0005140304565429688
ell 82, elapsed: 0.0006201267242431641
ell 81, elapsed: 0.0005140304565429688
ell 80, elapsed: 0.0006029605865478516
ell 79, elapsed: 0.0005161762237548828
ell 78, elapsed: 0.0006170272827148438
ell 77, elapsed: 0.0005190372467041016
ell 76, elapsed: 0.0006000995635986328
ell 75, elapsed: 0.0005168914794921875
ell 74, elapsed: 0.0006098747253417969
ell 73, elapsed: 0.0005259513854980469
ell 72, elapsed: 0.0005979537963867188
ell 71, elapsed: 0.0005259513854980469
ell 70, elapsed: 0.0006101131439208984
ell 69, elapsed: 0.0005638599395751953
ell 68, elapsed: 0.0006058216094970703
ell 67, elapsed: 0.0005130767822265625
ell 66, elapsed: 0.0005948543548583984
ell 65, elapsed: 0.00051116943359375
ell 64, elapsed: 0.0006048679351806641
ell 63, elapsed: 0.0005159378051757812
ell 62, elapsed: 0.0006229877471923828
ell 61, elapsed: 0.0005140304565429688
ell 60, elapsed: 0.0006031990051269531
ell 59, elapsed: 0.0005109310150146484
ell 58, elapsed: 0.0005939006805419922
ell 57, elapsed: 0.0005068778991699219
ell 56, elapsed: 0.000598907470703125
ell 55, elapsed: 0.0015101432800292969
ell 54, elapsed: 0.0005991458892822266
ell 53, elapsed: 0.0005140304565429688
ell 52, elapsed: 0.0005960464477539062
ell 51, elapsed: 0.000514984130859375
ell 50, elapsed: 0.0006148815155029297
ell 49, elapsed: 0.0005168914794921875
ell 48, elapsed: 0.0006020069122314453
ell 47, elapsed: 0.0005090236663818359
ell 46, elapsed: 0.0005970001220703125
ell 45, elapsed: 0.0005130767822265625
ell 44, elapsed: 0.0005929470062255859
ell 43, elapsed: 0.0005321502685546875
ell 42, elapsed: 0.0005941390991210938
ell 41, elapsed: 0.0005140304565429688
ell 40, elapsed: 0.0005970001220703125
ell 39, elapsed: 0.000514984130859375
ell 38, elapsed: 0.0005998611450195312
ell 37, elapsed: 0.0005948543548583984
ell 36, elapsed: 0.0005960464477539062
ell 35, elapsed: 0.0005140304565429688
ell 34, elapsed: 0.0005939006805419922
ell 33, elapsed: 0.0005121231079101562
ell 32, elapsed: 0.0005929470062255859
ell 31, elapsed: 0.0005178451538085938
ell 30, elapsed: 0.0006880760192871094
ell 29, elapsed: 0.0005271434783935547
ell 28, elapsed: 0.0006031990051269531
ell 27, elapsed: 0.0005118846893310547
ell 26, elapsed: 0.0006108283996582031
ell 25, elapsed: 0.0005340576171875
ell 24, elapsed: 0.0007419586181640625
ell 23, elapsed: 0.0005159378051757812
ell 22, elapsed: 0.0005950927734375
ell 21, elapsed: 0.0005159378051757812
ell 20, elapsed: 0.0006020069122314453
ell 19, elapsed: 0.0005159378051757812
ell 18, elapsed: 0.0005950927734375
ell 17, elapsed: 0.0005538463592529297
ell 16, elapsed: 0.0005958080291748047
ell 15, elapsed: 0.0005199909210205078
ell 14, elapsed: 0.0006000995635986328
ell 13, elapsed: 0.0005180835723876953
ell 12, elapsed: 0.0006048679351806641
ell 11, elapsed: 0.0005140304565429688
ell 10, elapsed: 0.0006170272827148438
ell 9, elapsed: 0.0005109310150146484
ell 8, elapsed: 0.0005981922149658203
ell 7, elapsed: 0.0005168914794921875
ell 6, elapsed: 0.0005958080291748047
ell 5, elapsed: 0.0005199909210205078
ell 4, elapsed: 0.0006158351898193359
ell 3, elapsed: 0.0005130767822265625
ell 2, elapsed: 0.000598907470703125
ell 1, elapsed: 0.0005140304565429688
ell 0, elapsed: 0.0006020069122314453
  2.902075 seconds (1.75 M allocations: 85.479 MiB)
elapsed: 0.0009660720825195312
step:          0.793041 sec (402.561 k allocations: 20.278 MB, 0.0% gc time)
swapping:      0.000566 sec (0 allocations: 0 byte, 0.0% gc time)
calc_Mellell!: 0.41539 sec (296.402 k allocations: 14.96 MB, 0.0% gc time)
  t0 :  0.0 sec (0 allocations: 0 byte, 0.0% gc time)
  tm2 : 0.0 sec (0 allocations: 0 byte, 0.0% gc time)
  tm2s: 0.0 sec (0 allocations: 0 byte, 0.0% gc time)
  tm4 : 0.0 sec (0 allocations: 0 byte, 0.0% gc time)
  tp2 : 0.0 sec (0 allocations: 0 byte, 0.0% gc time)
  tp2s: 0.0 sec (0 allocations: 0 byte, 0.0% gc time)
  tp4 : 0.0 sec (0 allocations: 0 byte, 0.0% gc time)
calc_wtdll!:   0.989395 sec (525.859 k allocations: 26.376 MB, 0.0% gc time)
calc_wljj!:    0.003331 sec (6 allocations: 96 byte, 0.0% gc time)
mult_prefac!:  0.0 sec (0 allocations: 0 byte, 0.0% gc time)
convert:       0.0 sec (0 allocations: 0 byte, 0.0% gc time)
write:         0.005317 sec (0 allocations: 0 byte, 0.0% gc time)
test_rand_2f1: 0.0 sec (0 allocations: 0 byte, 0.0% gc time)
Closing outfile out/Ml21-cache.bin...   0.000396 seconds
  1.025691 seconds (8.66 k allocations: 420.969 KiB)
make_phi():   0.013002 seconds (8.20 k allocations: 238.016 KiB)
  0.213029 seconds (121.69 k allocations: 5.902 MiB)
tskip:       2.4e-5 sec (0 allocations: 0 byte, 0.0% gc time)
tread:       0.002444 sec (19 allocations: 2.172 KB, 0.0% gc time)
tmultphi:    0.040122 sec (26.022 k allocations: 1.338 MB, 0.0% gc time)
tbrfft:      0.004212 sec (896 allocations: 42.0 KB, 0.0% gc time)
tmultprefac: 0.003417 sec (0 allocations: 0 byte, 0.0% gc time)
toutfunc:    0.162738 sec (94.105 k allocations: 4.451 MB, 0.0% gc time)
Testing R=1.1 ... passed
Calculating fmax: 
  dlrec    = 4
  dlrecRg1 = -4
  q=1.1, R=1.0:	  0.001535 seconds (4.00 k allocations: 300.375 KiB)

  0.001693 seconds (4.04 k allocations: 334.734 KiB)
ℓ = 1202
Δℓ = 4
ΔℓRg1 = -4
N = 1600
q = 1.1
kmin = 1.0e-5
kmax = 100000.00000000004
χ0 = 0.023029999999999995
RR = RR.tsv
ℓmax = ℓmax.bin
f21 = f21.bin
kmin = 1.0e-5
kmax = 100000.0
dlrec    = 4
dlrecRg1 = -4
Output size: 61465536 bytes = 0.05724424123764038 GiB
Output size: 51264 bytes = 4.774332046508789e-5 GiB
Reading 'out/F21EllCache'...   0.001059 seconds (267 allocations: 84.656 KiB)
ellmax: 1202
lmaxcache: 1202
fell[:,1,1] = Complex{Float64}[809.6031528389767 - 1.9829558194077161e-13im, 0.0 + 0.0im]
ell 1202, elapsed: 2.3126602172851562e-5
ell 1201, elapsed: 0.013242006301879883
ell 1200, elapsed: 0.0003509521484375
ell 1199, elapsed: 0.00034880638122558594
ell 1198, elapsed: 0.0004940032958984375
ell 1197, elapsed: 0.0005159378051757812
ell 1196, elapsed: 0.00040602684020996094
ell 1195, elapsed: 0.00047087669372558594
ell 1194, elapsed: 0.0003838539123535156
ell 1193, elapsed: 0.0005130767822265625
ell 1192, elapsed: 0.0005891323089599609
ell 1191, elapsed: 0.0004658699035644531
ell 1190, elapsed: 0.0003840923309326172
ell 1189, elapsed: 0.00045490264892578125
ell 1188, elapsed: 0.00039505958557128906
ell 1187, elapsed: 0.0006639957427978516
ell 1186, elapsed: 0.00044798851013183594
ell 1185, elapsed: 0.00045108795166015625
ell 1184, elapsed: 0.0003840923309326172
ell 1183, elapsed: 0.00045299530029296875
ell 1182, elapsed: 0.00047206878662109375
ell 1181, elapsed: 0.00061798095703125
ell 1180, elapsed: 0.0004031658172607422
ell 1179, elapsed: 0.000453948974609375
ell 1178, elapsed: 0.00038313865661621094
ell 1177, elapsed: 0.000453948974609375
ell 1176, elapsed: 0.00038695335388183594
ell 1175, elapsed: 0.0004551410675048828
ell 1174, elapsed: 0.0003829002380371094
ell 1173, elapsed: 0.00045490264892578125
ell 1172, elapsed: 0.0003848075866699219
ell 1171, elapsed: 0.0006160736083984375
ell 1170, elapsed: 0.0005059242248535156
ell 1169, elapsed: 0.00045490264892578125
ell 1168, elapsed: 0.0003829002380371094
ell 1167, elapsed: 0.00045490264892578125
ell 1166, elapsed: 0.0004088878631591797
ell 1165, elapsed: 0.0006670951843261719
ell 1164, elapsed: 0.00039005279541015625
ell 1163, elapsed: 0.0004639625549316406
ell 1162, elapsed: 0.0003840923309326172
ell 1161, elapsed: 0.00045013427734375
ell 1160, elapsed: 0.0005519390106201172
ell 1159, elapsed: 0.0005581378936767578
ell 1158, elapsed: 0.0003838539123535156
ell 1157, elapsed: 0.0004601478576660156
ell 1156, elapsed: 0.0003840923309326172
ell 1155, elapsed: 0.0004868507385253906
ell 1154, elapsed: 0.0003859996795654297
ell 1153, elapsed: 0.000453948974609375
ell 1152, elapsed: 0.0003819465637207031
ell 1151, elapsed: 0.00045180320739746094
ell 1150, elapsed: 0.0003838539123535156
ell 1149, elapsed: 0.0006670951843261719
ell 1148, elapsed: 0.0004391670227050781
ell 1147, elapsed: 0.00046896934509277344
ell 1146, elapsed: 0.00038909912109375
ell 1145, elapsed: 0.0004570484161376953
ell 1144, elapsed: 0.0004849433898925781
ell 1143, elapsed: 0.0006458759307861328
ell 1142, elapsed: 0.0003840923309326172
ell 1141, elapsed: 0.0004508495330810547
ell 1140, elapsed: 0.0003840923309326172
ell 1139, elapsed: 0.0004849433898925781
ell 1138, elapsed: 0.00038504600524902344
ell 1137, elapsed: 0.000453948974609375
ell 1136, elapsed: 0.00038504600524902344
ell 1135, elapsed: 0.00045013427734375
ell 1134, elapsed: 0.0003838539123535156
ell 1133, elapsed: 0.0006067752838134766
ell 1132, elapsed: 0.0004940032958984375
ell 1131, elapsed: 0.00044798851013183594
ell 1130, elapsed: 0.0003941059112548828
ell 1129, elapsed: 0.00045013427734375
ell 1128, elapsed: 0.0004138946533203125
ell 1127, elapsed: 0.0006730556488037109
ell 1126, elapsed: 0.0003972053527832031
ell 1125, elapsed: 0.0004489421844482422
ell 1124, elapsed: 0.00038313865661621094
ell 1123, elapsed: 0.0004520416259765625
ell 1122, elapsed: 0.0005700588226318359
ell 1121, elapsed: 0.0005500316619873047
ell 1120, elapsed: 0.0003819465637207031
ell 1119, elapsed: 0.0004508495330810547
ell 1118, elapsed: 0.0003840923309326172
ell 1117, elapsed: 0.00045990943908691406
ell 1116, elapsed: 0.00038313865661621094
ell 1115, elapsed: 0.0004508495330810547
ell 1114, elapsed: 0.0004138946533203125
ell 1113, elapsed: 0.0004508495330810547
ell 1112, elapsed: 0.0003840923309326172
ell 1111, elapsed: 0.0006620883941650391
ell 1110, elapsed: 0.00043201446533203125
ell 1109, elapsed: 0.00045299530029296875
ell 1108, elapsed: 0.0003819465637207031
ell 1107, elapsed: 0.0004520416259765625
ell 1106, elapsed: 0.0004811286926269531
ell 1105, elapsed: 0.0006330013275146484
ell 1104, elapsed: 0.0003848075866699219
ell 1103, elapsed: 0.00045299530029296875
ell 1102, elapsed: 0.0003840923309326172
ell 1101, elapsed: 0.00047397613525390625
ell 1100, elapsed: 0.0006110668182373047
ell 1099, elapsed: 0.0004591941833496094
ell 1098, elapsed: 0.0004119873046875
ell 1097, elapsed: 0.0004558563232421875
ell 1096, elapsed: 0.00038313865661621094
ell 1095, elapsed: 0.0006010532379150391
ell 1094, elapsed: 0.0004980564117431641
ell 1093, elapsed: 0.0004508495330810547
ell 1092, elapsed: 0.0003838539123535156
ell 1091, elapsed: 0.00045609474182128906
ell 1090, elapsed: 0.0004088878631591797
ell 1089, elapsed: 0.0006711483001708984
ell 1088, elapsed: 0.00038886070251464844
ell 1087, elapsed: 0.0004489421844482422
ell 1086, elapsed: 0.03173685073852539
ell 1085, elapsed: 0.0005519390106201172
ell 1084, elapsed: 0.0004830360412597656
ell 1083, elapsed: 0.0006399154663085938
ell 1082, elapsed: 0.00038313865661621094
ell 1081, elapsed: 0.0004649162292480469
ell 1080, elapsed: 0.00038313865661621094
ell 1079, elapsed: 0.00045299530029296875
ell 1078, elapsed: 0.00038814544677734375
ell 1077, elapsed: 0.00045108795166015625
ell 1076, elapsed: 0.0003819465637207031
ell 1075, elapsed: 0.0004470348358154297
ell 1074, elapsed: 0.00038313865661621094
ell 1073, elapsed: 0.0006010532379150391
ell 1072, elapsed: 0.0005040168762207031
ell 1071, elapsed: 0.00045680999755859375
ell 1070, elapsed: 0.0003838539123535156
ell 1069, elapsed: 0.0004467964172363281
ell 1068, elapsed: 0.0004131793975830078
ell 1067, elapsed: 0.0006589889526367188
ell 1066, elapsed: 0.0003910064697265625
ell 1065, elapsed: 0.00044918060302734375
ell 1064, elapsed: 0.00043702125549316406
ell 1063, elapsed: 0.00045299530029296875
ell 1062, elapsed: 0.0005810260772705078
ell 1061, elapsed: 0.0005259513854980469
ell 1060, elapsed: 0.0003821849822998047
ell 1059, elapsed: 0.0004448890686035156
ell 1058, elapsed: 0.0003829002380371094
ell 1057, elapsed: 0.0005240440368652344
ell 1056, elapsed: 0.0005619525909423828
ell 1055, elapsed: 0.0004508495330810547
ell 1054, elapsed: 0.0003838539123535156
ell 1053, elapsed: 0.00044989585876464844
ell 1052, elapsed: 0.0003819465637207031
ell 1051, elapsed: 0.0006639957427978516
ell 1050, elapsed: 0.0004248619079589844
ell 1049, elapsed: 0.0004439353942871094
ell 1048, elapsed: 0.000392913818359375
ell 1047, elapsed: 0.00044918060302734375
ell 1046, elapsed: 0.0004839897155761719
ell 1045, elapsed: 0.0006229877471923828
ell 1044, elapsed: 0.0003819465637207031
ell 1043, elapsed: 0.00044918060302734375
ell 1042, elapsed: 0.0003819465637207031
ell 1041, elapsed: 0.00045108795166015625
ell 1040, elapsed: 0.00039196014404296875
ell 1039, elapsed: 0.0004620552062988281
ell 1038, elapsed: 0.0003838539123535156
ell 1037, elapsed: 0.00044798851013183594
ell 1036, elapsed: 0.0003840923309326172
ell 1035, elapsed: 0.0005850791931152344
ell 1034, elapsed: 0.0005168914794921875
ell 1033, elapsed: 0.00045108795166015625
ell 1032, elapsed: 0.0003859996795654297
ell 1031, elapsed: 0.0004639625549316406
ell 1030, elapsed: 0.00038695335388183594
ell 1029, elapsed: 0.0004489421844482422
ell 1028, elapsed: 0.00038313865661621094
ell 1027, elapsed: 0.00045418739318847656
ell 1026, elapsed: 0.0003829002380371094
ell 1025, elapsed: 0.00044798851013183594
ell 1024, elapsed: 0.0005440711975097656
ell 1023, elapsed: 0.0005850791931152344
ell 1022, elapsed: 0.00038504600524902344
ell 1021, elapsed: 0.0004520416259765625
ell 1020, elapsed: 0.00038886070251464844
ell 1019, elapsed: 0.00045990943908691406
ell 1018, elapsed: 0.0003871917724609375
ell 1017, elapsed: 0.0004589557647705078
ell 1016, elapsed: 0.0003840923309326172
ell 1015, elapsed: 0.00045299530029296875
ell 1014, elapsed: 0.0003960132598876953
ell 1013, elapsed: 0.0006618499755859375
ell 1012, elapsed: 0.0004429817199707031
ell 1011, elapsed: 0.0004589557647705078
ell 1010, elapsed: 0.0003859996795654297
ell 1009, elapsed: 0.00045299530029296875
ell 1008, elapsed: 0.00047516822814941406
ell 1007, elapsed: 0.0006351470947265625
ell 1006, elapsed: 0.00039505958557128906
ell 1005, elapsed: 0.00045299530029296875
ell 1004, elapsed: 0.00038313865661621094
ell 1003, elapsed: 0.00044989585876464844
ell 1002, elapsed: 0.0006058216094970703
ell 1001, elapsed: 0.0004830360412597656
ell 1000, elapsed: 0.00038313865661621094
ell 999, elapsed: 0.0004489421844482422
ell 998, elapsed: 0.00039696693420410156
ell 997, elapsed: 0.0005729198455810547
ell 996, elapsed: 0.0005249977111816406
ell 995, elapsed: 0.00045013427734375
ell 994, elapsed: 0.00038695335388183594
ell 993, elapsed: 0.00045108795166015625
ell 992, elapsed: 0.0003840923309326172
ell 991, elapsed: 0.0006890296936035156
ell 990, elapsed: 0.00040411949157714844
ell 989, elapsed: 0.0004489421844482422
ell 988, elapsed: 0.0003829002380371094
ell 987, elapsed: 0.00044417381286621094
ell 986, elapsed: 0.0005118846893310547
ell 985, elapsed: 0.0006108283996582031
ell 984, elapsed: 0.0003879070281982422
ell 983, elapsed: 0.00044798851013183594
ell 982, elapsed: 0.00039696693420410156
ell 981, elapsed: 0.0004949569702148438
ell 980, elapsed: 0.0005991458892822266
ell 979, elapsed: 0.0004630088806152344
ell 978, elapsed: 0.0003819465637207031
ell 977, elapsed: 0.0004489421844482422
ell 976, elapsed: 0.0003829002380371094
ell 975, elapsed: 0.0006229877471923828
ell 974, elapsed: 0.0004951953887939453
ell 973, elapsed: 0.0004508495330810547
ell 972, elapsed: 0.0003840923309326172
ell 971, elapsed: 0.00044989585876464844
ell 970, elapsed: 0.0004291534423828125
ell 969, elapsed: 0.0006630420684814453
ell 968, elapsed: 0.0003879070281982422
ell 967, elapsed: 0.0004489421844482422
ell 966, elapsed: 0.00040602684020996094
ell 965, elapsed: 0.0004520416259765625
ell 964, elapsed: 0.0005831718444824219
ell 963, elapsed: 0.0005269050598144531
ell 962, elapsed: 0.0003840923309326172
ell 961, elapsed: 0.0004520416259765625
ell 960, elapsed: 0.0003829002380371094
ell 959, elapsed: 0.0004611015319824219
ell 958, elapsed: 0.0003840923309326172
ell 957, elapsed: 0.0004661083221435547
ell 956, elapsed: 0.0003829002380371094
ell 955, elapsed: 0.00044918060302734375
ell 954, elapsed: 0.0003840923309326172
ell 953, elapsed: 0.0006868839263916016
ell 952, elapsed: 0.0004119873046875
ell 951, elapsed: 0.00044989585876464844
ell 950, elapsed: 0.0003838539123535156
ell 949, elapsed: 0.0004639625549316406
ell 948, elapsed: 0.0005040168762207031
ell 947, elapsed: 0.0006029605865478516
ell 946, elapsed: 0.0003829002380371094
ell 945, elapsed: 0.00044608116149902344
ell 944, elapsed: 0.0003819465637207031
ell 943, elapsed: 0.00045299530029296875
ell 942, elapsed: 0.0003840923309326172
ell 941, elapsed: 0.0004658699035644531
ell 940, elapsed: 0.00038504600524902344
ell 939, elapsed: 0.00044989585876464844
ell 938, elapsed: 0.0003840923309326172
ell 937, elapsed: 0.000598907470703125
ell 936, elapsed: 0.0004990100860595703
ell 935, elapsed: 0.0004451274871826172
ell 934, elapsed: 0.0003840923309326172
ell 933, elapsed: 0.00044989585876464844
ell 932, elapsed: 0.00039505958557128906
ell 931, elapsed: 0.0006680488586425781
ell 930, elapsed: 0.00039505958557128906
ell 929, elapsed: 0.00044798851013183594
ell 928, elapsed: 0.0003910064697265625
ell 927, elapsed: 0.00045108795166015625
ell 926, elapsed: 0.000553131103515625
ell 925, elapsed: 0.0005960464477539062
ell 924, elapsed: 0.00038695335388183594
ell 923, elapsed: 0.000453948974609375
ell 922, elapsed: 0.0003859996795654297
ell 921, elapsed: 0.0005340576171875
ell 920, elapsed: 0.0005540847778320312
ell 919, elapsed: 0.00045490264892578125
ell 918, elapsed: 0.0003859996795654297
ell 917, elapsed: 0.0004508495330810547
ell 916, elapsed: 0.0003991127014160156
ell 915, elapsed: 0.0006859302520751953
ell 914, elapsed: 0.0004100799560546875
ell 913, elapsed: 0.00045490264892578125
ell 912, elapsed: 0.00038695335388183594
ell 911, elapsed: 0.0004532337188720703
ell 910, elapsed: 0.0005009174346923828
ell 909, elapsed: 0.0006289482116699219
ell 908, elapsed: 0.00038504600524902344
ell 907, elapsed: 0.00045490264892578125
ell 906, elapsed: 0.00038504600524902344
ell 905, elapsed: 0.0004911422729492188
ell 904, elapsed: 0.0006108283996582031
ell 903, elapsed: 0.0004668235778808594
ell 902, elapsed: 0.0003871917724609375
ell 901, elapsed: 0.0004558563232421875
ell 900, elapsed: 0.0003981590270996094
ell 899, elapsed: 0.0006418228149414062
ell 898, elapsed: 0.0004761219024658203
ell 897, elapsed: 0.000453948974609375
ell 896, elapsed: 0.0003840923309326172
ell 895, elapsed: 0.0004520416259765625
ell 894, elapsed: 0.0004439353942871094
ell 893, elapsed: 0.0006518363952636719
ell 892, elapsed: 0.00039696693420410156
ell 891, elapsed: 0.00045013427734375
ell 890, elapsed: 0.0003819465637207031
ell 889, elapsed: 0.00044798851013183594
ell 888, elapsed: 0.0005750656127929688
ell 887, elapsed: 0.000514984130859375
ell 886, elapsed: 0.00038313865661621094
ell 885, elapsed: 0.0004489421844482422
ell 884, elapsed: 0.0003991127014160156
ell 883, elapsed: 0.0005440711975097656
ell 882, elapsed: 0.0005440711975097656
ell 881, elapsed: 0.00045299530029296875
ell 880, elapsed: 0.0003840923309326172
ell 879, elapsed: 0.0004470348358154297
ell 878, elapsed: 0.0003829002380371094
ell 877, elapsed: 0.0006809234619140625
ell 876, elapsed: 0.0004000663757324219
ell 875, elapsed: 0.0004608631134033203
ell 874, elapsed: 0.0003941059112548828
ell 873, elapsed: 0.0004451274871826172
ell 872, elapsed: 0.0004999637603759766
ell 871, elapsed: 0.0006060600280761719
ell 870, elapsed: 0.0003788471221923828
ell 869, elapsed: 0.00044608116149902344
ell 868, elapsed: 0.0004839897155761719
ell 867, elapsed: 0.0005099773406982422
ell 866, elapsed: 0.0005941390991210938
ell 865, elapsed: 0.00045299530029296875
ell 864, elapsed: 0.0003829002380371094
ell 863, elapsed: 0.00045108795166015625
ell 862, elapsed: 0.0003859996795654297
ell 861, elapsed: 0.0006520748138427734
ell 860, elapsed: 0.0004591941833496094
ell 859, elapsed: 0.00045418739318847656
ell 858, elapsed: 0.0003840923309326172
ell 857, elapsed: 0.0004508495330810547
ell 856, elapsed: 0.0004551410675048828
ell 855, elapsed: 0.0006239414215087891
ell 854, elapsed: 0.00038886070251464844
ell 853, elapsed: 0.00045299530029296875
ell 852, elapsed: 0.000392913818359375
ell 851, elapsed: 0.0004520416259765625
ell 850, elapsed: 0.0006060600280761719
ell 849, elapsed: 0.0005009174346923828
ell 848, elapsed: 0.0003829002380371094
ell 847, elapsed: 0.00045299530029296875
ell 846, elapsed: 0.00038313865661621094
ell 845, elapsed: 0.0005710124969482422
ell 844, elapsed: 0.0005400180816650391
ell 843, elapsed: 0.0004558563232421875
ell 842, elapsed: 0.00038909912109375
ell 841, elapsed: 0.0004489421844482422
ell 840, elapsed: 0.00038313865661621094
ell 839, elapsed: 0.0007119178771972656
ell 838, elapsed: 0.00038695335388183594
ell 837, elapsed: 0.0004520416259765625
ell 836, elapsed: 0.0004870891571044922
ell 835, elapsed: 0.0004630088806152344
ell 834, elapsed: 0.0005908012390136719
ell 833, elapsed: 0.0005331039428710938
ell 832, elapsed: 0.0003840923309326172
ell 831, elapsed: 0.00045490264892578125
ell 830, elapsed: 0.0003829002380371094
ell 829, elapsed: 0.00055694580078125
ell 828, elapsed: 0.0005269050598144531
ell 827, elapsed: 0.000453948974609375
ell 826, elapsed: 0.0003840923309326172
ell 825, elapsed: 0.00045108795166015625
ell 824, elapsed: 0.0003840923309326172
ell 823, elapsed: 0.0006978511810302734
ell 822, elapsed: 0.0003960132598876953
ell 821, elapsed: 0.00044989585876464844
ell 820, elapsed: 0.00038504600524902344
ell 819, elapsed: 0.0004551410675048828
ell 818, elapsed: 0.000514984130859375
ell 817, elapsed: 0.0006000995635986328
ell 816, elapsed: 0.0003819465637207031
ell 815, elapsed: 0.00045299530029296875
ell 814, elapsed: 0.0003840923309326172
ell 813, elapsed: 0.0004858970642089844
ell 812, elapsed: 0.0006158351898193359
ell 811, elapsed: 0.00046896934509277344
ell 810, elapsed: 0.0003838539123535156
ell 809, elapsed: 0.00045299530029296875
ell 808, elapsed: 0.0003838539123535156
ell 807, elapsed: 0.0006358623504638672
ell 806, elapsed: 0.0004699230194091797
ell 805, elapsed: 0.0005049705505371094
ell 804, elapsed: 0.00038909912109375
ell 803, elapsed: 0.000457763671875
ell 802, elapsed: 0.00048089027404785156
ell 801, elapsed: 0.0006458759307861328
ell 800, elapsed: 0.00038695335388183594
ell 799, elapsed: 0.00045490264892578125
ell 798, elapsed: 0.0003859996795654297
ell 797, elapsed: 0.0004620552062988281
ell 796, elapsed: 0.0003991127014160156
ell 795, elapsed: 0.00045990943908691406
ell 794, elapsed: 0.0003829002380371094
ell 793, elapsed: 0.00045299530029296875
ell 792, elapsed: 0.0003840923309326172
ell 791, elapsed: 0.0006158351898193359
ell 790, elapsed: 0.0004909038543701172
ell 789, elapsed: 0.00045990943908691406
ell 788, elapsed: 0.0004000663757324219
ell 787, elapsed: 0.00045299530029296875
ell 786, elapsed: 0.0004239082336425781
ell 785, elapsed: 0.0006561279296875
ell 784, elapsed: 0.0003879070281982422
ell 783, elapsed: 0.000453948974609375
ell 782, elapsed: 0.0003829002380371094
ell 781, elapsed: 0.0004620552062988281
ell 780, elapsed: 0.0005881786346435547
ell 779, elapsed: 0.0005288124084472656
ell 778, elapsed: 0.0003819465637207031
ell 777, elapsed: 0.00044989585876464844
ell 776, elapsed: 0.00037980079650878906
ell 775, elapsed: 0.0004520416259765625
ell 774, elapsed: 0.0003821849822998047
ell 773, elapsed: 0.0004508495330810547
ell 772, elapsed: 0.00038313865661621094
ell 771, elapsed: 0.000476837158203125
ell 770, elapsed: 0.00038504600524902344
ell 769, elapsed: 0.0006620883941650391
ell 768, elapsed: 0.00043511390686035156
ell 767, elapsed: 0.00044989585876464844
ell 766, elapsed: 0.0003800392150878906
ell 765, elapsed: 0.0004470348358154297
ell 764, elapsed: 0.00046896934509277344
ell 763, elapsed: 0.0006291866302490234
ell 762, elapsed: 0.00038909912109375
ell 761, elapsed: 0.00044798851013183594
ell 760, elapsed: 0.0003821849822998047
ell 759, elapsed: 0.0004470348358154297
ell 758, elapsed: 0.0006010532379150391
ell 757, elapsed: 0.0004849433898925781
ell 756, elapsed: 0.00038313865661621094
ell 755, elapsed: 0.00045990943908691406
ell 754, elapsed: 0.0003800392150878906
ell 753, elapsed: 0.0005741119384765625
ell 752, elapsed: 0.0005228519439697266
ell 751, elapsed: 0.0004520416259765625
ell 750, elapsed: 0.0003809928894042969
ell 749, elapsed: 0.00045108795166015625
ell 748, elapsed: 0.0003819465637207031
ell 747, elapsed: 0.0007200241088867188
ell 746, elapsed: 0.00038886070251464844
ell 745, elapsed: 0.0004551410675048828
ell 744, elapsed: 0.0003829002380371094
ell 743, elapsed: 0.000453948974609375
ell 742, elapsed: 0.0005230903625488281
ell 741, elapsed: 0.0006058216094970703
ell 740, elapsed: 0.0003829002380371094
ell 739, elapsed: 0.0004749298095703125
ell 738, elapsed: 0.0003840923309326172
ell 737, elapsed: 0.000492095947265625
ell 736, elapsed: 0.0005919933319091797
ell 735, elapsed: 0.00047278404235839844
ell 734, elapsed: 0.0003840923309326172
ell 733, elapsed: 0.00045299530029296875
ell 732, elapsed: 0.0003879070281982422
ell 731, elapsed: 0.0006608963012695312
ell 730, elapsed: 0.00045990943908691406
ell 729, elapsed: 0.000453948974609375
ell 728, elapsed: 0.0003840923309326172
ell 727, elapsed: 0.00045609474182128906
ell 726, elapsed: 0.0004520416259765625
ell 725, elapsed: 0.0006389617919921875
ell 724, elapsed: 0.00038695335388183594
ell 723, elapsed: 0.0004680156707763672
ell 722, elapsed: 0.0003859996795654297
ell 721, elapsed: 0.000453948974609375
ell 720, elapsed: 0.0006070137023925781
ell 719, elapsed: 0.0004858970642089844
ell 718, elapsed: 0.0003840923309326172
ell 717, elapsed: 0.00045108795166015625
ell 716, elapsed: 0.0003829002380371094
ell 715, elapsed: 0.0005929470062255859
ell 714, elapsed: 0.0005290508270263672
ell 713, elapsed: 0.0004520416259765625
ell 712, elapsed: 0.0003859996795654297
ell 711, elapsed: 0.00045108795166015625
ell 710, elapsed: 0.0003809928894042969
ell 709, elapsed: 0.000698089599609375
ell 708, elapsed: 0.00039005279541015625
ell 707, elapsed: 0.0004661083221435547
ell 706, elapsed: 0.0003840923309326172
ell 705, elapsed: 0.0004489421844482422
ell 704, elapsed: 0.0005199909210205078
ell 703, elapsed: 0.0005869865417480469
ell 702, elapsed: 0.0003819465637207031
ell 701, elapsed: 0.00044989585876464844
ell 700, elapsed: 0.0003838539123535156
ell 699, elapsed: 0.0005109310150146484
ell 698, elapsed: 0.0006010532379150391
ell 697, elapsed: 0.0004620552062988281
ell 696, elapsed: 0.00038504600524902344
ell 695, elapsed: 0.00045013427734375
ell 694, elapsed: 0.0003829002380371094
ell 693, elapsed: 0.0006251335144042969
ell 692, elapsed: 0.00047397613525390625
ell 691, elapsed: 0.0004630088806152344
ell 690, elapsed: 0.0003821849822998047
ell 689, elapsed: 0.0004458427429199219
ell 688, elapsed: 0.00041413307189941406
ell 687, elapsed: 0.0006611347198486328
ell 686, elapsed: 0.0003838539123535156
ell 685, elapsed: 0.00045108795166015625
ell 684, elapsed: 0.00038313865661621094
ell 683, elapsed: 0.0004639625549316406
ell 682, elapsed: 0.0005691051483154297
ell 681, elapsed: 0.0005440711975097656
ell 680, elapsed: 0.0003840923309326172
ell 679, elapsed: 0.0004520416259765625
ell 678, elapsed: 0.0003859996795654297
ell 677, elapsed: 0.0005300045013427734
ell 676, elapsed: 0.0005609989166259766
ell 675, elapsed: 0.0004649162292480469
ell 674, elapsed: 0.0003829002380371094
ell 673, elapsed: 0.0004520416259765625
ell 672, elapsed: 0.00038313865661621094
ell 671, elapsed: 0.0006721019744873047
ell 670, elapsed: 0.0004341602325439453
ell 669, elapsed: 0.0004611015319824219
ell 668, elapsed: 0.0003840923309326172
ell 667, elapsed: 0.00046896934509277344
ell 666, elapsed: 0.0005021095275878906
ell 665, elapsed: 0.0006170272827148438
ell 664, elapsed: 0.00038695335388183594
ell 663, elapsed: 0.0004558563232421875
ell 662, elapsed: 0.00038695335388183594
ell 661, elapsed: 0.0004978179931640625
ell 660, elapsed: 0.0006079673767089844
ell 659, elapsed: 0.0004818439483642578
ell 658, elapsed: 0.0003859996795654297
ell 657, elapsed: 0.0004551410675048828
ell 656, elapsed: 0.0003840923309326172
ell 655, elapsed: 0.0006339550018310547
ell 654, elapsed: 0.00045990943908691406
ell 653, elapsed: 0.00045299530029296875
ell 652, elapsed: 0.0003859996795654297
ell 651, elapsed: 0.00048613548278808594
ell 650, elapsed: 0.0004630088806152344
ell 649, elapsed: 0.0006470680236816406
ell 648, elapsed: 0.00038504600524902344
ell 647, elapsed: 0.0004608631134033203
ell 646, elapsed: 0.00038695335388183594
ell 645, elapsed: 0.000453948974609375
ell 644, elapsed: 0.0006020069122314453
ell 643, elapsed: 0.0005090236663818359
ell 642, elapsed: 0.0003910064697265625
ell 641, elapsed: 0.0004551410675048828
ell 640, elapsed: 0.00038504600524902344
ell 639, elapsed: 0.0006070137023925781
ell 638, elapsed: 0.0005190372467041016
ell 637, elapsed: 0.0004630088806152344
ell 636, elapsed: 0.00038695335388183594
ell 635, elapsed: 0.0004699230194091797
ell 634, elapsed: 0.0004291534423828125
ell 633, elapsed: 0.0006589889526367188
ell 632, elapsed: 0.0003981590270996094
ell 631, elapsed: 0.0004630088806152344
ell 630, elapsed: 0.00039005279541015625
ell 629, elapsed: 0.0004620552062988281
ell 628, elapsed: 0.0006029605865478516
ell 627, elapsed: 0.0005171298980712891
ell 626, elapsed: 0.0003859996795654297
ell 625, elapsed: 0.00044989585876464844
ell 624, elapsed: 0.0003910064697265625
ell 623, elapsed: 0.00055694580078125
ell 622, elapsed: 0.000537872314453125
ell 621, elapsed: 0.00045299530029296875
ell 620, elapsed: 0.00038504600524902344
ell 619, elapsed: 0.00046706199645996094
ell 618, elapsed: 0.00038504600524902344
ell 617, elapsed: 0.0007219314575195312
ell 616, elapsed: 0.00038909912109375
ell 615, elapsed: 0.0004570484161376953
ell 614, elapsed: 0.0003819465637207031
ell 613, elapsed: 0.00045013427734375
ell 612, elapsed: 0.0005099773406982422
ell 611, elapsed: 0.000614166259765625
ell 610, elapsed: 0.0003879070281982422
ell 609, elapsed: 0.0004570484161376953
ell 608, elapsed: 0.0003840923309326172
ell 607, elapsed: 0.0005049705505371094
ell 606, elapsed: 0.0006120204925537109
ell 605, elapsed: 0.00047397613525390625
ell 604, elapsed: 0.00039005279541015625
ell 603, elapsed: 0.0004661083221435547
ell 602, elapsed: 0.0003910064697265625
ell 601, elapsed: 0.0006439685821533203
ell 600, elapsed: 0.0004742145538330078
ell 599, elapsed: 0.00045800209045410156
ell 598, elapsed: 0.00038886070251464844
ell 597, elapsed: 0.00046515464782714844
ell 596, elapsed: 0.0004749298095703125
ell 595, elapsed: 0.0006530284881591797
ell 594, elapsed: 0.00039696693420410156
ell 593, elapsed: 0.00044798851013183594
ell 592, elapsed: 0.0003859996795654297
ell 591, elapsed: 0.00045680999755859375
ell 590, elapsed: 0.00039196014404296875
ell 589, elapsed: 0.00045800209045410156
ell 588, elapsed: 0.00038695335388183594
ell 587, elapsed: 0.0004649162292480469
ell 586, elapsed: 0.00038504600524902344
ell 585, elapsed: 0.0005998611450195312
ell 584, elapsed: 0.0005121231079101562
ell 583, elapsed: 0.000453948974609375
ell 582, elapsed: 0.00038504600524902344
ell 581, elapsed: 0.0004489421844482422
ell 580, elapsed: 0.00038695335388183594
ell 579, elapsed: 0.0004608631134033203
ell 578, elapsed: 0.00038695335388183594
ell 577, elapsed: 0.00045609474182128906
ell 576, elapsed: 0.0003838539123535156
ell 575, elapsed: 0.00044918060302734375
ell 574, elapsed: 0.0005369186401367188
ell 573, elapsed: 0.0005731582641601562
ell 572, elapsed: 0.0003829002380371094
ell 571, elapsed: 0.00044989585876464844
ell 570, elapsed: 0.0004019737243652344
ell 569, elapsed: 0.0005030632019042969
ell 568, elapsed: 0.0005838871002197266
ell 567, elapsed: 0.0004608631134033203
ell 566, elapsed: 0.0003838539123535156
ell 565, elapsed: 0.00045800209045410156
ell 564, elapsed: 0.0003848075866699219
ell 563, elapsed: 0.0006530284881591797
ell 562, elapsed: 0.0004668235778808594
ell 561, elapsed: 0.0004508495330810547
ell 560, elapsed: 0.0003838539123535156
ell 559, elapsed: 0.00045013427734375
ell 558, elapsed: 0.000453948974609375
ell 557, elapsed: 0.0006208419799804688
ell 556, elapsed: 0.0003910064697265625
ell 555, elapsed: 0.00045299530029296875
ell 554, elapsed: 0.0003960132598876953
ell 553, elapsed: 0.0004520416259765625
ell 552, elapsed: 0.0005998611450195312
ell 551, elapsed: 0.0004971027374267578
ell 550, elapsed: 0.0003829002380371094
ell 549, elapsed: 0.0004467964172363281
ell 548, elapsed: 0.0003821849822998047
ell 547, elapsed: 0.0005600452423095703
ell 546, elapsed: 0.0005700588226318359
ell 545, elapsed: 0.0004558563232421875
ell 544, elapsed: 0.0003838539123535156
ell 543, elapsed: 0.00045990943908691406
ell 542, elapsed: 0.00039005279541015625
ell 541, elapsed: 0.0004611015319824219
ell 540, elapsed: 0.00038695335388183594
ell 539, elapsed: 0.00044989585876464844
ell 538, elapsed: 0.00038504600524902344
ell 537, elapsed: 0.00045609474182128906
ell 536, elapsed: 0.0005540847778320312
ell 535, elapsed: 0.0005578994750976562
ell 534, elapsed: 0.00038695335388183594
ell 533, elapsed: 0.00045108795166015625
ell 532, elapsed: 0.00038504600524902344
ell 531, elapsed: 0.0004601478576660156
ell 530, elapsed: 0.0003840923309326172
ell 529, elapsed: 0.0004611015319824219
ell 528, elapsed: 0.0003829002380371094
ell 527, elapsed: 0.0004520416259765625
ell 526, elapsed: 0.0003819465637207031
ell 525, elapsed: 0.0006608963012695312
ell 524, elapsed: 0.0004360675811767578
ell 523, elapsed: 0.00044918060302734375
ell 522, elapsed: 0.0003819465637207031
ell 521, elapsed: 0.00046896934509277344
ell 520, elapsed: 0.00048089027404785156
ell 519, elapsed: 0.0006289482116699219
ell 518, elapsed: 0.0003838539123535156
ell 517, elapsed: 0.00045490264892578125
ell 516, elapsed: 0.00038313865661621094
ell 515, elapsed: 0.0004799365997314453
ell 514, elapsed: 0.0006110668182373047
ell 513, elapsed: 0.0004780292510986328
ell 512, elapsed: 0.0003840923309326172
ell 511, elapsed: 0.000453948974609375
ell 510, elapsed: 0.00038313865661621094
ell 509, elapsed: 0.0006160736083984375
ell 508, elapsed: 0.0004858970642089844
ell 507, elapsed: 0.00045299530029296875
ell 506, elapsed: 0.0003838539123535156
ell 505, elapsed: 0.0004649162292480469
ell 504, elapsed: 0.00042319297790527344
ell 503, elapsed: 0.0006551742553710938
ell 502, elapsed: 0.00039386749267578125
ell 501, elapsed: 0.0004639625549316406
ell 500, elapsed: 0.00038695335388183594
ell 499, elapsed: 0.00044989585876464844
ell 498, elapsed: 0.0005898475646972656
ell 497, elapsed: 0.0005228519439697266
ell 496, elapsed: 0.0003819465637207031
ell 495, elapsed: 0.0004589557647705078
ell 494, elapsed: 0.0003879070281982422
ell 493, elapsed: 0.0005600452423095703
ell 492, elapsed: 0.0005388259887695312
ell 491, elapsed: 0.00045180320739746094
ell 490, elapsed: 0.0003819465637207031
ell 489, elapsed: 0.0004639625549316406
ell 488, elapsed: 0.00038313865661621094
ell 487, elapsed: 0.0006921291351318359
ell 486, elapsed: 0.0003960132598876953
ell 485, elapsed: 0.00045609474182128906
ell 484, elapsed: 0.00038504600524902344
ell 483, elapsed: 0.00045108795166015625
ell 482, elapsed: 0.0005159378051757812
ell 481, elapsed: 0.0006000995635986328
ell 480, elapsed: 0.00038504600524902344
ell 479, elapsed: 0.00045299530029296875
ell 478, elapsed: 0.0003819465637207031
ell 477, elapsed: 0.0004901885986328125
ell 476, elapsed: 0.0005931854248046875
ell 475, elapsed: 0.0004630088806152344
ell 474, elapsed: 0.0003809928894042969
ell 473, elapsed: 0.0004639625549316406
ell 472, elapsed: 0.00038313865661621094
ell 471, elapsed: 0.0006330013275146484
ell 470, elapsed: 0.00046515464782714844
ell 469, elapsed: 0.0004520416259765625
ell 468, elapsed: 0.0003829002380371094
ell 467, elapsed: 0.00044798851013183594
ell 466, elapsed: 0.0004241466522216797
ell 465, elapsed: 0.0006649494171142578
ell 464, elapsed: 0.0003910064697265625
ell 463, elapsed: 0.0004508495330810547
ell 462, elapsed: 0.0003819465637207031
ell 461, elapsed: 0.0004520416259765625
ell 460, elapsed: 0.0005929470062255859
ell 459, elapsed: 0.0005080699920654297
ell 458, elapsed: 0.0003910064697265625
ell 457, elapsed: 0.0004730224609375
ell 456, elapsed: 0.00038504600524902344
ell 455, elapsed: 0.0005910396575927734
ell 454, elapsed: 0.0005159378051757812
ell 453, elapsed: 0.0004589557647705078
ell 452, elapsed: 0.00038313865661621094
ell 451, elapsed: 0.0004620552062988281
ell 450, elapsed: 0.0004119873046875
ell 449, elapsed: 0.0006871223449707031
ell 448, elapsed: 0.00039005279541015625
ell 447, elapsed: 0.00045609474182128906
ell 446, elapsed: 0.0003819465637207031
ell 445, elapsed: 0.00045013427734375
ell 444, elapsed: 0.0005719661712646484
ell 443, elapsed: 0.0005331039428710938
ell 442, elapsed: 0.0003819465637207031
ell 441, elapsed: 0.0004711151123046875
ell 440, elapsed: 0.00038814544677734375
ell 439, elapsed: 0.0004649162292480469
ell 438, elapsed: 0.0003838539123535156
ell 437, elapsed: 0.0004570484161376953
ell 436, elapsed: 0.0003819465637207031
ell 435, elapsed: 0.00045180320739746094
ell 434, elapsed: 0.0003819465637207031
ell 433, elapsed: 0.0007040500640869141
ell 432, elapsed: 0.0003910064697265625
ell 431, elapsed: 0.00045680999755859375
ell 430, elapsed: 0.0003840923309326172
ell 429, elapsed: 0.00045299530029296875
ell 428, elapsed: 0.0005028247833251953
ell 427, elapsed: 0.0006020069122314453
ell 426, elapsed: 0.0003848075866699219
ell 425, elapsed: 0.00047206878662109375
ell 424, elapsed: 0.0003829002380371094
ell 423, elapsed: 0.00048804283142089844
ell 422, elapsed: 0.000598907470703125
ell 421, elapsed: 0.00046706199645996094
ell 420, elapsed: 0.0003819465637207031
ell 419, elapsed: 0.0004520416259765625
ell 418, elapsed: 0.00038313865661621094
ell 417, elapsed: 0.0006449222564697266
ell 416, elapsed: 0.0004711151123046875
ell 415, elapsed: 0.00045418739318847656
ell 414, elapsed: 0.0003840923309326172
ell 413, elapsed: 0.0004489421844482422
ell 412, elapsed: 0.0004229545593261719
ell 411, elapsed: 0.000659942626953125
ell 410, elapsed: 0.0003960132598876953
ell 409, elapsed: 0.00045013427734375
ell 408, elapsed: 0.0003829002380371094
ell 407, elapsed: 0.0004508495330810547
ell 406, elapsed: 0.0005800724029541016
ell 405, elapsed: 0.0005209445953369141
ell 404, elapsed: 0.0003819465637207031
ell 403, elapsed: 0.00045299530029296875
ell 402, elapsed: 0.0003800392150878906
ell 401, elapsed: 0.0005381107330322266
ell 400, elapsed: 0.0005440711975097656
ell 399, elapsed: 0.0004520416259765625
ell 398, elapsed: 0.0003809928894042969
ell 397, elapsed: 0.00044798851013183594
ell 396, elapsed: 0.0003809928894042969
ell 395, elapsed: 0.0006840229034423828
ell 394, elapsed: 0.00039005279541015625
ell 393, elapsed: 0.00044989585876464844
ell 392, elapsed: 0.00039505958557128906
ell 391, elapsed: 0.0004467964172363281
ell 390, elapsed: 0.0004999637603759766
ell 389, elapsed: 0.0006051063537597656
ell 388, elapsed: 0.0003819465637207031
ell 387, elapsed: 0.00045490264892578125
ell 386, elapsed: 0.0003829002380371094
ell 385, elapsed: 0.00047898292541503906
ell 384, elapsed: 0.0006158351898193359
ell 383, elapsed: 0.0004658699035644531
ell 382, elapsed: 0.00038313865661621094
ell 381, elapsed: 0.00044608116149902344
ell 380, elapsed: 0.0003829002380371094
ell 379, elapsed: 0.00061798095703125
ell 378, elapsed: 0.00047707557678222656
ell 377, elapsed: 0.00044989585876464844
ell 376, elapsed: 0.00039386749267578125
ell 375, elapsed: 0.000453948974609375
ell 374, elapsed: 0.00042510032653808594
ell 373, elapsed: 0.0006589889526367188
ell 372, elapsed: 0.00039005279541015625
ell 371, elapsed: 0.00045990943908691406
ell 370, elapsed: 0.00038695335388183594
ell 369, elapsed: 0.00044798851013183594
ell 368, elapsed: 0.0005929470062255859
ell 367, elapsed: 0.0005240440368652344
ell 366, elapsed: 0.0003819465637207031
ell 365, elapsed: 0.0004520416259765625
ell 364, elapsed: 0.0003840923309326172
ell 363, elapsed: 0.0005319118499755859
ell 362, elapsed: 0.0005469322204589844
ell 361, elapsed: 0.000453948974609375
ell 360, elapsed: 0.0003948211669921875
ell 359, elapsed: 0.00045299530029296875
ell 358, elapsed: 0.0003819465637207031
ell 357, elapsed: 0.0006930828094482422
ell 356, elapsed: 0.0003910064697265625
ell 355, elapsed: 0.0004551410675048828
ell 354, elapsed: 0.0003819465637207031
ell 353, elapsed: 0.00044989585876464844
ell 352, elapsed: 0.0005090236663818359
ell 351, elapsed: 0.0006082057952880859
ell 350, elapsed: 0.0003819465637207031
ell 349, elapsed: 0.0004439353942871094
ell 348, elapsed: 0.0003809928894042969
ell 347, elapsed: 0.00047016143798828125
ell 346, elapsed: 0.0006098747253417969
ell 345, elapsed: 0.0004630088806152344
ell 344, elapsed: 0.0003972053527832031
ell 343, elapsed: 0.00045800209045410156
ell 342, elapsed: 0.0003840923309326172
ell 341, elapsed: 0.0006148815155029297
ell 340, elapsed: 0.0004901885986328125
ell 339, elapsed: 0.00045490264892578125
ell 338, elapsed: 0.00038504600524902344
ell 337, elapsed: 0.00044989585876464844
ell 336, elapsed: 0.0004341602325439453
ell 335, elapsed: 0.0006711483001708984
ell 334, elapsed: 0.000392913818359375
ell 333, elapsed: 0.0004558563232421875
ell 332, elapsed: 0.0003821849822998047
ell 331, elapsed: 0.00044989585876464844
ell 330, elapsed: 0.0005731582641601562
ell 329, elapsed: 0.0005400180816650391
ell 328, elapsed: 0.0003941059112548828
ell 327, elapsed: 0.0004508495330810547
ell 326, elapsed: 0.0003821849822998047
ell 325, elapsed: 0.0005350112915039062
ell 324, elapsed: 0.0005528926849365234
ell 323, elapsed: 0.0004558563232421875
ell 322, elapsed: 0.0003840923309326172
ell 321, elapsed: 0.0004508495330810547
ell 320, elapsed: 0.00039386749267578125
ell 319, elapsed: 0.0006778240203857422
ell 318, elapsed: 0.0004088878631591797
ell 317, elapsed: 0.0004661083221435547
ell 316, elapsed: 0.00038886070251464844
ell 315, elapsed: 0.00045108795166015625
ell 314, elapsed: 0.0005099773406982422
ell 313, elapsed: 0.0006020069122314453
ell 312, elapsed: 0.0003941059112548828
ell 311, elapsed: 0.00045108795166015625
ell 310, elapsed: 0.0003819465637207031
ell 309, elapsed: 0.0004911422729492188
ell 308, elapsed: 0.0005970001220703125
ell 307, elapsed: 0.00045800209045410156
ell 306, elapsed: 0.0003829002380371094
ell 305, elapsed: 0.0004489421844482422
ell 304, elapsed: 0.0003960132598876953
ell 303, elapsed: 0.000640869140625
ell 302, elapsed: 0.000469207763671875
ell 301, elapsed: 0.00045490264892578125
ell 300, elapsed: 0.00038313865661621094
ell 299, elapsed: 0.00045299530029296875
ell 298, elapsed: 0.0004367828369140625
ell 297, elapsed: 0.0006470680236816406
ell 296, elapsed: 0.00040602684020996094
ell 295, elapsed: 0.00045108795166015625
ell 294, elapsed: 0.0003819465637207031
ell 293, elapsed: 0.0004489421844482422
ell 292, elapsed: 0.0005991458892822266
ell 291, elapsed: 0.0005059242248535156
ell 290, elapsed: 0.0003859996795654297
ell 289, elapsed: 0.00045418739318847656
ell 288, elapsed: 0.00042510032653808594
ell 287, elapsed: 0.0005960464477539062
ell 286, elapsed: 0.0005109310150146484
ell 285, elapsed: 0.0004489421844482422
ell 284, elapsed: 0.00038313865661621094
ell 283, elapsed: 0.00044608116149902344
ell 282, elapsed: 0.000408172607421875
ell 281, elapsed: 0.0006690025329589844
ell 280, elapsed: 0.00040721893310546875
ell 279, elapsed: 0.00045609474182128906
ell 278, elapsed: 0.0003859996795654297
ell 277, elapsed: 0.00045108795166015625
ell 276, elapsed: 0.0005600452423095703
ell 275, elapsed: 0.0005578994750976562
ell 274, elapsed: 0.00038313865661621094
ell 273, elapsed: 0.00044608116149902344
ell 272, elapsed: 0.0003948211669921875
ell 271, elapsed: 0.0004639625549316406
ell 270, elapsed: 0.00038814544677734375
ell 269, elapsed: 0.00044989585876464844
ell 268, elapsed: 0.00038313865661621094
ell 267, elapsed: 0.000453948974609375
ell 266, elapsed: 0.0003819465637207031
ell 265, elapsed: 0.0006618499755859375
ell 264, elapsed: 0.00045418739318847656
ell 263, elapsed: 0.0004508495330810547
ell 262, elapsed: 0.0003821849822998047
ell 261, elapsed: 0.0004520416259765625
ell 260, elapsed: 0.00047588348388671875
ell 259, elapsed: 0.0006380081176757812
ell 258, elapsed: 0.0003848075866699219
ell 257, elapsed: 0.00044989585876464844
ell 256, elapsed: 0.0003829002380371094
ell 255, elapsed: 0.0004661083221435547
ell 254, elapsed: 0.0003848075866699219
ell 253, elapsed: 0.0004620552062988281
ell 252, elapsed: 0.00038695335388183594
ell 251, elapsed: 0.000453948974609375
ell 250, elapsed: 0.00038504600524902344
ell 249, elapsed: 0.0006010532379150391
ell 248, elapsed: 0.0005040168762207031
ell 247, elapsed: 0.0004730224609375
ell 246, elapsed: 0.0003840923309326172
ell 245, elapsed: 0.0004558563232421875
ell 244, elapsed: 0.0004169940948486328
ell 243, elapsed: 0.0006749629974365234
ell 242, elapsed: 0.00039696693420410156
ell 241, elapsed: 0.00045299530029296875
ell 240, elapsed: 0.0003838539123535156
ell 239, elapsed: 0.0004711151123046875
ell 238, elapsed: 0.0005729198455810547
ell 237, elapsed: 0.0005409717559814453
ell 236, elapsed: 0.0003840923309326172
ell 235, elapsed: 0.0004558563232421875
ell 234, elapsed: 0.0003838539123535156
ell 233, elapsed: 0.00046515464782714844
ell 232, elapsed: 0.00038504600524902344
ell 231, elapsed: 0.0004642009735107422
ell 230, elapsed: 0.0003829002380371094
ell 229, elapsed: 0.00045299530029296875
ell 228, elapsed: 0.00038313865661621094
ell 227, elapsed: 0.0007040500640869141
ell 226, elapsed: 0.00039005279541015625
ell 225, elapsed: 0.00045108795166015625
ell 224, elapsed: 0.0003819465637207031
ell 223, elapsed: 0.00045108795166015625
ell 222, elapsed: 0.0005061626434326172
ell 221, elapsed: 0.0006229877471923828
ell 220, elapsed: 0.00038695335388183594
ell 219, elapsed: 0.00045108795166015625
ell 218, elapsed: 0.00038313865661621094
ell 217, elapsed: 0.0004868507385253906
ell 216, elapsed: 0.0006120204925537109
ell 215, elapsed: 0.0004799365997314453
ell 214, elapsed: 0.0003829002380371094
ell 213, elapsed: 0.0004620552062988281
ell 212, elapsed: 0.0003819465637207031
ell 211, elapsed: 0.0006330013275146484
ell 210, elapsed: 0.0004680156707763672
ell 209, elapsed: 0.00044798851013183594
ell 208, elapsed: 0.0003809928894042969
ell 207, elapsed: 0.00045800209045410156
ell 206, elapsed: 0.0004489421844482422
ell 205, elapsed: 0.0006611347198486328
ell 204, elapsed: 0.00039005279541015625
ell 203, elapsed: 0.0004520416259765625
ell 202, elapsed: 0.0003819465637207031
ell 201, elapsed: 0.0004520416259765625
ell 200, elapsed: 0.0005979537963867188
ell 199, elapsed: 0.0005178451538085938
ell 198, elapsed: 0.0003829002380371094
ell 197, elapsed: 0.00045299530029296875
ell 196, elapsed: 0.0003829002380371094
ell 195, elapsed: 0.0005850791931152344
ell 194, elapsed: 0.0005190372467041016
ell 193, elapsed: 0.00045299530029296875
ell 192, elapsed: 0.0003819465637207031
ell 191, elapsed: 0.0004520416259765625
ell 190, elapsed: 0.0003960132598876953
ell 189, elapsed: 0.00045800209045410156
ell 188, elapsed: 0.0003829002380371094
ell 187, elapsed: 0.00044798851013183594
ell 186, elapsed: 0.0003859996795654297
ell 185, elapsed: 0.00045490264892578125
ell 184, elapsed: 0.0005540847778320312
ell 183, elapsed: 0.0005559921264648438
ell 182, elapsed: 0.00039505958557128906
ell 181, elapsed: 0.00045108795166015625
ell 180, elapsed: 0.00038123130798339844
ell 179, elapsed: 0.0004668235778808594
ell 178, elapsed: 0.0003809928894042969
ell 177, elapsed: 0.0004470348358154297
ell 176, elapsed: 0.0003809928894042969
ell 175, elapsed: 0.00044989585876464844
ell 174, elapsed: 0.0003809928894042969
ell 173, elapsed: 0.0006740093231201172
ell 172, elapsed: 0.00042700767517089844
ell 171, elapsed: 0.00044989585876464844
ell 170, elapsed: 0.0003821849822998047
ell 169, elapsed: 0.00045490264892578125
ell 168, elapsed: 0.000476837158203125
ell 167, elapsed: 0.0006401538848876953
ell 166, elapsed: 0.0003859996795654297
ell 165, elapsed: 0.0004639625549316406
ell 164, elapsed: 0.00038313865661621094
ell 163, elapsed: 0.00045299530029296875
ell 162, elapsed: 0.0003829002380371094
ell 161, elapsed: 0.0004551410675048828
ell 160, elapsed: 0.00039005279541015625
ell 159, elapsed: 0.00045418739318847656
ell 158, elapsed: 0.00038695335388183594
ell 157, elapsed: 0.0006248950958251953
ell 156, elapsed: 0.0004749298095703125
ell 155, elapsed: 0.0004458427429199219
ell 154, elapsed: 0.0003821849822998047
ell 153, elapsed: 0.0004520416259765625
ell 152, elapsed: 0.0004119873046875
ell 151, elapsed: 0.0006639957427978516
ell 150, elapsed: 0.0003829002380371094
ell 149, elapsed: 0.0004661083221435547
ell 148, elapsed: 0.0003829002380371094
ell 147, elapsed: 0.00045299530029296875
ell 146, elapsed: 0.0005619525909423828
ell 145, elapsed: 0.0005469322204589844
ell 144, elapsed: 0.0003819465637207031
ell 143, elapsed: 0.0004620552062988281
ell 142, elapsed: 0.00038504600524902344
ell 141, elapsed: 0.0005488395690917969
ell 140, elapsed: 0.0005450248718261719
ell 139, elapsed: 0.0004520416259765625
ell 138, elapsed: 0.0003800392150878906
ell 137, elapsed: 0.0004520416259765625
ell 136, elapsed: 0.0003809928894042969
ell 135, elapsed: 0.0006749629974365234
ell 134, elapsed: 0.00041985511779785156
ell 133, elapsed: 0.00046515464782714844
ell 132, elapsed: 0.0003840923309326172
ell 131, elapsed: 0.0004608631134033203
ell 130, elapsed: 0.0005068778991699219
ell 129, elapsed: 0.0006048679351806641
ell 128, elapsed: 0.00038695335388183594
ell 127, elapsed: 0.00045680999755859375
ell 126, elapsed: 0.0003838539123535156
ell 125, elapsed: 0.00051116943359375
ell 124, elapsed: 0.0005960464477539062
ell 123, elapsed: 0.0004630088806152344
ell 122, elapsed: 0.0003848075866699219
ell 121, elapsed: 0.00045800209045410156
ell 120, elapsed: 0.0003838539123535156
ell 119, elapsed: 0.0006301403045654297
ell 118, elapsed: 0.0004620552062988281
ell 117, elapsed: 0.0004951953887939453
ell 116, elapsed: 0.00038504600524902344
ell 115, elapsed: 0.00045299530029296875
ell 114, elapsed: 0.0004699230194091797
ell 113, elapsed: 0.0006129741668701172
ell 112, elapsed: 0.00038886070251464844
ell 111, elapsed: 0.0004570484161376953
ell 110, elapsed: 0.0003819465637207031
ell 109, elapsed: 0.0004589557647705078
ell 108, elapsed: 0.0003840923309326172
ell 107, elapsed: 0.0004551410675048828
ell 106, elapsed: 0.0003819465637207031
ell 105, elapsed: 0.00045180320739746094
ell 104, elapsed: 0.0003960132598876953
ell 103, elapsed: 0.0005939006805419922
ell 102, elapsed: 0.0005071163177490234
ell 101, elapsed: 0.0004489421844482422
ell 100, elapsed: 0.00039887428283691406
ell 99, elapsed: 0.00045680999755859375
ell 98, elapsed: 0.00040602684020996094
ell 97, elapsed: 0.0006699562072753906
ell 96, elapsed: 0.00039196014404296875
ell 95, elapsed: 0.00045299530029296875
ell 94, elapsed: 0.0003838539123535156
ell 93, elapsed: 0.00045680999755859375
ell 92, elapsed: 0.0005822181701660156
ell 91, elapsed: 0.0005347728729248047
ell 90, elapsed: 0.0003819465637207031
ell 89, elapsed: 0.0004489421844482422
ell 88, elapsed: 0.0003819465637207031
ell 87, elapsed: 0.0005300045013427734
ell 86, elapsed: 0.0005528926849365234
ell 85, elapsed: 0.00045108795166015625
ell 84, elapsed: 0.0003981590270996094
ell 83, elapsed: 0.00045180320739746094
ell 82, elapsed: 0.0003859996795654297
ell 81, elapsed: 0.0006690025329589844
ell 80, elapsed: 0.000408172607421875
ell 79, elapsed: 0.00044989585876464844
ell 78, elapsed: 0.0003819465637207031
ell 77, elapsed: 0.0004520416259765625
ell 76, elapsed: 0.0005071163177490234
ell 75, elapsed: 0.0006148815155029297
ell 74, elapsed: 0.0003819465637207031
ell 73, elapsed: 0.00045108795166015625
ell 72, elapsed: 0.0003819465637207031
ell 71, elapsed: 0.00046896934509277344
ell 70, elapsed: 0.0006079673767089844
ell 69, elapsed: 0.00046181678771972656
ell 68, elapsed: 0.00039577484130859375
ell 67, elapsed: 0.0004630088806152344
ell 66, elapsed: 0.0003859996795654297
ell 65, elapsed: 0.0006139278411865234
ell 64, elapsed: 0.0004918575286865234
ell 63, elapsed: 0.000453948974609375
ell 62, elapsed: 0.00038504600524902344
ell 61, elapsed: 0.00045490264892578125
ell 60, elapsed: 0.00043892860412597656
ell 59, elapsed: 0.0006549358367919922
ell 58, elapsed: 0.0003960132598876953
ell 57, elapsed: 0.00045299530029296875
ell 56, elapsed: 0.00038504600524902344
ell 55, elapsed: 0.000453948974609375
ell 54, elapsed: 0.0006051063537597656
ell 53, elapsed: 0.0004999637603759766
ell 52, elapsed: 0.0003981590270996094
ell 51, elapsed: 0.00045490264892578125
ell 50, elapsed: 0.00038504600524902344
ell 49, elapsed: 0.000576019287109375
ell 48, elapsed: 0.0005061626434326172
ell 47, elapsed: 0.0004551410675048828
ell 46, elapsed: 0.0003829002380371094
ell 45, elapsed: 0.000453948974609375
ell 44, elapsed: 0.0004229545593261719
ell 43, elapsed: 0.000675201416015625
ell 42, elapsed: 0.0003859996795654297
ell 41, elapsed: 0.00045800209045410156
ell 40, elapsed: 0.0003859996795654297
ell 39, elapsed: 0.0004570484161376953
ell 38, elapsed: 0.0005869865417480469
ell 37, elapsed: 0.0005180835723876953
ell 36, elapsed: 0.0003979206085205078
ell 35, elapsed: 0.00047016143798828125
ell 34, elapsed: 0.0003859996795654297
ell 33, elapsed: 0.0005850791931152344
ell 32, elapsed: 0.000518798828125
ell 31, elapsed: 0.0004611015319824219
ell 30, elapsed: 0.00039196014404296875
ell 29, elapsed: 0.0004570484161376953
ell 28, elapsed: 0.0005090236663818359
ell 27, elapsed: 0.0006239414215087891
ell 26, elapsed: 0.000392913818359375
ell 25, elapsed: 0.0004551410675048828
ell 24, elapsed: 0.0003879070281982422
ell 23, elapsed: 0.0004570484161376953
ell 22, elapsed: 0.00038814544677734375
ell 21, elapsed: 0.0004608631134033203
ell 20, elapsed: 0.0003979206085205078
ell 19, elapsed: 0.00045990943908691406
ell 18, elapsed: 0.00038695335388183594
ell 17, elapsed: 0.0006239414215087891
ell 16, elapsed: 0.0004780292510986328
ell 15, elapsed: 0.00045490264892578125
ell 14, elapsed: 0.00038504600524902344
ell 13, elapsed: 0.0004520416259765625
ell 12, elapsed: 0.000453948974609375
ell 11, elapsed: 0.0006501674652099609
ell 10, elapsed: 0.00039315223693847656
ell 9, elapsed: 0.00045490264892578125
ell 8, elapsed: 0.00038504600524902344
ell 7, elapsed: 0.00045490264892578125
ell 6, elapsed: 0.0006029605865478516
ell 5, elapsed: 0.00049591064453125
ell 4, elapsed: 0.0003991127014160156
ell 3, elapsed: 0.0004661083221435547
ell 2, elapsed: 0.0003879070281982422
ell 1, elapsed: 0.0006101131439208984
ell 0, elapsed: 0.0004971027374267578
  0.638188 seconds (41.19 k allocations: 2.939 MiB, 4.89% gc time)
elapsed: 0.0005879402160644531
step:          0.066463 sec (0 allocations: 0 byte, 0.0% gc time)
swapping:      0.000629 sec (0 allocations: 0 byte, 0.0% gc time)
calc_Mellell!: 0.010069 sec (0 allocations: 0 byte, 0.0% gc time)
  t0 :  0.002387 sec (0 allocations: 0 byte, 0.0% gc time)
  tm2 : 0.100786 sec (0 allocations: 0 byte, 0.0% gc time)
  tm2s: 0.001761 sec (0 allocations: 0 byte, 0.0% gc time)
  tm4 : 0.257929 sec (0 allocations: 0 byte, 0.0% gc time)
  tp2 : 0.0 sec (0 allocations: 0 byte, 0.0% gc time)
  tp2s: 0.0 sec (0 allocations: 0 byte, 0.0% gc time)
  tp4 : 0.0 sec (0 allocations: 0 byte, 0.0% gc time)
calc_wtdll!:   0.37875 sec (9.87 k allocations: 1.043 MB, 0.0% gc time)
calc_wljj!:    0.044403 sec (689 allocations: 10.766 KB, 0.0% gc time)
mult_prefac!:  0.0 sec (0 allocations: 0 byte, 0.0% gc time)
convert:       0.0 sec (0 allocations: 0 byte, 0.0% gc time)
write:         0.047966 sec (0 allocations: 0 byte, 0.0% gc time)
test_rand_2f1: 0.0 sec (0 allocations: 0 byte, 0.0% gc time)
Closing outfile out/Ml21-cache.bin...   0.019139 seconds
  0.000395 seconds (52 allocations: 28.297 KiB)
make_phi():   0.002282 seconds (8.20 k allocations: 238.016 KiB)
  0.173311 seconds (146.69 k allocations: 3.629 MiB)
tskip:       0.001166 sec (0 allocations: 0 byte, 0.0% gc time)
tread:       0.020976 sec (19 allocations: 10.688 KB, 0.0% gc time)
tmultphi:    0.014866 sec (0 allocations: 0 byte, 0.0% gc time)
tbrfft:      0.043846 sec (9.592 k allocations: 449.625 KB, 0.0% gc time)
tmultprefac: 0.037099 sec (0 allocations: 0 byte, 0.0% gc time)
toutfunc:    0.053703 sec (129.905 k allocations: 2.421 MB, 0.0% gc time)
Testing R=1.0 ... passed
Calculating fmax: 
  dlrec    = 4
  dlrecRg1 = -4
  q=1.1, R=0.9:	  0.441366 seconds (116.47 k allocations: 15.614 MiB)

  0.441967 seconds (116.50 k allocations: 15.647 MiB)
ℓ = 1202
Δℓ = 4
ΔℓRg1 = -4
N = 1600
q = 1.1
kmin = 1.0e-5
kmax = 100000.00000000004
χ0 = 0.023029999999999995
RR = RR.tsv
ℓmax = ℓmax.bin
f21 = f21.bin
kmin = 1.0e-5
kmax = 100000.0
dlrec    = 4
dlrecRg1 = -4
Output size: 5741568 bytes = 0.005347251892089844 GiB
Output size: 51264 bytes = 4.774332046508789e-5 GiB
Reading 'out/F21EllCache'...   0.001022 seconds (267 allocations: 84.656 KiB)
ellmax: 1202
lmaxcache: 1202
fell[:,1,1] = Complex{Float64}[1.3482014726274674e-57 - 3.302141236118086e-73im, 1.357860004724329e-57 - 3.3257978169518355e-73im]
ell 1202, elapsed: 2.002716064453125e-5
ell 1201, elapsed: 0.0003609657287597656
ell 1200, elapsed: 0.0003790855407714844
ell 1199, elapsed: 0.0003509521484375
ell 1198, elapsed: 0.00034618377685546875
ell 1002, elapsed: 0.010776996612548828
ell 1001, elapsed: 0.00035881996154785156
ell 1000, elapsed: 0.00034809112548828125
ell 999, elapsed: 0.0003478527069091797
ell 998, elapsed: 0.00034809112548828125
ell 902, elapsed: 0.005629062652587891
ell 901, elapsed: 0.0003719329833984375
ell 900, elapsed: 0.00034999847412109375
ell 899, elapsed: 0.0003509521484375
ell 898, elapsed: 0.0003509521484375
ell 802, elapsed: 0.005650997161865234
ell 801, elapsed: 0.0004558563232421875
ell 800, elapsed: 0.0005168914794921875
ell 799, elapsed: 0.0003600120544433594
ell 798, elapsed: 0.0003459453582763672
ell 702, elapsed: 0.005241870880126953
ell 701, elapsed: 0.00035381317138671875
ell 700, elapsed: 0.00037598609924316406
ell 699, elapsed: 0.0005450248718261719
ell 698, elapsed: 0.00036907196044921875
ell 602, elapsed: 0.0055849552154541016
ell 601, elapsed: 0.0003638267517089844
ell 600, elapsed: 0.00034809112548828125
ell 599, elapsed: 0.0005230903625488281
ell 598, elapsed: 0.0004239082336425781
ell 502, elapsed: 0.005298137664794922
ell 501, elapsed: 0.0003490447998046875
ell 500, elapsed: 0.0003440380096435547
ell 499, elapsed: 0.00034499168395996094
ell 498, elapsed: 0.00045490264892578125
ell 402, elapsed: 0.005609035491943359
ell 401, elapsed: 0.0003628730773925781
ell 400, elapsed: 0.0003509521484375
ell 399, elapsed: 0.00034689903259277344
ell 398, elapsed: 0.00034689903259277344
ell 302, elapsed: 0.005597114562988281
ell 301, elapsed: 0.00035381317138671875
ell 300, elapsed: 0.00034618377685546875
ell 299, elapsed: 0.00035881996154785156
ell 298, elapsed: 0.0003478527069091797
ell 202, elapsed: 0.005704164505004883
ell 201, elapsed: 0.000431060791015625
ell 200, elapsed: 0.0004119873046875
ell 199, elapsed: 0.000270843505859375
ell 198, elapsed: 0.0002620220184326172
ell 152, elapsed: 0.0025420188903808594
ell 151, elapsed: 0.000308990478515625
ell 150, elapsed: 0.00028705596923828125
ell 149, elapsed: 0.0002651214599609375
ell 148, elapsed: 0.00026488304138183594
ell 127, elapsed: 0.0016710758209228516
ell 126, elapsed: 0.00047898292541503906
ell 125, elapsed: 0.0005540847778320312
ell 124, elapsed: 0.0005519390106201172
ell 123, elapsed: 0.000576019287109375
ell 114, elapsed: 0.0012998580932617188
ell 113, elapsed: 0.0004229545593261719
ell 112, elapsed: 0.0006091594696044922
ell 111, elapsed: 0.000598907470703125
ell 110, elapsed: 0.00041294097900390625
ell 102, elapsed: 0.0007429122924804688
ell 101, elapsed: 0.00031495094299316406
ell 100, elapsed: 0.0005359649658203125
ell 99, elapsed: 0.0005860328674316406
ell 98, elapsed: 0.0005900859832763672
ell 97, elapsed: 0.0006608963012695312
ell 96, elapsed: 0.0007932186126708984
ell 95, elapsed: 0.0006420612335205078
ell 94, elapsed: 0.0007719993591308594
ell 93, elapsed: 0.0006368160247802734
ell 92, elapsed: 0.0007798671722412109
ell 91, elapsed: 0.0006289482116699219
ell 90, elapsed: 0.0007560253143310547
ell 89, elapsed: 0.0006191730499267578
ell 88, elapsed: 0.0007619857788085938
ell 87, elapsed: 0.0006270408630371094
ell 86, elapsed: 0.0007328987121582031
ell 85, elapsed: 0.0006151199340820312
ell 84, elapsed: 0.0007588863372802734
ell 83, elapsed: 0.0006241798400878906
ell 82, elapsed: 0.0007510185241699219
ell 81, elapsed: 0.0006129741668701172
ell 80, elapsed: 0.0007510185241699219
ell 79, elapsed: 0.0006320476531982422
ell 78, elapsed: 0.0007469654083251953
ell 77, elapsed: 0.0004680156707763672
ell 76, elapsed: 0.0006411075592041016
ell 75, elapsed: 0.00049591064453125
ell 74, elapsed: 0.0007028579711914062
ell 73, elapsed: 0.0005519390106201172
ell 72, elapsed: 0.0007719993591308594
ell 71, elapsed: 0.0005118846893310547
ell 70, elapsed: 0.0006349086761474609
ell 69, elapsed: 0.0005331039428710938
ell 68, elapsed: 0.0006198883056640625
ell 67, elapsed: 0.0006539821624755859
ell 66, elapsed: 0.000579833984375
ell 65, elapsed: 0.0005891323089599609
ell 64, elapsed: 0.0007538795471191406
ell 63, elapsed: 0.0005130767822265625
ell 62, elapsed: 0.0006911754608154297
ell 61, elapsed: 0.0006630420684814453
ell 60, elapsed: 0.0007579326629638672
ell 59, elapsed: 0.0006399154663085938
ell 58, elapsed: 0.0007472038269042969
ell 57, elapsed: 0.0005710124969482422
ell 56, elapsed: 0.0007429122924804688
ell 55, elapsed: 0.0006160736083984375
ell 54, elapsed: 0.0007560253143310547
ell 53, elapsed: 0.0005371570587158203
ell 52, elapsed: 0.00048804283142089844
ell 51, elapsed: 0.0004010200500488281
ell 50, elapsed: 0.00037097930908203125
ell 49, elapsed: 0.0002849102020263672
ell 48, elapsed: 0.000370025634765625
ell 47, elapsed: 0.0006020069122314453
ell 46, elapsed: 0.0007741451263427734
ell 45, elapsed: 0.0006930828094482422
ell 44, elapsed: 0.0008149147033691406
ell 43, elapsed: 0.0006580352783203125
ell 42, elapsed: 0.0008218288421630859
ell 41, elapsed: 0.0006539821624755859
ell 40, elapsed: 0.0007700920104980469
ell 39, elapsed: 0.0006511211395263672
ell 38, elapsed: 0.0007801055908203125
ell 37, elapsed: 0.0006539821624755859
ell 36, elapsed: 0.0007610321044921875
ell 35, elapsed: 0.0006270408630371094
ell 34, elapsed: 0.0007719993591308594
ell 33, elapsed: 0.0005898475646972656
ell 32, elapsed: 0.0006928443908691406
ell 31, elapsed: 0.00041604042053222656
ell 30, elapsed: 0.0004928112030029297
ell 29, elapsed: 0.00041294097900390625
ell 28, elapsed: 0.0005071163177490234
ell 27, elapsed: 0.0006151199340820312
ell 26, elapsed: 0.0007688999176025391
ell 25, elapsed: 0.0005819797515869141
ell 24, elapsed: 0.0005130767822265625
ell 23, elapsed: 0.0006248950958251953
ell 22, elapsed: 0.0007550716400146484
ell 21, elapsed: 0.0006759166717529297
ell 20, elapsed: 0.0005779266357421875
ell 19, elapsed: 0.0005919933319091797
ell 18, elapsed: 0.0010440349578857422
ell 17, elapsed: 0.0008420944213867188
ell 16, elapsed: 0.0007340908050537109
ell 15, elapsed: 0.0006361007690429688
ell 14, elapsed: 0.0008039474487304688
ell 13, elapsed: 0.0006339550018310547
ell 12, elapsed: 0.0007610321044921875
ell 11, elapsed: 0.00041484832763671875
ell 10, elapsed: 0.0003590583801269531
ell 9, elapsed: 0.0002930164337158203
ell 8, elapsed: 0.00035309791564941406
ell 7, elapsed: 0.00030803680419921875
ell 6, elapsed: 0.0006699562072753906
ell 5, elapsed: 0.0006198883056640625
ell 4, elapsed: 0.0007369518280029297
ell 3, elapsed: 0.0006170272827148438
ell 2, elapsed: 0.0007359981536865234
ell 1, elapsed: 0.000576019287109375
ell 0, elapsed: 0.0006880760192871094
  0.153502 seconds (10.83 k allocations: 697.938 KiB)
elapsed: 0.0007071495056152344
step:          0.064149 sec (0 allocations: 0 byte, 0.0% gc time)
swapping:      0.000556 sec (0 allocations: 0 byte, 0.0% gc time)
calc_Mellell!: 0.001775 sec (0 allocations: 0 byte, 0.0% gc time)
  t0 :  0.00042 sec (0 allocations: 0 byte, 0.0% gc time)
  tm2 : 0.016639 sec (0 allocations: 0 byte, 0.0% gc time)
  tm2s: 0.000357 sec (0 allocations: 0 byte, 0.0% gc time)
  tm4 : 0.043496 sec (0 allocations: 0 byte, 0.0% gc time)
  tp2 : 0.0 sec (0 allocations: 0 byte, 0.0% gc time)
  tp2s: 0.0 sec (0 allocations: 0 byte, 0.0% gc time)
  tp4 : 0.0 sec (0 allocations: 0 byte, 0.0% gc time)
calc_wtdll!:   0.06155 sec (1.344 k allocations: 147.0 KB, 0.0% gc time)
calc_wljj!:    0.005014 sec (6 allocations: 96 byte, 0.0% gc time)
mult_prefac!:  0.0 sec (0 allocations: 0 byte, 0.0% gc time)
convert:       0.0 sec (0 allocations: 0 byte, 0.0% gc time)
write:         0.006754 sec (0 allocations: 0 byte, 0.0% gc time)
test_rand_2f1: 0.0 sec (0 allocations: 0 byte, 0.0% gc time)
Closing outfile out/Ml21-cache.bin...   0.003062 seconds
  0.000248 seconds (52 allocations: 28.297 KiB)
make_phi():   0.001703 seconds (8.20 k allocations: 238.016 KiB)
  0.013758 seconds (12.10 k allocations: 322.000 KiB)
tskip:       1.6e-5 sec (0 allocations: 0 byte, 0.0% gc time)
tread:       0.0021 sec (19 allocations: 2.172 KB, 0.0% gc time)
tmultphi:    0.00095 sec (0 allocations: 0 byte, 0.0% gc time)
tbrfft:      0.003442 sec (896 allocations: 42.0 KB, 0.0% gc time)
tmultprefac: 0.002641 sec (0 allocations: 0 byte, 0.0% gc time)
toutfunc:    0.004625 sec (10.528 k allocations: 206.5 KB, 0.0% gc time)
Testing R=0.9 ... passed
Calculating fmax: 
  dlrec    = 4
  dlrecRg1 = -4
  q=1.1, R=0.8:	  0.386486 seconds (113.61 k allocations: 15.166 MiB, 6.21% gc time)

  0.386779 seconds (113.66 k allocations: 15.200 MiB, 6.21% gc time)
ℓ = 1202
Δℓ = 4
ΔℓRg1 = -4
N = 1600
q = 1.1
kmin = 1.0e-5
kmax = 100000.00000000004
χ0 = 0.023029999999999995
RR = RR.tsv
ℓmax = ℓmax.bin
f21 = f21.bin
kmin = 1.0e-5
kmax = 100000.0
dlrec    = 4
dlrecRg1 = -4
Output size: 5741568 bytes = 0.005347251892089844 GiB
Output size: 51264 bytes = 4.774332046508789e-5 GiB
Reading 'out/F21EllCache'...   0.001001 seconds (267 allocations: 84.656 KiB)
ellmax: 1202
lmaxcache: 1202
fell[:,1,1] = Complex{Float64}[7.519068145690986e-120 - 1.8416405474382574e-135im, 7.541664537386155e-120 - 1.847175067190611e-135im]
ell 1202, elapsed: 2.002716064453125e-5
ell 1201, elapsed: 0.0004639625549316406
ell 1200, elapsed: 0.0005500316619873047
ell 1199, elapsed: 0.0005660057067871094
ell 1198, elapsed: 0.0005021095275878906
ell 1002, elapsed: 0.010250091552734375
ell 1001, elapsed: 0.000469207763671875
ell 1000, elapsed: 0.0005669593811035156
ell 999, elapsed: 0.0005559921264648438
ell 998, elapsed: 0.0005390644073486328
ell 902, elapsed: 0.005216836929321289
ell 901, elapsed: 0.00035500526428222656
ell 900, elapsed: 0.00034999847412109375
ell 899, elapsed: 0.0004391670227050781
ell 898, elapsed: 0.0005710124969482422
ell 802, elapsed: 0.005575895309448242
ell 801, elapsed: 0.0003628730773925781
ell 800, elapsed: 0.00034999847412109375
ell 799, elapsed: 0.0004417896270751953
ell 798, elapsed: 0.0005447864532470703
ell 702, elapsed: 0.005334138870239258
ell 701, elapsed: 0.0003590583801269531
ell 700, elapsed: 0.0003490447998046875
ell 699, elapsed: 0.0003528594970703125
ell 698, elapsed: 0.00041604042053222656
ell 602, elapsed: 0.005269050598144531
ell 601, elapsed: 0.0004658699035644531
ell 600, elapsed: 0.0004870891571044922
ell 599, elapsed: 0.0003490447998046875
ell 598, elapsed: 0.00047016143798828125
ell 502, elapsed: 0.005527019500732422
ell 501, elapsed: 0.0005249977111816406
ell 500, elapsed: 0.00045418739318847656
ell 499, elapsed: 0.0004899501800537109
ell 498, elapsed: 0.0004658699035644531
ell 402, elapsed: 0.005295991897583008
ell 401, elapsed: 0.0003669261932373047
ell 400, elapsed: 0.0004868507385253906
ell 399, elapsed: 0.00046515464782714844
ell 398, elapsed: 0.0004401206970214844
ell 302, elapsed: 0.004792928695678711
ell 301, elapsed: 0.0004439353942871094
ell 300, elapsed: 0.0005550384521484375
ell 299, elapsed: 0.00047898292541503906
ell 298, elapsed: 0.0002868175506591797
ell 202, elapsed: 0.006350040435791016
ell 201, elapsed: 0.0003750324249267578
ell 200, elapsed: 0.0004930496215820312
ell 199, elapsed: 0.0004570484161376953
ell 198, elapsed: 0.0004730224609375
ell 152, elapsed: 0.002841949462890625
ell 151, elapsed: 0.0005071163177490234
ell 150, elapsed: 0.0005640983581542969
ell 149, elapsed: 0.0005469322204589844
ell 148, elapsed: 0.0005331039428710938
ell 127, elapsed: 0.001519918441772461
ell 126, elapsed: 0.0004990100860595703
ell 125, elapsed: 0.0004680156707763672
ell 124, elapsed: 0.0005049705505371094
ell 123, elapsed: 0.0004870891571044922
ell 114, elapsed: 0.0007910728454589844
ell 113, elapsed: 0.0004467964172363281
ell 112, elapsed: 0.000553131103515625
ell 111, elapsed: 0.0004630088806152344
ell 110, elapsed: 0.00034809112548828125
ell 102, elapsed: 0.0008730888366699219
ell 101, elapsed: 0.00045299530029296875
ell 100, elapsed: 0.0004999637603759766
ell 99, elapsed: 0.00034999847412109375
ell 98, elapsed: 0.00045800209045410156
ell 97, elapsed: 0.0006201267242431641
ell 96, elapsed: 0.0007538795471191406
ell 95, elapsed: 0.0005280971527099609
ell 94, elapsed: 0.0007369518280029297
ell 93, elapsed: 0.0004699230194091797
ell 92, elapsed: 0.0006639957427978516
ell 91, elapsed: 0.0005819797515869141
ell 90, elapsed: 0.0007319450378417969
ell 89, elapsed: 0.0006098747253417969
ell 88, elapsed: 0.0005578994750976562
ell 87, elapsed: 0.00046896934509277344
ell 86, elapsed: 0.0007221698760986328
ell 85, elapsed: 0.0004329681396484375
ell 84, elapsed: 0.0005850791931152344
ell 83, elapsed: 0.0005271434783935547
ell 82, elapsed: 0.0004661083221435547
ell 81, elapsed: 0.00038886070251464844
ell 80, elapsed: 0.0006320476531982422
ell 79, elapsed: 0.0005061626434326172
ell 78, elapsed: 0.0005719661712646484
ell 77, elapsed: 0.0006189346313476562
ell 76, elapsed: 0.00074005126953125
ell 75, elapsed: 0.0006191730499267578
ell 74, elapsed: 0.0005900859832763672
ell 73, elapsed: 0.00038814544677734375
ell 72, elapsed: 0.0006020069122314453
ell 71, elapsed: 0.0004949569702148438
ell 70, elapsed: 0.0005939006805419922
ell 69, elapsed: 0.0005061626434326172
ell 68, elapsed: 0.0004730224609375
ell 67, elapsed: 0.0004730224609375
ell 66, elapsed: 0.0007219314575195312
ell 65, elapsed: 0.0006210803985595703
ell 64, elapsed: 0.0005731582641601562
ell 63, elapsed: 0.00040411949157714844
ell 62, elapsed: 0.00067901611328125
ell 61, elapsed: 0.0005280971527099609
ell 60, elapsed: 0.0006480216979980469
ell 59, elapsed: 0.0003838539123535156
ell 58, elapsed: 0.00046896934509277344
ell 57, elapsed: 0.00038695335388183594
ell 56, elapsed: 0.00047707557678222656
ell 55, elapsed: 0.00039315223693847656
ell 54, elapsed: 0.0004680156707763672
ell 53, elapsed: 0.0003879070281982422
ell 52, elapsed: 0.0006809234619140625
ell 51, elapsed: 0.000431060791015625
ell 50, elapsed: 0.0004620552062988281
ell 49, elapsed: 0.0005412101745605469
ell 48, elapsed: 0.0007619857788085938
ell 47, elapsed: 0.0004889965057373047
ell 46, elapsed: 0.0005669593811035156
ell 45, elapsed: 0.0005309581756591797
ell 44, elapsed: 0.00047206878662109375
ell 43, elapsed: 0.0005140304565429688
ell 42, elapsed: 0.000720977783203125
ell 41, elapsed: 0.0006270408630371094
ell 40, elapsed: 0.0005350112915039062
ell 39, elapsed: 0.0005669593811035156
ell 38, elapsed: 0.0006470680236816406
ell 37, elapsed: 0.0004620552062988281
ell 36, elapsed: 0.0006461143493652344
ell 35, elapsed: 0.0005939006805419922
ell 34, elapsed: 0.0007309913635253906
ell 33, elapsed: 0.0005159378051757812
ell 32, elapsed: 0.0006008148193359375
ell 31, elapsed: 0.0005321502685546875
ell 30, elapsed: 0.0007278919219970703
ell 29, elapsed: 0.0004661083221435547
ell 28, elapsed: 0.0004661083221435547
ell 27, elapsed: 0.00055694580078125
ell 26, elapsed: 0.0005829334259033203
ell 25, elapsed: 0.00039196014404296875
ell 24, elapsed: 0.0006718635559082031
ell 23, elapsed: 0.0005128383636474609
ell 22, elapsed: 0.0004820823669433594
ell 21, elapsed: 0.0005669593811035156
ell 20, elapsed: 0.0007240772247314453
[...]
ell 789, elapsed: 0.0008490085601806641
ell 788, elapsed: 0.0008602142333984375
ell 782, elapsed: 0.0016260147094726562
ell 781, elapsed: 0.0008628368377685547
ell 780, elapsed: 0.0008580684661865234
ell 779, elapsed: 0.0008459091186523438
ell 778, elapsed: 0.0008540153503417969
ell 772, elapsed: 0.0019540786743164062
ell 771, elapsed: 0.0008220672607421875
ell 770, elapsed: 0.0008561611175537109
ell 769, elapsed: 0.0008540153503417969
ell 768, elapsed: 0.0008549690246582031
ell 762, elapsed: 0.0019249916076660156
ell 761, elapsed: 0.0008089542388916016
ell 760, elapsed: 0.0010619163513183594
ell 759, elapsed: 0.0008449554443359375
ell 758, elapsed: 0.0008521080017089844
ell 752, elapsed: 0.0018460750579833984
ell 751, elapsed: 0.0008158683776855469
ell 750, elapsed: 0.0008418560028076172
ell 749, elapsed: 0.0008449554443359375
ell 748, elapsed: 0.0008471012115478516
ell 742, elapsed: 0.0016169548034667969
ell 741, elapsed: 0.0008029937744140625
ell 740, elapsed: 0.0008039474487304688
ell 739, elapsed: 0.0007839202880859375
ell 738, elapsed: 0.0008499622344970703
ell 732, elapsed: 0.002051830291748047
ell 731, elapsed: 0.0008080005645751953
ell 730, elapsed: 0.0008499622344970703
ell 729, elapsed: 0.0008490085601806641
ell 728, elapsed: 0.0008490085601806641
ell 722, elapsed: 0.001992940902709961
ell 721, elapsed: 0.000823974609375
ell 720, elapsed: 0.0008420944213867188
ell 719, elapsed: 0.0008451938629150391
ell 718, elapsed: 0.0008490085601806641
ell 712, elapsed: 0.0020051002502441406
ell 711, elapsed: 0.000843048095703125
ell 710, elapsed: 0.0008490085601806641
ell 709, elapsed: 0.0008499622344970703
ell 708, elapsed: 0.0008549690246582031
ell 702, elapsed: 0.0019850730895996094
ell 701, elapsed: 0.0008640289306640625
ell 700, elapsed: 0.0008580684661865234
ell 699, elapsed: 0.0008509159088134766
ell 698, elapsed: 0.0008509159088134766
ell 692, elapsed: 0.0018570423126220703
ell 691, elapsed: 0.0008070468902587891
ell 690, elapsed: 0.0008490085601806641
ell 689, elapsed: 0.0008471012115478516
ell 688, elapsed: 0.0008490085601806641
ell 682, elapsed: 0.002009868621826172
ell 681, elapsed: 0.0008039474487304688
ell 680, elapsed: 0.0008480548858642578
ell 679, elapsed: 0.0008630752563476562
ell 678, elapsed: 0.0008521080017089844
ell 672, elapsed: 0.0018420219421386719
ell 671, elapsed: 0.00080108642578125
ell 670, elapsed: 0.000865936279296875
ell 669, elapsed: 0.0008280277252197266
ell 668, elapsed: 0.0008487701416015625
ell 662, elapsed: 0.0019211769104003906
ell 661, elapsed: 0.00080108642578125
ell 660, elapsed: 0.0008440017700195312
ell 659, elapsed: 0.0008471012115478516
ell 658, elapsed: 0.0008471012115478516
ell 652, elapsed: 0.0014111995697021484
ell 651, elapsed: 0.0006320476531982422
ell 650, elapsed: 0.0006308555603027344
ell 649, elapsed: 0.0006239414215087891
ell 648, elapsed: 0.0006320476531982422
ell 642, elapsed: 0.0011599063873291016
ell 641, elapsed: 0.0006260871887207031
ell 640, elapsed: 0.0007109642028808594
ell 639, elapsed: 0.0006299018859863281
ell 638, elapsed: 0.000640869140625
ell 632, elapsed: 0.0011708736419677734
ell 631, elapsed: 0.0006358623504638672
ell 630, elapsed: 0.000637054443359375
ell 629, elapsed: 0.0006289482116699219
ell 628, elapsed: 0.0006949901580810547
ell 622, elapsed: 0.0011780261993408203
ell 621, elapsed: 0.0006389617919921875
ell 620, elapsed: 0.0006308555603027344
ell 619, elapsed: 0.0006270408630371094
ell 618, elapsed: 0.0006361007690429688
ell 612, elapsed: 0.0012290477752685547
ell 611, elapsed: 0.0006380081176757812
ell 610, elapsed: 0.0006380081176757812
ell 609, elapsed: 0.0006279945373535156
ell 608, elapsed: 0.0006570816040039062
ell 602, elapsed: 0.001230001449584961
ell 601, elapsed: 0.0006830692291259766
ell 600, elapsed: 0.0010869503021240234
ell 599, elapsed: 0.0006020069122314453
ell 598, elapsed: 0.0006709098815917969
ell 592, elapsed: 0.0011820793151855469
ell 591, elapsed: 0.000637054443359375
ell 590, elapsed: 0.0006330013275146484
ell 589, elapsed: 0.0007910728454589844
ell 588, elapsed: 0.0008759498596191406
ell 582, elapsed: 0.0016188621520996094
ell 581, elapsed: 0.0008459091186523438
ell 580, elapsed: 0.0008380413055419922
ell 579, elapsed: 0.0008687973022460938
ell 578, elapsed: 0.0008389949798583984
ell 572, elapsed: 0.0016508102416992188
ell 571, elapsed: 0.0008699893951416016
ell 570, elapsed: 0.0008480548858642578
ell 569, elapsed: 0.000843048095703125
ell 568, elapsed: 0.0008537769317626953
ell 562, elapsed: 0.0016551017761230469
ell 561, elapsed: 0.0008499622344970703
ell 560, elapsed: 0.0008440017700195312
ell 559, elapsed: 0.0006999969482421875
ell 558, elapsed: 0.0006260871887207031
ell 552, elapsed: 0.0011909008026123047
ell 551, elapsed: 0.0006239414215087891
ell 550, elapsed: 0.0006248950958251953
ell 549, elapsed: 0.0006191730499267578
ell 548, elapsed: 0.0006611347198486328
ell 542, elapsed: 0.0016520023345947266
ell 541, elapsed: 0.0008490085601806641
ell 540, elapsed: 0.0008599758148193359
ell 539, elapsed: 0.0008509159088134766
ell 538, elapsed: 0.000823974609375
ell 532, elapsed: 0.001711130142211914
ell 531, elapsed: 0.0009100437164306641
ell 530, elapsed: 0.0009098052978515625
ell 529, elapsed: 0.0008459091186523438
ell 528, elapsed: 0.0008451938629150391
ell 522, elapsed: 0.0016629695892333984
ell 521, elapsed: 0.0008499622344970703
ell 520, elapsed: 0.0008580684661865234
ell 519, elapsed: 0.000843048095703125
ell 518, elapsed: 0.0008440017700195312
ell 512, elapsed: 0.00173187255859375
ell 511, elapsed: 0.0007181167602539062
ell 510, elapsed: 0.0007040500640869141
ell 509, elapsed: 0.0006351470947265625
ell 508, elapsed: 0.0006551742553710938
ell 502, elapsed: 0.001354217529296875
ell 501, elapsed: 0.0008599758148193359
ell 500, elapsed: 0.0007829666137695312
ell 499, elapsed: 0.0008029937744140625
ell 498, elapsed: 0.0007879734039306641
ell 492, elapsed: 0.0017061233520507812
ell 491, elapsed: 0.0007669925689697266
ell 490, elapsed: 0.0007860660552978516
ell 489, elapsed: 0.000762939453125
ell 488, elapsed: 0.0010459423065185547
ell 482, elapsed: 0.0012240409851074219
ell 481, elapsed: 0.0006561279296875
ell 480, elapsed: 0.0006270408630371094
ell 479, elapsed: 0.0006189346313476562
ell 478, elapsed: 0.0006232261657714844
ell 472, elapsed: 0.001157999038696289
ell 471, elapsed: 0.0006580352783203125
ell 470, elapsed: 0.0006349086761474609
ell 469, elapsed: 0.0006439685821533203
ell 468, elapsed: 0.0006361007690429688
ell 462, elapsed: 0.0011560916900634766
ell 461, elapsed: 0.0006661415100097656
ell 460, elapsed: 0.0006439685821533203
ell 459, elapsed: 0.0006508827209472656
ell 458, elapsed: 0.0006520748138427734
ell 452, elapsed: 0.0012099742889404297
ell 451, elapsed: 0.0006928443908691406
ell 450, elapsed: 0.0006759166717529297
ell 449, elapsed: 0.0006859302520751953
ell 448, elapsed: 0.000659942626953125
ell 442, elapsed: 0.0012021064758300781
ell 441, elapsed: 0.0007212162017822266
ell 440, elapsed: 0.0006268024444580078
ell 439, elapsed: 0.0006451606750488281
ell 438, elapsed: 0.0006451606750488281
ell 432, elapsed: 0.0011699199676513672
ell 431, elapsed: 0.0006511211395263672
ell 430, elapsed: 0.0006389617919921875
ell 429, elapsed: 0.0006139278411865234
ell 428, elapsed: 0.0006198883056640625
ell 422, elapsed: 0.0012061595916748047
ell 421, elapsed: 0.0006380081176757812
ell 420, elapsed: 0.0006480216979980469
ell 419, elapsed: 0.000637054443359375
ell 418, elapsed: 0.0006508827209472656
ell 412, elapsed: 0.001241922378540039
ell 411, elapsed: 0.0006480216979980469
ell 410, elapsed: 0.000659942626953125
ell 409, elapsed: 0.0006389617919921875
ell 408, elapsed: 0.0006511211395263672
ell 402, elapsed: 0.0012068748474121094
ell 401, elapsed: 0.0006699562072753906
ell 400, elapsed: 0.0006978511810302734
ell 399, elapsed: 0.0006239414215087891
ell 398, elapsed: 0.0006418228149414062
ell 392, elapsed: 0.0012230873107910156
ell 391, elapsed: 0.0006279945373535156
ell 390, elapsed: 0.0006499290466308594
ell 389, elapsed: 0.0006499290466308594
ell 388, elapsed: 0.0006279945373535156
ell 382, elapsed: 0.0011730194091796875
ell 381, elapsed: 0.000640869140625
ell 380, elapsed: 0.0007548332214355469
ell 379, elapsed: 0.0008358955383300781
ell 378, elapsed: 0.0009531974792480469
ell 372, elapsed: 0.0011169910430908203
ell 371, elapsed: 0.0006520748138427734
ell 370, elapsed: 0.0006351470947265625
ell 369, elapsed: 0.0006229877471923828
ell 368, elapsed: 0.0006279945373535156
ell 362, elapsed: 0.0012929439544677734
ell 361, elapsed: 0.0011141300201416016
ell 360, elapsed: 0.0007979869842529297
ell 359, elapsed: 0.0008521080017089844
ell 358, elapsed: 0.0007548332214355469
ell 352, elapsed: 0.0012772083282470703
ell 351, elapsed: 0.0009160041809082031
ell 350, elapsed: 0.0006330013275146484
ell 349, elapsed: 0.0006389617919921875
ell 348, elapsed: 0.0007429122924804688
ell 342, elapsed: 0.0013470649719238281
ell 341, elapsed: 0.0012378692626953125
ell 340, elapsed: 0.0008611679077148438
ell 339, elapsed: 0.0012509822845458984
ell 338, elapsed: 0.0008988380432128906
ell 332, elapsed: 0.0022401809692382812
ell 331, elapsed: 0.0008687973022460938
ell 330, elapsed: 0.0008580684661865234
ell 329, elapsed: 0.001199960708618164
ell 328, elapsed: 0.0008580684661865234
ell 322, elapsed: 0.0022249221801757812
ell 321, elapsed: 0.0011417865753173828
ell 320, elapsed: 0.001188039779663086
ell 319, elapsed: 0.0012030601501464844
ell 318, elapsed: 0.0008540153503417969
ell 312, elapsed: 0.0022690296173095703
ell 311, elapsed: 0.0008552074432373047
ell 310, elapsed: 0.0011141300201416016
ell 309, elapsed: 0.0008358955383300781
ell 308, elapsed: 0.0011589527130126953
ell 302, elapsed: 0.002087831497192383
ell 301, elapsed: 0.0008449554443359375
ell 300, elapsed: 0.0012459754943847656
ell 299, elapsed: 0.000823974609375
ell 298, elapsed: 0.001219034194946289
ell 292, elapsed: 0.0019078254699707031
ell 291, elapsed: 0.0008270740509033203
ell 290, elapsed: 0.0011458396911621094
ell 289, elapsed: 0.0008351802825927734
ell 288, elapsed: 0.0010981559753417969
ell 282, elapsed: 0.0018148422241210938
ell 281, elapsed: 0.0008401870727539062
ell 280, elapsed: 0.0011150836944580078
ell 279, elapsed: 0.0011420249938964844
ell 278, elapsed: 0.0008249282836914062
ell 272, elapsed: 0.0019490718841552734
ell 271, elapsed: 0.0009009838104248047
ell 270, elapsed: 0.001216888427734375
ell 269, elapsed: 0.0013310909271240234
ell 268, elapsed: 0.0008890628814697266
ell 262, elapsed: 0.002178192138671875
ell 261, elapsed: 0.0008740425109863281
ell 260, elapsed: 0.0012629032135009766
ell 259, elapsed: 0.0008680820465087891
ell 258, elapsed: 0.0012028217315673828
ell 252, elapsed: 0.002009868621826172
ell 251, elapsed: 0.0008761882781982422
ell 250, elapsed: 0.0011529922485351562
ell 249, elapsed: 0.0012199878692626953
ell 248, elapsed: 0.0010809898376464844
ell 242, elapsed: 0.0018990039825439453
ell 241, elapsed: 0.000885009765625
ell 240, elapsed: 0.0011639595031738281
ell 239, elapsed: 0.0008599758148193359
ell 238, elapsed: 0.0012240409851074219
ell 232, elapsed: 0.0019910335540771484
ell 231, elapsed: 0.0008761882781982422
ell 230, elapsed: 0.0011398792266845703
ell 229, elapsed: 0.0011029243469238281
ell 228, elapsed: 0.0011031627655029297
ell 222, elapsed: 0.0020110607147216797
ell 221, elapsed: 0.0008690357208251953
ell 220, elapsed: 0.0012090206146240234
ell 219, elapsed: 0.0008950233459472656
ell 218, elapsed: 0.0012240409851074219
ell 212, elapsed: 0.0018801689147949219
ell 211, elapsed: 0.0008749961853027344
ell 210, elapsed: 0.0011408329010009766
ell 209, elapsed: 0.0008189678192138672
ell 208, elapsed: 0.0008499622344970703
ell 202, elapsed: 0.0021598339080810547
ell 201, elapsed: 0.0008389949798583984
ell 200, elapsed: 0.0011708736419677734
ell 199, elapsed: 0.0009210109710693359
ell 198, elapsed: 0.0008490085601806641
ell 192, elapsed: 0.0018241405487060547
ell 191, elapsed: 0.00084686279296875
ell 190, elapsed: 0.0012319087982177734
ell 189, elapsed: 0.0008299350738525391
ell 188, elapsed: 0.0012040138244628906
ell 182, elapsed: 0.0018358230590820312
ell 181, elapsed: 0.0008211135864257812
ell 180, elapsed: 0.0010771751403808594
ell 179, elapsed: 0.0008740425109863281
ell 178, elapsed: 0.0011119842529296875
ell 172, elapsed: 0.001909017562866211
ell 171, elapsed: 0.0008509159088134766
ell 170, elapsed: 0.0011548995971679688
ell 169, elapsed: 0.0008308887481689453
ell 168, elapsed: 0.001135110855102539
ell 162, elapsed: 0.001968860626220703
ell 161, elapsed: 0.0008330345153808594
ell 160, elapsed: 0.001129150390625
ell 159, elapsed: 0.0008530616760253906
ell 158, elapsed: 0.0011141300201416016
ell 152, elapsed: 0.001934051513671875
ell 151, elapsed: 0.000885009765625
ell 150, elapsed: 0.0011839866638183594
ell 149, elapsed: 0.0008628368377685547
ell 148, elapsed: 0.0012099742889404297
ell 142, elapsed: 0.0019240379333496094
ell 141, elapsed: 0.0011210441589355469
ell 140, elapsed: 0.0009081363677978516
ell 139, elapsed: 0.0008471012115478516
ell 138, elapsed: 0.0011401176452636719
ell 132, elapsed: 0.0020449161529541016
ell 131, elapsed: 0.0008630752563476562
ell 130, elapsed: 0.0012149810791015625
ell 129, elapsed: 0.0013248920440673828
ell 128, elapsed: 0.0008630752563476562
ell 122, elapsed: 0.0018889904022216797
ell 121, elapsed: 0.0008630752563476562
ell 120, elapsed: 0.0012691020965576172
ell 119, elapsed: 0.0008950233459472656
ell 118, elapsed: 0.001155853271484375
ell 112, elapsed: 0.0018939971923828125
ell 111, elapsed: 0.0008559226989746094
ell 110, elapsed: 0.0008368492126464844
ell 109, elapsed: 0.0008440017700195312
ell 108, elapsed: 0.0008721351623535156
ell 102, elapsed: 0.0015990734100341797
ell 101, elapsed: 0.004858970642089844
ell 100, elapsed: 0.004784107208251953
ell 99, elapsed: 0.004639148712158203
ell 98, elapsed: 0.004549980163574219
ell 92, elapsed: 0.00754094123840332
ell 91, elapsed: 0.004475831985473633
ell 90, elapsed: 0.004896879196166992
ell 89, elapsed: 0.004680156707763672
ell 88, elapsed: 0.0045130252838134766
ell 82, elapsed: 0.0076520442962646484
ell 81, elapsed: 0.004678964614868164
ell 80, elapsed: 0.0048351287841796875
ell 79, elapsed: 0.0047419071197509766
ell 78, elapsed: 0.004752159118652344
ell 72, elapsed: 0.007883071899414062
ell 71, elapsed: 0.004647016525268555
ell 70, elapsed: 0.00504302978515625
ell 69, elapsed: 0.004828929901123047
ell 68, elapsed: 0.004673957824707031
ell 62, elapsed: 0.007505178451538086
ell 61, elapsed: 0.004446983337402344
ell 60, elapsed: 0.004658937454223633
ell 59, elapsed: 0.0048639774322509766
ell 58, elapsed: 0.004687070846557617
ell 52, elapsed: 0.0074920654296875
ell 51, elapsed: 0.004724025726318359
ell 50, elapsed: 0.004761934280395508
ell 49, elapsed: 0.0049169063568115234
ell 48, elapsed: 0.004908084869384766
ell 42, elapsed: 0.005031108856201172
ell 41, elapsed: 0.00347900390625
ell 40, elapsed: 0.0030231475830078125
ell 39, elapsed: 0.002521038055419922
ell 38, elapsed: 0.003036975860595703
ell 32, elapsed: 0.006314992904663086
ell 31, elapsed: 0.0035228729248046875
ell 30, elapsed: 0.002469778060913086
ell 29, elapsed: 0.003437042236328125
ell 28, elapsed: 0.0032050609588623047
ell 22, elapsed: 0.004998207092285156
ell 21, elapsed: 0.0032329559326171875
ell 20, elapsed: 0.0026128292083740234
ell 19, elapsed: 0.003445863723754883
ell 18, elapsed: 0.0035049915313720703
ell 12, elapsed: 0.005344867706298828
ell 11, elapsed: 0.003426074981689453
ell 10, elapsed: 0.0025191307067871094
ell 9, elapsed: 0.002534151077270508
ell 8, elapsed: 0.0037071704864501953
  0.783567 seconds (66.75 k allocations: 12.139 MiB)
elapsed: 0.0033919811248779297
step:          0.074636 sec (0 allocations: 0 byte, 0.0% gc time)
swapping:      0.000676 sec (0 allocations: 0 byte, 0.0% gc time)
calc_Mellell!: 0.032623 sec (0 allocations: 0 byte, 0.0% gc time)
  t0 :  0.009924 sec (0 allocations: 0 byte, 0.0% gc time)
  tm2 : 0.080369 sec (0 allocations: 0 byte, 0.0% gc time)
  tm2s: 0.008601 sec (0 allocations: 0 byte, 0.0% gc time)
  tm4 : 0.192856 sec (0 allocations: 0 byte, 0.0% gc time)
  tp2 : 0.0 sec (0 allocations: 0 byte, 0.0% gc time)
  tp2s: 0.0 sec (0 allocations: 0 byte, 0.0% gc time)
  tp4 : 0.0 sec (0 allocations: 0 byte, 0.0% gc time)
calc_wtdll!:   0.554316 sec (49.2 k allocations: 11.133 MB, 0.0% gc time)
calc_wljj!:    0.039182 sec (69 allocations: 1.078 KB, 0.0% gc time)
mult_prefac!:  0.0 sec (0 allocations: 0 byte, 0.0% gc time)
convert:       0.0 sec (0 allocations: 0 byte, 0.0% gc time)
write:         0.037604 sec (0 allocations: 0 byte, 0.0% gc time)
test_rand_2f1: 0.0 sec (0 allocations: 0 byte, 0.0% gc time)
Closing outfile out/MlCache/MlCache.bin...   0.000010 seconds
xi, l=0, nu=0:   0.442215 seconds (551.85 k allocations: 26.842 MiB)
xi, l=0, nu=-2:  0.002643 seconds (144 allocations: 149.562 KiB)
Created 'out/xi.tsv'.
  q=1.1, R=0.6:	  0.741105 seconds (291.08 k allocations: 38.895 MiB, 3.16% gc time)
  q=1.1, R=0.7:	  0.887825 seconds (304.75 k allocations: 40.996 MiB, 1.36% gc time)
  q=1.1, R=0.8:	  0.876348 seconds (299.14 k allocations: 40.132 MiB, 1.15% gc time)
  q=1.1, R=0.9:	  0.979436 seconds (293.57 k allocations: 39.286 MiB, 0.77% gc time)
  q=1.1, R=0.998:	 21.330415 seconds (10.67 M allocations: 823.453 MiB, 0.30% gc time)
  q=1.1, R=1.0:	  0.004091 seconds (10.24 k allocations: 768.375 KiB)

ℓ = 1000
Δℓ = 4
ΔℓRg1 = -4
N = 4096
q = 1.1
kmin = 1.0e-5
kmax = 1000.0
χ0 = 0.001
RR = RR.tsv
ℓmax = ℓmax.bin
f21 = f21.bin
kmin = 1.0e-5
kmax = 1000.0
dlrec    = 4
dlrecRg1 = -4
Output size: 1573632 bytes = 0.0014655590057373047 GiB
Output size: 786816 bytes = 0.0007327795028686523 GiB
Reading 'out/F21EllCache'...   0.001269 seconds (268 allocations: 533.531 KiB)
ellmax: 1002
lmaxcache: 1000
fell[:,1,1] = Complex{Float64}[1.7262928128202118e-224 - 4.2281979352226944e-240im, 1.7282693092099662e-224 - 4.233038955177176e-240im]
ell 1002, elapsed: 5.602836608886719e-5
ell 1001, elapsed: 0.0008130073547363281
ell 1000, elapsed: 0.0007500648498535156
ell 999, elapsed: 0.0051670074462890625
ell 998, elapsed: 0.005201101303100586
ell 44, elapsed: 0.6610870361328125
ell 43, elapsed: 0.00800180435180664
ell 42, elapsed: 0.007077932357788086
ell 41, elapsed: 0.005424976348876953
ell 40, elapsed: 0.006530046463012695
  0.708882 seconds (4.55 k allocations: 320.359 KiB)
elapsed: 0.007452964782714844
step:          0.658104 sec (0 allocations: 0 byte, 0.0% gc time)
swapping:      0.000582 sec (0 allocations: 0 byte, 0.0% gc time)
calc_Mellell!: 0.001419 sec (0 allocations: 0 byte, 0.0% gc time)
  t0 :  0.000417 sec (0 allocations: 0 byte, 0.0% gc time)
  tm2 : 0.011307 sec (0 allocations: 0 byte, 0.0% gc time)
  tm2s: 0.000304 sec (0 allocations: 0 byte, 0.0% gc time)
  tm4 : 0.03033 sec (0 allocations: 0 byte, 0.0% gc time)
  tp2 : 0.0 sec (0 allocations: 0 byte, 0.0% gc time)
  tp2s: 0.0 sec (0 allocations: 0 byte, 0.0% gc time)
  tp4 : 0.0 sec (0 allocations: 0 byte, 0.0% gc time)
calc_wtdll!:   0.042561 sec (480 allocations: 52.5 KB, 0.0% gc time)
calc_wljj!:    0.001133 sec (1 allocations: 16 byte, 0.0% gc time)
mult_prefac!:  0.0 sec (0 allocations: 0 byte, 0.0% gc time)
convert:       0.0 sec (0 allocations: 0 byte, 0.0% gc time)
write:         0.001011 sec (0 allocations: 0 byte, 0.0% gc time)
test_rand_2f1: 0.0 sec (0 allocations: 0 byte, 0.0% gc time)
Closing outfile out/MlCache/MlCache.bin...   0.001176 seconds
  0.529954 seconds (54 allocations: 67.203 KiB)
make_phi():   0.010191 seconds (80 allocations: 276.297 KiB)
  0.003255 seconds (108 allocations: 5.812 KiB)
tskip:       1.0e-6 sec (0 allocations: 0 byte, 0.0% gc time)
tread:       0.000671 sec (19 allocations: 1.312 KB, 0.0% gc time)
tmultphi:    0.000381 sec (0 allocations: 0 byte, 0.0% gc time)
tbrfft:      0.00117 sec (96 allocations: 4.5 KB, 0.0% gc time)
tmultprefac: 0.001011 sec (0 allocations: 0 byte, 0.0% gc time)
toutfunc:    0.000129 sec (0 allocations: 0 byte, 0.0% gc time)
Created 'out/wl42_jj00.tsv'.
Created 'out/wl42_jj02.tsv'.
   Testing TwoFAST tests passed 
