Julia Version 1.4.0-DEV.661
Commit f6b5e8ad58 (2019-12-24 15:13 UTC)
Platform Info:
  OS: Linux (x86_64-pc-linux-gnu)
  CPU: Intel(R) Xeon(R) Silver 4114 CPU @ 2.20GHz
  WORD_SIZE: 64
  LIBM: libopenlibm
  LLVM: libLLVM-8.0.1 (ORCJIT, skylake)
Environment:
  JULIA_DEPOT_PATH = ::/usr/local/share/julia

 Resolving package versions...
 Installed FFTW_jll ───────── v3.3.9+3
 Installed URIParser ──────── v0.4.0
 Installed MKL_jll ────────── v2019.0.117+0
 Installed BinDeps ────────── v1.0.0
 Installed FFTW ───────────── v1.2.0
 Installed SpecialFunctions ─ v0.8.0
 Installed AbstractAlgebra ── v0.7.1
 Installed AbstractFFTs ───── v0.5.0
 Installed Reexport ───────── v0.2.0
 Installed BinaryProvider ─── v0.5.8
 Installed IncGammaBeta ───── v0.1.0
 Installed IntelOpenMP_jll ── v2018.0.3+0
 Installed Nemo ───────────── v0.15.1
 Installed TwoFAST ────────── v0.1.0
  Updating `~/.julia/environments/v1.4/Project.toml`
  [0dd23c3e] + TwoFAST v0.1.0
  Updating `~/.julia/environments/v1.4/Manifest.toml`
  [c3fe647b] + AbstractAlgebra v0.7.1
  [621f4979] + AbstractFFTs v0.5.0
  [9e28174c] + BinDeps v1.0.0
  [b99e7846] + BinaryProvider v0.5.8
  [7a1cc6ca] + FFTW v1.2.0
  [f5851436] + FFTW_jll v3.3.9+3
  [5087d2c0] + IncGammaBeta v0.1.0
  [1d5cc7b8] + IntelOpenMP_jll v2018.0.3+0
  [856f044c] + MKL_jll v2019.0.117+0
  [2edaba10] + Nemo v0.15.1
  [189a3867] + Reexport v0.2.0
  [276daf66] + SpecialFunctions v0.8.0
  [0dd23c3e] + TwoFAST v0.1.0
  [30578b45] + URIParser v0.4.0
  [2a0f44e3] + Base64 
  [ade2ca70] + Dates 
  [8bb1440f] + DelimitedFiles 
  [8ba89e20] + Distributed 
  [b77e0a4c] + InteractiveUtils 
  [76f85450] + LibGit2 
  [8f399da3] + Libdl 
  [37e2e46d] + LinearAlgebra 
  [56ddb016] + Logging 
  [d6f4376e] + Markdown 
  [a63ad114] + Mmap 
  [44cfe95a] + Pkg 
  [de0858da] + Printf 
  [3fa0cd96] + REPL 
  [9a3f8284] + Random 
  [ea8e919c] + SHA 
  [9e88b42a] + Serialization 
  [6462fe0b] + Sockets 
  [2f01184e] + SparseArrays 
  [8dfed614] + Test 
  [cf7118a7] + UUIDs 
  [4ec0a83e] + Unicode 
  Building SpecialFunctions → `~/.julia/packages/SpecialFunctions/ne2iw/deps/build.log`
  Updating `/tmp/jl_dGb7pZ/Project.toml`
 [no changes]
  Updating `/tmp/jl_dGb7pZ/Manifest.toml`
 [no changes]
  Building FFTW ────────────→ `~/.julia/packages/FFTW/qqcBj/deps/build.log`
  Updating `/tmp/jl_mehcZo/Project.toml`
 [no changes]
  Updating `/tmp/jl_mehcZo/Manifest.toml`
 [no changes]
  Building Nemo ────────────→ `~/.julia/packages/Nemo/qzx0m/deps/build.log`
  Updating `/tmp/jl_pFuetQ/Project.toml`
 [no changes]
  Updating `/tmp/jl_pFuetQ/Manifest.toml`
 [no changes]
   Testing TwoFAST
 Installed Dierckx ─ v0.4.1
  Updating `/tmp/jl_ODBHi0/Project.toml`
  [39dd38d3] + Dierckx v0.4.1
  Updating `/tmp/jl_ODBHi0/Manifest.toml`
  [39dd38d3] + Dierckx v0.4.1
  Building Dierckx → `~/.julia/packages/Dierckx/9SY4A/deps/build.log`
  Updating `/tmp/jl_EH815l/Project.toml`
 [no changes]
  Updating `/tmp/jl_EH815l/Manifest.toml`
 [no changes]
Running sandbox
Status `/tmp/jl_ODBHi0/Project.toml`
  [39dd38d3] Dierckx v0.4.1
  [7a1cc6ca] FFTW v1.2.0
  [5087d2c0] IncGammaBeta v0.1.0
  [2edaba10] Nemo v0.15.1
  [276daf66] SpecialFunctions v0.8.0
  [0dd23c3e] TwoFAST v0.1.0
  [8bb1440f] DelimitedFiles 
  [37e2e46d] LinearAlgebra 
  [56ddb016] Logging 
  [8dfed614] Test 

Welcome to Nemo version 0.15.1

Nemo comes with absolutely no warranty whatsoever


Welcome to Nemo version 0.15.1

Nemo comes with absolutely no warranty whatsoever

Testing ξ(r), ℓ=0, ν=-1 ... passed
Testing ξ(r), ℓ=0, ν=0 ... passed
Testing ξ(r), ℓ=0, ν=1 ... passed
Testing ξ(r), ℓ=0, ν=2 ... passed
Testing ξ(r), ℓ=0, ν=3 ... passed
Testing ξ(r), ℓ=1, ν=0 ... passed
Testing ξ(r), ℓ=1, ν=1 ... passed
Testing ξ(r), ℓ=1, ν=2 ... passed
Testing ξ(r), ℓ=1, ν=3 ... passed
Testing ξ(r), ℓ=2, ν=-1 ... passed
Testing ξ(r), ℓ=2, ν=0 ... passed
Testing ξ(r), ℓ=2, ν=1 ... passed
Testing ξ(r), ℓ=2, ν=2 ... passed
Testing ξ(r), ℓ=2, ν=3 ... passed
Testing ξ(r), ℓ=3, ν=-1 ... passed
Testing ξ(r), ℓ=3, ν=0 ... passed
Testing ξ(r), ℓ=3, ν=1 ... passed
Testing ξ(r), ℓ=3, ν=2 ... passed
Testing ξ(r), ℓ=3, ν=3 ... passed
Testing ξ(r), ℓ=4, ν=-1 ... passed
Testing ξ(r), ℓ=4, ν=0 ... passed
Testing ξ(r), ℓ=4, ν=1 ... passed
Testing ξ(r), ℓ=4, ν=2 ... passed
Testing ξ(r), ℓ=4, ν=3 ... passed
Testing ξ(r) ... passed
Testing ξ′(r) ... passed
Testing ξ″(r) ... passed
Calculating fmax: 
  dlrec    = 4
  dlrecRg1 = -4
  q=1.1, R=1.1:	  4.657451 seconds (1.20 M allocations: 67.955 MiB, 0.71% gc time)

  4.693829 seconds (1.22 M allocations: 69.065 MiB, 0.70% gc time)
ℓ = 1202
Δℓ = 4
ΔℓRg1 = -4
N = 1600
q = 1.1
kmin = 1.0e-5
kmax = 100000.00000000004
χ0 = 0.023029999999999995
RR = RR.tsv
ℓmax = ℓmax.bin
f21 = f21.bin
kmin = 1.0e-5
kmax = 100000.0
dlrec    = 4
dlrecRg1 = -4
Output size: 5741568 bytes = 0.005347251892089844 GiB
Output size: 51264 bytes = 4.774332046508789e-5 GiB
Reading 'out/F21EllCache'...   0.501856 seconds (318.67 k allocations: 16.381 MiB)
ellmax: 1202
lmaxcache: 1202
fell[:,1,1] = Complex{Float64}[3.9583795592771634e-52 - 9.695233714158177e-68im, 3.990121772925759e-52 - 9.772979714843386e-68im]
ell 1202, elapsed: 8.296966552734375e-5
ell 1201, elapsed: 2.0807929039001465
ell 1200, elapsed: 0.0005710124969482422
ell 1199, elapsed: 0.0005459785461425781
ell 1198, elapsed: 0.0005559921264648438
ell 1002, elapsed: 0.009728193283081055
ell 1001, elapsed: 0.0005128383636474609
ell 1000, elapsed: 0.0004799365997314453
ell 999, elapsed: 0.0004799365997314453
ell 998, elapsed: 0.0004799365997314453
ell 902, elapsed: 0.00484919548034668
ell 901, elapsed: 0.0004911422729492188
ell 900, elapsed: 0.00047898292541503906
ell 899, elapsed: 0.0005009174346923828
ell 898, elapsed: 0.0004780292510986328
ell 802, elapsed: 0.004937887191772461
ell 801, elapsed: 0.0004909038543701172
ell 800, elapsed: 0.00047397613525390625
ell 799, elapsed: 0.00047397613525390625
ell 798, elapsed: 0.0004820823669433594
ell 702, elapsed: 0.004914045333862305
ell 701, elapsed: 0.0004940032958984375
ell 700, elapsed: 0.0004749298095703125
ell 699, elapsed: 0.000476837158203125
ell 698, elapsed: 0.0004711151123046875
ell 602, elapsed: 0.00492405891418457
ell 601, elapsed: 0.0005199909210205078
ell 600, elapsed: 0.0004899501800537109
ell 599, elapsed: 0.000492095947265625
ell 598, elapsed: 0.0004858970642089844
ell 502, elapsed: 0.004926919937133789
ell 501, elapsed: 0.0004949569702148438
ell 500, elapsed: 0.00047588348388671875
ell 499, elapsed: 0.0005249977111816406
ell 498, elapsed: 0.0004830360412597656
ell 402, elapsed: 0.004911899566650391
ell 401, elapsed: 0.0005037784576416016
ell 400, elapsed: 0.00047516822814941406
ell 399, elapsed: 0.0004761219024658203
ell 398, elapsed: 0.0004780292510986328
ell 302, elapsed: 0.004858970642089844
ell 301, elapsed: 0.0005030632019042969
ell 300, elapsed: 0.0004749298095703125
ell 299, elapsed: 0.00047707557678222656
ell 298, elapsed: 0.0004849433898925781
ell 202, elapsed: 0.004935026168823242
ell 201, elapsed: 0.0005152225494384766
ell 200, elapsed: 0.0004870891571044922
ell 199, elapsed: 0.00047898292541503906
ell 198, elapsed: 0.0004839897155761719
ell 152, elapsed: 0.002683877944946289
ell 151, elapsed: 0.0004868507385253906
ell 150, elapsed: 0.0004780292510986328
ell 149, elapsed: 0.00047707557678222656
ell 148, elapsed: 0.0005171298980712891
ell 127, elapsed: 0.0017099380493164062
ell 126, elapsed: 0.0004870891571044922
ell 125, elapsed: 0.0004830360412597656
ell 124, elapsed: 0.0004801750183105469
ell 123, elapsed: 0.0004799365997314453
ell 114, elapsed: 0.0008969306945800781
ell 113, elapsed: 0.0004799365997314453
ell 112, elapsed: 0.00048089027404785156
ell 111, elapsed: 0.00047898292541503906
ell 110, elapsed: 0.0005071163177490234
ell 102, elapsed: 0.0009489059448242188
ell 101, elapsed: 0.00047707557678222656
ell 100, elapsed: 0.00046706199645996094
ell 99, elapsed: 0.0004858970642089844
ell 98, elapsed: 0.0004761219024658203
ell 97, elapsed: 0.0005269050598144531
ell 96, elapsed: 0.0006089210510253906
ell 95, elapsed: 0.0005102157592773438
ell 94, elapsed: 0.0005910396575927734
ell 93, elapsed: 0.0005130767822265625
ell 92, elapsed: 0.0006108283996582031
ell 91, elapsed: 0.0005049705505371094
ell 90, elapsed: 0.0005879402160644531
ell 89, elapsed: 0.0005061626434326172
ell 88, elapsed: 0.0006029605865478516
ell 87, elapsed: 0.0005059242248535156
ell 86, elapsed: 0.0005948543548583984
ell 85, elapsed: 0.0005259513854980469
ell 84, elapsed: 0.0006010532379150391
ell 83, elapsed: 0.0005171298980712891
ell 82, elapsed: 0.0005960464477539062
ell 81, elapsed: 0.0005249977111816406
ell 80, elapsed: 0.0005970001220703125
ell 79, elapsed: 0.0005130767822265625
ell 78, elapsed: 0.0006189346313476562
ell 77, elapsed: 0.0005159378051757812
ell 76, elapsed: 0.0005998611450195312
ell 75, elapsed: 0.0005130767822265625
ell 74, elapsed: 0.0005960464477539062
ell 73, elapsed: 0.0005600452423095703
ell 72, elapsed: 0.0006430149078369141
ell 71, elapsed: 0.0005280971527099609
ell 70, elapsed: 0.0006020069122314453
ell 69, elapsed: 0.0005168914794921875
ell 68, elapsed: 0.0006079673767089844
ell 67, elapsed: 0.0005168914794921875
ell 66, elapsed: 0.0005891323089599609
ell 65, elapsed: 0.0005130767822265625
ell 64, elapsed: 0.0005908012390136719
ell 63, elapsed: 0.0005130767822265625
ell 62, elapsed: 0.0005950927734375
ell 61, elapsed: 0.0005137920379638672
ell 60, elapsed: 0.0006101131439208984
ell 59, elapsed: 0.0005159378051757812
ell 58, elapsed: 0.0006117820739746094
ell 57, elapsed: 0.0005140304565429688
ell 56, elapsed: 0.0006091594696044922
ell 55, elapsed: 0.0005159378051757812
ell 54, elapsed: 0.0005939006805419922
ell 53, elapsed: 0.0005071163177490234
ell 52, elapsed: 0.0006341934204101562
ell 51, elapsed: 0.0005879402160644531
ell 50, elapsed: 0.0006651878356933594
ell 49, elapsed: 0.0005400180816650391
ell 48, elapsed: 0.0006248950958251953
ell 47, elapsed: 0.0005180835723876953
ell 46, elapsed: 0.0005900859832763672
ell 45, elapsed: 0.0005068778991699219
ell 44, elapsed: 0.0006098747253417969
ell 43, elapsed: 0.0005240440368652344
ell 42, elapsed: 0.0006339550018310547
ell 41, elapsed: 0.0005779266357421875
ell 40, elapsed: 0.0005970001220703125
ell 39, elapsed: 0.0005071163177490234
ell 38, elapsed: 0.0006098747253417969
ell 37, elapsed: 0.0005218982696533203
ell 36, elapsed: 0.0006051063537597656
ell 35, elapsed: 0.0005190372467041016
ell 34, elapsed: 0.0006000995635986328
ell 33, elapsed: 0.0005230903625488281
ell 32, elapsed: 0.0006160736083984375
ell 31, elapsed: 0.0005249977111816406
ell 30, elapsed: 0.0005981922149658203
ell 29, elapsed: 0.0005071163177490234
ell 28, elapsed: 0.0005941390991210938
ell 27, elapsed: 0.0005121231079101562
ell 26, elapsed: 0.0005919933319091797
ell 25, elapsed: 0.0005159378051757812
ell 24, elapsed: 0.0006139278411865234
ell 23, elapsed: 0.0005071163177490234
ell 22, elapsed: 0.0006301403045654297
ell 21, elapsed: 0.0005660057067871094
ell 20, elapsed: 0.0005908012390136719
ell 19, elapsed: 0.0005180835723876953
ell 18, elapsed: 0.0006170272827148438
ell 17, elapsed: 0.0005168914794921875
ell 16, elapsed: 0.0005970001220703125
ell 15, elapsed: 0.0005068778991699219
ell 14, elapsed: 0.0005860328674316406
ell 13, elapsed: 0.0005090236663818359
ell 12, elapsed: 0.0005941390991210938
ell 11, elapsed: 0.0005359649658203125
ell 10, elapsed: 0.0005950927734375
ell 9, elapsed: 0.000514984130859375
ell 8, elapsed: 0.0005970001220703125
ell 7, elapsed: 0.0005130767822265625
ell 6, elapsed: 0.0005998611450195312
ell 5, elapsed: 0.0005078315734863281
ell 4, elapsed: 0.0006771087646484375
ell 3, elapsed: 0.0005128383636474609
ell 2, elapsed: 0.0005900859832763672
ell 1, elapsed: 0.0005090236663818359
ell 0, elapsed: 0.0005910396575927734
  2.913987 seconds (1.75 M allocations: 85.471 MiB, 0.84% gc time)
elapsed: 0.0006098747253417969
step:          0.804856 sec (402.549 k allocations: 20.272 MB, 0.0% gc time)
swapping:      0.000549 sec (0 allocations: 0 byte, 0.0% gc time)
calc_Mellell!: 0.494667 sec (296.399 k allocations: 14.958 MB, 0.0% gc time)
  t0 :  0.0 sec (0 allocations: 0 byte, 0.0% gc time)
  tm2 : 0.0 sec (0 allocations: 0 byte, 0.0% gc time)
  tm2s: 0.0 sec (0 allocations: 0 byte, 0.0% gc time)
  tm4 : 0.0 sec (0 allocations: 0 byte, 0.0% gc time)
  tp2 : 0.0 sec (0 allocations: 0 byte, 0.0% gc time)
  tp2s: 0.0 sec (0 allocations: 0 byte, 0.0% gc time)
  tp4 : 0.0 sec (0 allocations: 0 byte, 0.0% gc time)
calc_wtdll!:   0.903783 sec (525.859 k allocations: 26.376 MB, 2.72% gc time)
calc_wljj!:    0.003398 sec (6 allocations: 96 byte, 0.0% gc time)
mult_prefac!:  0.0 sec (0 allocations: 0 byte, 0.0% gc time)
convert:       0.0 sec (0 allocations: 0 byte, 0.0% gc time)
write:         0.005216 sec (0 allocations: 0 byte, 0.0% gc time)
test_rand_2f1: 0.0 sec (0 allocations: 0 byte, 0.0% gc time)
Closing outfile out/Ml21-cache.bin...   0.000137 seconds
  1.040564 seconds (8.66 k allocations: 420.969 KiB)
make_phi():   0.014156 seconds (8.20 k allocations: 238.016 KiB)
  0.213554 seconds (121.70 k allocations: 5.903 MiB)
tskip:       2.1e-5 sec (0 allocations: 0 byte, 0.0% gc time)
tread:       0.002571 sec (19 allocations: 2.172 KB, 0.0% gc time)
tmultphi:    0.040834 sec (26.022 k allocations: 1.338 MB, 0.0% gc time)
tbrfft:      0.004546 sec (896 allocations: 42.0 KB, 0.0% gc time)
tmultprefac: 0.003294 sec (0 allocations: 0 byte, 0.0% gc time)
toutfunc:    0.16222 sec (94.109 k allocations: 4.453 MB, 0.0% gc time)
Testing R=1.1 ... passed
Calculating fmax: 
  dlrec    = 4
  dlrecRg1 = -4
  q=1.1, R=1.0:	  0.001994 seconds (4.00 k allocations: 300.375 KiB)

  0.002196 seconds (4.04 k allocations: 335.062 KiB)
ℓ = 1202
Δℓ = 4
ΔℓRg1 = -4
N = 1600
q = 1.1
kmin = 1.0e-5
kmax = 100000.00000000004
χ0 = 0.023029999999999995
RR = RR.tsv
ℓmax = ℓmax.bin
f21 = f21.bin
kmin = 1.0e-5
kmax = 100000.0
dlrec    = 4
dlrecRg1 = -4
Output size: 61465536 bytes = 0.05724424123764038 GiB
Output size: 51264 bytes = 4.774332046508789e-5 GiB
Reading 'out/F21EllCache'...   0.001306 seconds (267 allocations: 84.656 KiB)
ellmax: 1202
lmaxcache: 1202
fell[:,1,1] = Complex{Float64}[809.6031528389767 - 1.9829558194077161e-13im, 0.0 + 0.0im]
ell 1202, elapsed: 2.5033950805664062e-5
ell 1201, elapsed: 0.012443065643310547
ell 1200, elapsed: 0.00034308433532714844
ell 1199, elapsed: 0.00028395652770996094
ell 1198, elapsed: 0.0002880096435546875
ell 1197, elapsed: 0.0002980232238769531
ell 1196, elapsed: 0.0002892017364501953
ell 1195, elapsed: 0.0003540515899658203
ell 1194, elapsed: 0.0002849102020263672
ell 1193, elapsed: 0.00034999847412109375
ell 1192, elapsed: 0.00028514862060546875
ell 1191, elapsed: 0.0003409385681152344
ell 1190, elapsed: 0.00028395652770996094
ell 1189, elapsed: 0.00043892860412597656
ell 1188, elapsed: 0.0003058910369873047
ell 1187, elapsed: 0.00034117698669433594
ell 1186, elapsed: 0.00028395652770996094
ell 1185, elapsed: 0.0003390312194824219
ell 1184, elapsed: 0.0002849102020263672
ell 1183, elapsed: 0.00034117698669433594
ell 1182, elapsed: 0.00028705596923828125
ell 1181, elapsed: 0.00034499168395996094
ell 1180, elapsed: 0.000286102294921875
ell 1179, elapsed: 0.00034689903259277344
ell 1178, elapsed: 0.00028395652770996094
ell 1177, elapsed: 0.00034308433532714844
ell 1176, elapsed: 0.00035190582275390625
ell 1175, elapsed: 0.00036907196044921875
ell 1174, elapsed: 0.0003070831298828125
ell 1173, elapsed: 0.0003769397735595703
ell 1172, elapsed: 0.0003001689910888672
ell 1171, elapsed: 0.00036406517028808594
ell 1170, elapsed: 0.0002989768981933594
ell 1169, elapsed: 0.0003559589385986328
ell 1168, elapsed: 0.0002961158752441406
ell 1167, elapsed: 0.0003490447998046875
ell 1166, elapsed: 0.0002970695495605469
ell 1165, elapsed: 0.0003719329833984375
ell 1164, elapsed: 0.00028586387634277344
ell 1163, elapsed: 0.0003440380096435547
ell 1162, elapsed: 0.0002989768981933594
ell 1161, elapsed: 0.0003612041473388672
ell 1160, elapsed: 0.0002961158752441406
ell 1159, elapsed: 0.0003600120544433594
ell 1158, elapsed: 0.0002961158752441406
ell 1157, elapsed: 0.00035881996154785156
ell 1156, elapsed: 0.0002980232238769531
ell 1155, elapsed: 0.0003681182861328125
ell 1154, elapsed: 0.00033211708068847656
ell 1153, elapsed: 0.0003647804260253906
ell 1152, elapsed: 0.0002880096435546875
ell 1151, elapsed: 0.00034499168395996094
ell 1150, elapsed: 0.00028705596923828125
ell 1149, elapsed: 0.0003418922424316406
ell 1148, elapsed: 0.0002830028533935547
ell 1147, elapsed: 0.00034689903259277344
ell 1146, elapsed: 0.0002880096435546875
ell 1145, elapsed: 0.00034499168395996094
ell 1144, elapsed: 0.0002830028533935547
ell 1143, elapsed: 0.00033593177795410156
ell 1142, elapsed: 0.00030803680419921875
ell 1141, elapsed: 0.00034499168395996094
ell 1140, elapsed: 0.0002830028533935547
ell 1139, elapsed: 0.00033783912658691406
ell 1138, elapsed: 0.0002980232238769531
ell 1137, elapsed: 0.00038909912109375
ell 1136, elapsed: 0.0003027915954589844
ell 1135, elapsed: 0.00035881996154785156
ell 1134, elapsed: 0.0002980232238769531
ell 1133, elapsed: 0.0003509521484375
ell 1132, elapsed: 0.0002880096435546875
ell 1131, elapsed: 0.0003440380096435547
ell 1130, elapsed: 0.00032019615173339844
ell 1129, elapsed: 0.0003540515899658203
ell 1128, elapsed: 0.00029397010803222656
ell 1127, elapsed: 0.0004181861877441406
ell 1126, elapsed: 0.0003540515899658203
ell 1125, elapsed: 0.00034809112548828125
ell 1124, elapsed: 0.0002830028533935547
ell 1123, elapsed: 0.00033211708068847656
ell 1122, elapsed: 0.0002830028533935547
ell 1121, elapsed: 0.0003330707550048828
ell 1120, elapsed: 0.0002818107604980469
ell 1119, elapsed: 0.0003650188446044922
ell 1118, elapsed: 0.0002849102020263672
ell 1117, elapsed: 0.00034117698669433594
ell 1116, elapsed: 0.0002989768981933594
ell 1115, elapsed: 0.00035500526428222656
ell 1114, elapsed: 0.0002930164337158203
ell 1113, elapsed: 0.0003490447998046875
ell 1112, elapsed: 0.0002930164337158203
ell 1111, elapsed: 0.00034689903259277344
ell 1110, elapsed: 0.00029206275939941406
ell 1109, elapsed: 0.0003509521484375
ell 1108, elapsed: 0.0002961158752441406
ell 1107, elapsed: 0.0003628730773925781
ell 1106, elapsed: 0.0002970695495605469
ell 1105, elapsed: 0.00035309791564941406
ell 1104, elapsed: 0.00029397010803222656
ell 1103, elapsed: 0.00034880638122558594
ell 1102, elapsed: 0.00029206275939941406
ell 1101, elapsed: 0.00034308433532714844
ell 1100, elapsed: 0.0002930164337158203
ell 1099, elapsed: 0.00034809112548828125
ell 1098, elapsed: 0.0002930164337158203
ell 1097, elapsed: 0.00035190582275390625
ell 1096, elapsed: 0.0003190040588378906
ell 1095, elapsed: 0.00035500526428222656
ell 1094, elapsed: 0.00029206275939941406
ell 1093, elapsed: 0.0003521442413330078
ell 1092, elapsed: 0.00029206275939941406
ell 1091, elapsed: 0.0003509521484375
ell 1090, elapsed: 0.00029206275939941406
ell 1089, elapsed: 0.00034880638122558594
ell 1088, elapsed: 0.00029206275939941406
ell 1087, elapsed: 0.0003490447998046875
ell 1086, elapsed: 0.0002968311309814453
ell 1085, elapsed: 0.0003509521484375
ell 1084, elapsed: 0.0003039836883544922
ell 1083, elapsed: 0.0003631114959716797
ell 1082, elapsed: 0.0002918243408203125
ell 1081, elapsed: 0.0003478527069091797
ell 1080, elapsed: 0.00029087066650390625
ell 1079, elapsed: 0.00034999847412109375
ell 1078, elapsed: 0.00029206275939941406
ell 1077, elapsed: 0.0003490447998046875
ell 1076, elapsed: 0.0002930164337158203
ell 1075, elapsed: 0.00034999847412109375
ell 1074, elapsed: 0.0002930164337158203
ell 1073, elapsed: 0.0003819465637207031
ell 1072, elapsed: 0.00030803680419921875
ell 1071, elapsed: 0.0003559589385986328
ell 1070, elapsed: 0.0002930164337158203
ell 1069, elapsed: 0.0003528594970703125
ell 1068, elapsed: 0.0002951622009277344
ell 1067, elapsed: 0.0003578662872314453
ell 1066, elapsed: 0.0002961158752441406
ell 1065, elapsed: 0.0003540515899658203
ell 1064, elapsed: 0.0002968311309814453
ell 1063, elapsed: 0.00035500526428222656
ell 1062, elapsed: 0.0003120899200439453
ell 1061, elapsed: 0.0003600120544433594
ell 1060, elapsed: 0.0002970695495605469
ell 1059, elapsed: 0.00035381317138671875
ell 1058, elapsed: 0.0003001689910888672
ell 1057, elapsed: 0.0003559589385986328
ell 1056, elapsed: 0.0002961158752441406
ell 1055, elapsed: 0.0003559589385986328
ell 1054, elapsed: 0.0002989768981933594
ell 1053, elapsed: 0.0003559589385986328
ell 1052, elapsed: 0.0002949237823486328
ell 1051, elapsed: 0.00035309791564941406
ell 1050, elapsed: 0.0003211498260498047
ell 1049, elapsed: 0.00035500526428222656
ell 1048, elapsed: 0.0002989768981933594
ell 1047, elapsed: 0.0003540515899658203
ell 1046, elapsed: 0.0002970695495605469
ell 1045, elapsed: 0.000354766845703125
ell 1044, elapsed: 0.00029587745666503906
ell 1043, elapsed: 0.00035691261291503906
ell 1042, elapsed: 0.0002970695495605469
ell 1041, elapsed: 0.0003571510314941406
ell 1040, elapsed: 0.00029778480529785156
ell 1039, elapsed: 0.0003788471221923828
ell 1038, elapsed: 0.0002999305725097656
ell 1037, elapsed: 0.0003559589385986328
ell 1036, elapsed: 0.0002970695495605469
ell 1035, elapsed: 0.0003559589385986328
ell 1034, elapsed: 0.0002970695495605469
ell 1033, elapsed: 0.00035500526428222656
ell 1032, elapsed: 0.0002949237823486328
ell 1031, elapsed: 0.00035691261291503906
ell 1030, elapsed: 0.00029587745666503906
ell 1029, elapsed: 0.0003528594970703125
ell 1028, elapsed: 0.0002970695495605469
ell 1027, elapsed: 0.00041103363037109375
ell 1026, elapsed: 0.0002980232238769531
ell 1025, elapsed: 0.00034999847412109375
ell 1024, elapsed: 0.00029206275939941406
ell 1023, elapsed: 0.0003521442413330078
ell 1022, elapsed: 0.00029587745666503906
ell 1021, elapsed: 0.00034999847412109375
ell 1020, elapsed: 0.0002951622009277344
ell 1019, elapsed: 0.0003459453582763672
ell 1018, elapsed: 0.00029206275939941406
ell 1017, elapsed: 0.0003509521484375
ell 1016, elapsed: 0.0003230571746826172
ell 1015, elapsed: 0.00035381317138671875
ell 1014, elapsed: 0.0002918243408203125
ell 1013, elapsed: 0.00034999847412109375
ell 1012, elapsed: 0.0002918243408203125
ell 1011, elapsed: 0.0003490447998046875
ell 1010, elapsed: 0.0002930164337158203
ell 1009, elapsed: 0.00035500526428222656
ell 1008, elapsed: 0.00029206275939941406
ell 1007, elapsed: 0.00034999847412109375
ell 1006, elapsed: 0.00029206275939941406
ell 1005, elapsed: 0.00034809112548828125
ell 1004, elapsed: 0.00041484832763671875
ell 1003, elapsed: 0.0004839897155761719
ell 1002, elapsed: 0.0003070831298828125
ell 1001, elapsed: 0.00034689903259277344
ell 1000, elapsed: 0.0002949237823486328
ell 999, elapsed: 0.0003540515899658203
ell 998, elapsed: 0.0002961158752441406
ell 997, elapsed: 0.00034999847412109375
ell 996, elapsed: 0.0002951622009277344
ell 995, elapsed: 0.0003650188446044922
ell 994, elapsed: 0.0003218650817871094
ell 993, elapsed: 0.0003590583801269531
ell 992, elapsed: 0.0002930164337158203
ell 991, elapsed: 0.0003540515899658203
ell 990, elapsed: 0.00029397010803222656
ell 989, elapsed: 0.0003979206085205078
ell 988, elapsed: 0.0003039836883544922
ell 987, elapsed: 0.0003528594970703125
ell 986, elapsed: 0.00029587745666503906
ell 985, elapsed: 0.0003490447998046875
ell 984, elapsed: 0.0002949237823486328
ell 983, elapsed: 0.00037217140197753906
ell 982, elapsed: 0.0002942085266113281
ell 981, elapsed: 0.00035500526428222656
ell 980, elapsed: 0.0002961158752441406
ell 979, elapsed: 0.00035190582275390625
ell 978, elapsed: 0.0002968311309814453
ell 977, elapsed: 0.0003509521484375
ell 976, elapsed: 0.0002951622009277344
ell 975, elapsed: 0.0003559589385986328
ell 974, elapsed: 0.00029587745666503906
ell 973, elapsed: 0.0003559589385986328
ell 972, elapsed: 0.0002949237823486328
ell 971, elapsed: 0.00038814544677734375
ell 970, elapsed: 0.00029397010803222656
ell 969, elapsed: 0.0003540515899658203
ell 968, elapsed: 0.0002989768981933594
ell 967, elapsed: 0.00034689903259277344
ell 966, elapsed: 0.0002880096435546875
ell 965, elapsed: 0.0003390312194824219
ell 964, elapsed: 0.0002868175506591797
ell 963, elapsed: 0.0003578662872314453
ell 962, elapsed: 0.00029587745666503906
ell 961, elapsed: 0.0003612041473388672
ell 960, elapsed: 0.000308990478515625
ell 959, elapsed: 0.0003540515899658203
ell 958, elapsed: 0.00028705596923828125
ell 957, elapsed: 0.0003409385681152344
ell 956, elapsed: 0.0002841949462890625
ell 955, elapsed: 0.0003502368927001953
ell 954, elapsed: 0.00029087066650390625
ell 953, elapsed: 0.0003490447998046875
ell 952, elapsed: 0.00028896331787109375
ell 951, elapsed: 0.00034999847412109375
ell 950, elapsed: 0.00028896331787109375
ell 949, elapsed: 0.00034308433532714844
ell 948, elapsed: 0.0003159046173095703
ell 947, elapsed: 0.0003490447998046875
ell 946, elapsed: 0.00047898292541503906
ell 945, elapsed: 0.0005159378051757812
ell 944, elapsed: 0.0002989768981933594
ell 943, elapsed: 0.0003490447998046875
ell 942, elapsed: 0.000598907470703125
ell 941, elapsed: 0.0007641315460205078
ell 940, elapsed: 0.0004551410675048828
ell 939, elapsed: 0.00035500526428222656
ell 938, elapsed: 0.0002899169921875
ell 937, elapsed: 0.00034689903259277344
ell 936, elapsed: 0.00028896331787109375
ell 935, elapsed: 0.0003440380096435547
ell 934, elapsed: 0.0002911090850830078
ell 933, elapsed: 0.0003528594970703125
ell 932, elapsed: 0.00029921531677246094
ell 931, elapsed: 0.00035881996154785156
ell 930, elapsed: 0.00028896331787109375
ell 929, elapsed: 0.0003688335418701172
ell 928, elapsed: 0.0003101825714111328
ell 927, elapsed: 0.0003619194030761719
ell 926, elapsed: 0.0002949237823486328
ell 925, elapsed: 0.00035190582275390625
ell 924, elapsed: 0.0002951622009277344
ell 923, elapsed: 0.00035500526428222656
ell 922, elapsed: 0.0002970695495605469
ell 921, elapsed: 0.00035691261291503906
ell 920, elapsed: 0.0002968311309814453
ell 919, elapsed: 0.00035691261291503906
ell 918, elapsed: 0.0002980232238769531
ell 917, elapsed: 0.00038313865661621094
ell 916, elapsed: 0.0003020763397216797
ell 915, elapsed: 0.0005090236663818359
ell 914, elapsed: 0.0003750324249267578
ell 913, elapsed: 0.00034999847412109375
ell 912, elapsed: 0.0002968311309814453
ell 911, elapsed: 0.0003490447998046875
ell 910, elapsed: 0.0002849102020263672
ell 909, elapsed: 0.00034809112548828125
ell 908, elapsed: 0.0002980232238769531
ell 907, elapsed: 0.0003809928894042969
ell 906, elapsed: 0.0002980232238769531
ell 905, elapsed: 0.0003578662872314453
ell 904, elapsed: 0.0002841949462890625
ell 903, elapsed: 0.0003418922424316406
ell 902, elapsed: 0.00029206275939941406
ell 901, elapsed: 0.0003540515899658203
ell 900, elapsed: 0.00029206275939941406
ell 899, elapsed: 0.00034809112548828125
ell 898, elapsed: 0.0002949237823486328
ell 897, elapsed: 0.00035190582275390625
ell 896, elapsed: 0.00029397010803222656
ell 895, elapsed: 0.0004189014434814453
ell 894, elapsed: 0.0002951622009277344
ell 893, elapsed: 0.0003390312194824219
ell 892, elapsed: 0.00028204917907714844
ell 891, elapsed: 0.0003440380096435547
ell 890, elapsed: 0.0002830028533935547
ell 889, elapsed: 0.0003459453582763672
ell 888, elapsed: 0.0002830028533935547
ell 887, elapsed: 0.0003440380096435547
ell 886, elapsed: 0.0002849102020263672
ell 885, elapsed: 0.0003421306610107422
ell 884, elapsed: 0.0002830028533935547
ell 883, elapsed: 0.0004000663757324219
ell 882, elapsed: 0.0002970695495605469
ell 881, elapsed: 0.00034999847412109375
ell 880, elapsed: 0.0002930164337158203
ell 879, elapsed: 0.00035190582275390625
ell 878, elapsed: 0.00029206275939941406
ell 877, elapsed: 0.0003528594970703125
ell 876, elapsed: 0.0002911090850830078
ell 875, elapsed: 0.00035500526428222656
ell 874, elapsed: 0.0002930164337158203
ell 873, elapsed: 0.0003459453582763672
ell 872, elapsed: 0.0003190040588378906
ell 871, elapsed: 0.0003540515899658203
ell 870, elapsed: 0.00029206275939941406
ell 869, elapsed: 0.00036215782165527344
ell 868, elapsed: 0.0002930164337158203
ell 867, elapsed: 0.00035190582275390625
ell 866, elapsed: 0.0002930164337158203
ell 865, elapsed: 0.0003571510314941406
ell 864, elapsed: 0.00029397010803222656
ell 863, elapsed: 0.0003490447998046875
ell 862, elapsed: 0.00029206275939941406
ell 861, elapsed: 0.00035309791564941406
ell 860, elapsed: 0.0003108978271484375
ell 859, elapsed: 0.00035381317138671875
ell 858, elapsed: 0.0002918243408203125
ell 857, elapsed: 0.0003490447998046875
ell 856, elapsed: 0.00029587745666503906
ell 855, elapsed: 0.00035500526428222656
ell 854, elapsed: 0.00029397010803222656
ell 853, elapsed: 0.0003490447998046875
ell 852, elapsed: 0.00030493736267089844
ell 851, elapsed: 0.0003628730773925781
ell 850, elapsed: 0.0002999305725097656
ell 849, elapsed: 0.00039315223693847656
ell 848, elapsed: 0.0002989768981933594
ell 847, elapsed: 0.0003650188446044922
ell 846, elapsed: 0.0003001689910888672
ell 845, elapsed: 0.0003571510314941406
ell 844, elapsed: 0.00030112266540527344
ell 843, elapsed: 0.0003578662872314453
ell 842, elapsed: 0.0002911090850830078
ell 841, elapsed: 0.0003440380096435547
ell 840, elapsed: 0.00029015541076660156
ell 839, elapsed: 0.00034809112548828125
ell 838, elapsed: 0.00031280517578125
ell 837, elapsed: 0.00034999847412109375
ell 836, elapsed: 0.0002880096435546875
ell 835, elapsed: 0.00034689903259277344
ell 834, elapsed: 0.00029087066650390625
ell 833, elapsed: 0.00035309791564941406
ell 832, elapsed: 0.0002880096435546875
ell 831, elapsed: 0.00034689903259277344
ell 830, elapsed: 0.00029015541076660156
ell 829, elapsed: 0.0003490447998046875
ell 828, elapsed: 0.00029087066650390625
ell 827, elapsed: 0.0003800392150878906
ell 826, elapsed: 0.0002911090850830078
ell 825, elapsed: 0.00035500526428222656
ell 824, elapsed: 0.00029206275939941406
ell 823, elapsed: 0.00035309791564941406
ell 822, elapsed: 0.00029087066650390625
ell 821, elapsed: 0.00034499168395996094
ell 820, elapsed: 0.00029397010803222656
ell 819, elapsed: 0.0003490447998046875
ell 818, elapsed: 0.0002918243408203125
ell 817, elapsed: 0.00034999847412109375
ell 816, elapsed: 0.00029087066650390625
ell 815, elapsed: 0.0004029273986816406
ell 814, elapsed: 0.00029206275939941406
ell 813, elapsed: 0.00036597251892089844
ell 812, elapsed: 0.0002980232238769531
ell 811, elapsed: 0.0003540515899658203
ell 810, elapsed: 0.0002980232238769531
ell 809, elapsed: 0.0003578662872314453
ell 808, elapsed: 0.0002999305725097656
ell 807, elapsed: 0.0003578662872314453
ell 806, elapsed: 0.0002911090850830078
ell 805, elapsed: 0.00034999847412109375
ell 804, elapsed: 0.00030994415283203125
ell 803, elapsed: 0.0003559589385986328
ell 802, elapsed: 0.00029087066650390625
ell 801, elapsed: 0.00034689903259277344
ell 800, elapsed: 0.00029206275939941406
ell 799, elapsed: 0.0003490447998046875
ell 798, elapsed: 0.00029087066650390625
ell 797, elapsed: 0.0003509521484375
ell 796, elapsed: 0.0002930164337158203
ell 795, elapsed: 0.0003521442413330078
ell 794, elapsed: 0.0002942085266113281
ell 793, elapsed: 0.0003821849822998047
ell 792, elapsed: 0.0002949237823486328
ell 791, elapsed: 0.00035190582275390625
ell 790, elapsed: 0.0002918243408203125
ell 789, elapsed: 0.00034618377685546875
ell 788, elapsed: 0.0002899169921875
ell 787, elapsed: 0.00034999847412109375
ell 786, elapsed: 0.00029087066650390625
ell 785, elapsed: 0.0003521442413330078
ell 784, elapsed: 0.0002930164337158203
ell 783, elapsed: 0.00034880638122558594
ell 782, elapsed: 0.0003101825714111328
ell 781, elapsed: 0.00034999847412109375
ell 780, elapsed: 0.00028896331787109375
ell 779, elapsed: 0.00034499168395996094
ell 778, elapsed: 0.0002911090850830078
ell 777, elapsed: 0.00034880638122558594
ell 776, elapsed: 0.00029397010803222656
ell 775, elapsed: 0.00035309791564941406
ell 774, elapsed: 0.0002899169921875
ell 773, elapsed: 0.00035190582275390625
ell 772, elapsed: 0.0002892017364501953
ell 771, elapsed: 0.0003578662872314453
ell 770, elapsed: 0.0003008842468261719
ell 769, elapsed: 0.0003750324249267578
ell 768, elapsed: 0.0003039836883544922
ell 767, elapsed: 0.0003609657287597656
ell 766, elapsed: 0.00030112266540527344
ell 765, elapsed: 0.0003609657287597656
ell 764, elapsed: 0.0002989768981933594
ell 763, elapsed: 0.0003719329833984375
ell 762, elapsed: 0.00030303001403808594
ell 761, elapsed: 0.00037097930908203125
ell 760, elapsed: 0.0003330707550048828
ell 759, elapsed: 0.0003790855407714844
ell 758, elapsed: 0.0003020763397216797
ell 757, elapsed: 0.0003600120544433594
ell 756, elapsed: 0.0002970695495605469
ell 755, elapsed: 0.0003619194030761719
ell 754, elapsed: 0.0003039836883544922
ell 753, elapsed: 0.0003631114959716797
ell 752, elapsed: 0.0002970695495605469
ell 751, elapsed: 0.0003650188446044922
ell 750, elapsed: 0.0002989768981933594
ell 749, elapsed: 0.0003879070281982422
ell 748, elapsed: 0.0003001689910888672
ell 747, elapsed: 0.0003600120544433594
ell 746, elapsed: 0.0002989768981933594
ell 745, elapsed: 0.0003631114959716797
ell 744, elapsed: 0.0002970695495605469
ell 743, elapsed: 0.0003688335418701172
ell 742, elapsed: 0.00029921531677246094
ell 741, elapsed: 0.0003669261932373047
ell 740, elapsed: 0.0003001689910888672
ell 739, elapsed: 0.0003669261932373047
ell 738, elapsed: 0.00031185150146484375
ell 737, elapsed: 0.0003540515899658203
ell 736, elapsed: 0.0002970695495605469
ell 735, elapsed: 0.0003490447998046875
ell 734, elapsed: 0.00029206275939941406
ell 733, elapsed: 0.00034999847412109375
ell 732, elapsed: 0.0002930164337158203
ell 731, elapsed: 0.00035500526428222656
ell 730, elapsed: 0.0003070831298828125
ell 729, elapsed: 0.00036787986755371094
ell 728, elapsed: 0.00030517578125
ell 727, elapsed: 0.00039005279541015625
ell 726, elapsed: 0.0003008842468261719
ell 725, elapsed: 0.0003600120544433594
ell 724, elapsed: 0.0002999305725097656
ell 723, elapsed: 0.0003619194030761719
ell 722, elapsed: 0.0003020763397216797
ell 721, elapsed: 0.00036406517028808594
ell 720, elapsed: 0.00029778480529785156
ell 719, elapsed: 0.0003628730773925781
ell 718, elapsed: 0.0002989768981933594
ell 717, elapsed: 0.0003609657287597656
ell 716, elapsed: 0.0003299713134765625
ell 715, elapsed: 0.0003681182861328125
ell 714, elapsed: 0.0003008842468261719
ell 713, elapsed: 0.0003609657287597656
ell 712, elapsed: 0.00030112266540527344
ell 711, elapsed: 0.0003712177276611328
ell 710, elapsed: 0.0002970695495605469
ell 709, elapsed: 0.00035500526428222656
ell 708, elapsed: 0.00029206275939941406
ell 707, elapsed: 0.00035691261291503906
ell 706, elapsed: 0.00029206275939941406
ell 705, elapsed: 0.00035309791564941406
ell 704, elapsed: 0.0003039836883544922
ell 703, elapsed: 0.00034999847412109375
ell 702, elapsed: 0.00029206275939941406
ell 701, elapsed: 0.00035881996154785156
ell 700, elapsed: 0.0002970695495605469
ell 699, elapsed: 0.00035500526428222656
ell 698, elapsed: 0.0002961158752441406
ell 697, elapsed: 0.0003581047058105469
ell 696, elapsed: 0.0002968311309814453
ell 695, elapsed: 0.0003561973571777344
ell 694, elapsed: 0.0002818107604980469
ell 693, elapsed: 0.0003790855407714844
ell 692, elapsed: 0.0003020763397216797
ell 691, elapsed: 0.0003681182861328125
ell 690, elapsed: 0.00030612945556640625
ell 689, elapsed: 0.00036716461181640625
ell 688, elapsed: 0.0002980232238769531
ell 687, elapsed: 0.0003619194030761719
ell 686, elapsed: 0.0002980232238769531
ell 685, elapsed: 0.0003619194030761719
ell 684, elapsed: 0.00030303001403808594
ell 683, elapsed: 0.0003619194030761719
ell 682, elapsed: 0.0003299713134765625
ell 681, elapsed: 0.0003650188446044922
ell 680, elapsed: 0.0002999305725097656
ell 679, elapsed: 0.0003609657287597656
ell 678, elapsed: 0.0002999305725097656
ell 677, elapsed: 0.0003609657287597656
ell 676, elapsed: 0.00030112266540527344
ell 675, elapsed: 0.0003581047058105469
ell 674, elapsed: 0.0003001689910888672
ell 673, elapsed: 0.0006020069122314453
ell 672, elapsed: 0.0006768703460693359
ell 671, elapsed: 0.0006339550018310547
ell 670, elapsed: 0.0003070831298828125
ell 669, elapsed: 0.0003619194030761719
ell 668, elapsed: 0.0002899169921875
ell 667, elapsed: 0.0003540515899658203
ell 666, elapsed: 0.0002970695495605469
ell 665, elapsed: 0.0003578662872314453
ell 664, elapsed: 0.0002911090850830078
ell 663, elapsed: 0.000392913818359375
ell 662, elapsed: 0.0002911090850830078
ell 661, elapsed: 0.0003600120544433594
ell 660, elapsed: 0.00030112266540527344
ell 659, elapsed: 0.00036907196044921875
ell 658, elapsed: 0.0002970695495605469
ell 657, elapsed: 0.0003521442413330078
ell 656, elapsed: 0.0002930164337158203
ell 655, elapsed: 0.0003561973571777344
ell 654, elapsed: 0.00029397010803222656
ell 653, elapsed: 0.00035691261291503906
ell 652, elapsed: 0.00030303001403808594
ell 651, elapsed: 0.0006160736083984375
ell 650, elapsed: 0.00047206878662109375
ell 649, elapsed: 0.0005571842193603516
ell 648, elapsed: 0.00046896934509277344
ell 647, elapsed: 0.0005519390106201172
ell 646, elapsed: 0.00046896934509277344
ell 645, elapsed: 0.0005609989166259766
ell 644, elapsed: 0.0004780292510986328
ell 643, elapsed: 0.0005741119384765625
ell 642, elapsed: 0.00046706199645996094
ell 641, elapsed: 0.0005571842193603516
ell 640, elapsed: 0.00047087669372558594
ell 639, elapsed: 0.0005528926849365234
ell 638, elapsed: 0.00046706199645996094
ell 637, elapsed: 0.0005750656127929688
ell 636, elapsed: 0.00046706199645996094
ell 635, elapsed: 0.0005609989166259766
ell 634, elapsed: 0.00046515464782714844
ell 633, elapsed: 0.0005609989166259766
ell 632, elapsed: 0.0004680156707763672
ell 631, elapsed: 0.0005559921264648438
ell 630, elapsed: 0.00047779083251953125
ell 629, elapsed: 0.0005571842193603516
ell 628, elapsed: 0.0004668235778808594
ell 627, elapsed: 0.0005571842193603516
ell 626, elapsed: 0.00047397613525390625
ell 625, elapsed: 0.0005578994750976562
ell 624, elapsed: 0.00047206878662109375
ell 623, elapsed: 0.0005700588226318359
ell 622, elapsed: 0.0004839897155761719
ell 621, elapsed: 0.0005669593811035156
ell 620, elapsed: 0.0004649162292480469
ell 619, elapsed: 0.0005640983581542969
ell 618, elapsed: 0.0004680156707763672
ell 617, elapsed: 0.0005578994750976562
ell 616, elapsed: 0.00047016143798828125
ell 615, elapsed: 0.0005807876586914062
ell 614, elapsed: 0.00046706199645996094
ell 613, elapsed: 0.0005609989166259766
ell 612, elapsed: 0.00047087669372558594
ell 611, elapsed: 0.0005600452423095703
ell 610, elapsed: 0.00046896934509277344
ell 609, elapsed: 0.0005640983581542969
ell 608, elapsed: 0.0004830360412597656
ell 607, elapsed: 0.0005519390106201172
ell 606, elapsed: 0.0004658699035644531
ell 605, elapsed: 0.0005600452423095703
ell 604, elapsed: 0.0004699230194091797
ell 603, elapsed: 0.0005631446838378906
ell 602, elapsed: 0.00047206878662109375
ell 601, elapsed: 0.0006058216094970703
ell 600, elapsed: 0.0004680156707763672
ell 599, elapsed: 0.0005719661712646484
ell 598, elapsed: 0.00047707557678222656
ell 597, elapsed: 0.0005500316619873047
ell 596, elapsed: 0.00046896934509277344
ell 595, elapsed: 0.0005619525909423828
ell 594, elapsed: 0.00046896934509277344
ell 593, elapsed: 0.000579833984375
ell 592, elapsed: 0.00046706199645996094
ell 591, elapsed: 0.0005640983581542969
ell 590, elapsed: 0.00046896934509277344
ell 589, elapsed: 0.0005600452423095703
ell 588, elapsed: 0.0004680156707763672
ell 587, elapsed: 0.0005629062652587891
ell 586, elapsed: 0.0004868507385253906
ell 585, elapsed: 0.0005559921264648438
ell 584, elapsed: 0.0004680156707763672
ell 583, elapsed: 0.0005738735198974609
ell 582, elapsed: 0.00047278404235839844
ell 581, elapsed: 0.0005600452423095703
ell 580, elapsed: 0.0004658699035644531
ell 579, elapsed: 0.0006880760192871094
ell 578, elapsed: 0.00047016143798828125
ell 577, elapsed: 0.0005609989166259766
ell 576, elapsed: 0.00046896934509277344
ell 575, elapsed: 0.0005631446838378906
ell 574, elapsed: 0.00046896934509277344
ell 573, elapsed: 0.0005609989166259766
ell 572, elapsed: 0.0004799365997314453
ell 571, elapsed: 0.0005729198455810547
ell 570, elapsed: 0.00047087669372558594
ell 569, elapsed: 0.0005669593811035156
ell 568, elapsed: 0.00047206878662109375
ell 567, elapsed: 0.0005588531494140625
ell 566, elapsed: 0.0004661083221435547
ell 565, elapsed: 0.0005660057067871094
ell 564, elapsed: 0.0004818439483642578
ell 563, elapsed: 0.000701904296875
ell 562, elapsed: 0.0006608963012695312
ell 561, elapsed: 0.0008089542388916016
ell 560, elapsed: 0.0006740093231201172
ell 559, elapsed: 0.0008180141448974609
ell 558, elapsed: 0.0006430149078369141
ell 557, elapsed: 0.0007739067077636719
ell 556, elapsed: 0.0006442070007324219
ell 555, elapsed: 0.0007519721984863281
ell 554, elapsed: 0.0006608963012695312
ell 553, elapsed: 0.0007429122924804688
ell 552, elapsed: 0.0006198883056640625
ell 551, elapsed: 0.0007419586181640625
ell 550, elapsed: 0.0006170272827148438
ell 549, elapsed: 0.0007700920104980469
ell 548, elapsed: 0.0006251335144042969
ell 547, elapsed: 0.0007481575012207031
ell 546, elapsed: 0.00043392181396484375
ell 545, elapsed: 0.0004029273986816406
ell 544, elapsed: 0.00030994415283203125
ell 543, elapsed: 0.0003809928894042969
ell 542, elapsed: 0.0002980232238769531
ell 541, elapsed: 0.0003559589385986328
ell 540, elapsed: 0.0004830360412597656
ell 539, elapsed: 0.0007879734039306641
ell 538, elapsed: 0.0005269050598144531
ell 537, elapsed: 0.0007150173187255859
ell 536, elapsed: 0.0006182193756103516
ell 535, elapsed: 0.0007750988006591797
ell 534, elapsed: 0.0004990100860595703
ell 533, elapsed: 0.00035309791564941406
ell 532, elapsed: 0.0002841949462890625
ell 531, elapsed: 0.00034499168395996094
ell 530, elapsed: 0.0002810955047607422
ell 529, elapsed: 0.00037407875061035156
ell 528, elapsed: 0.00028395652770996094
ell 527, elapsed: 0.00034999847412109375
ell 526, elapsed: 0.00028395652770996094
ell 525, elapsed: 0.0003368854522705078
ell 524, elapsed: 0.0002810955047607422
ell 523, elapsed: 0.0006511211395263672
ell 522, elapsed: 0.00041103363037109375
ell 521, elapsed: 0.00037097930908203125
ell 520, elapsed: 0.00030684471130371094
ell 519, elapsed: 0.00037097930908203125
ell 518, elapsed: 0.00030684471130371094
ell 517, elapsed: 0.00037097930908203125
ell 516, elapsed: 0.00030493736267089844
ell 515, elapsed: 0.000370025634765625
ell 514, elapsed: 0.00032401084899902344
ell 513, elapsed: 0.00037598609924316406
ell 512, elapsed: 0.0003249645233154297
ell 511, elapsed: 0.00037407875061035156
ell 510, elapsed: 0.0003120899200439453
ell 509, elapsed: 0.0003859996795654297
ell 508, elapsed: 0.00030994415283203125
ell 507, elapsed: 0.000370025634765625
ell 506, elapsed: 0.00030684471130371094
ell 505, elapsed: 0.0003750324249267578
ell 504, elapsed: 0.00045418739318847656
ell 503, elapsed: 0.0005118846893310547
ell 502, elapsed: 0.0003159046173095703
ell 501, elapsed: 0.00037789344787597656
ell 500, elapsed: 0.0003380775451660156
ell 499, elapsed: 0.0003769397735595703
ell 498, elapsed: 0.0003020763397216797
ell 497, elapsed: 0.00036787986755371094
ell 496, elapsed: 0.00030303001403808594
ell 495, elapsed: 0.00036597251892089844
ell 494, elapsed: 0.00030493736267089844
ell 493, elapsed: 0.0003979206085205078
ell 492, elapsed: 0.0003020763397216797
ell 491, elapsed: 0.0003688335418701172
ell 490, elapsed: 0.0003020763397216797
ell 489, elapsed: 0.0003581047058105469
ell 488, elapsed: 0.00030994415283203125
ell 487, elapsed: 0.00037407875061035156
ell 486, elapsed: 0.00030493736267089844
ell 485, elapsed: 0.0003662109375
ell 484, elapsed: 0.00030684471130371094
ell 483, elapsed: 0.0003669261932373047
ell 482, elapsed: 0.0003330707550048828
ell 481, elapsed: 0.0003800392150878906
ell 480, elapsed: 0.000308990478515625
ell 479, elapsed: 0.0003628730773925781
ell 478, elapsed: 0.0002961158752441406
ell 477, elapsed: 0.0003631114959716797
ell 476, elapsed: 0.0002968311309814453
ell 475, elapsed: 0.0003688335418701172
ell 474, elapsed: 0.00030112266540527344
ell 473, elapsed: 0.00036907196044921875
ell 472, elapsed: 0.0002980232238769531
ell 471, elapsed: 0.0003948211669921875
ell 470, elapsed: 0.0003349781036376953
ell 469, elapsed: 0.0003540515899658203
ell 468, elapsed: 0.00029587745666503906
ell 467, elapsed: 0.00041294097900390625
ell 466, elapsed: 0.0005328655242919922
ell 465, elapsed: 0.000720977783203125
ell 464, elapsed: 0.0003790855407714844
ell 463, elapsed: 0.0003600120544433594
ell 462, elapsed: 0.0003039836883544922
ell 461, elapsed: 0.0003600120544433594
ell 460, elapsed: 0.000286102294921875
ell 459, elapsed: 0.00035309791564941406
ell 458, elapsed: 0.00028586387634277344
ell 457, elapsed: 0.0003428459167480469
ell 456, elapsed: 0.00028586387634277344
ell 455, elapsed: 0.0003540515899658203
ell 454, elapsed: 0.000286102294921875
ell 453, elapsed: 0.00034809112548828125
ell 452, elapsed: 0.00028705596923828125
ell 451, elapsed: 0.00037407875061035156
ell 450, elapsed: 0.00028705596923828125
ell 449, elapsed: 0.0007648468017578125
ell 448, elapsed: 0.0006489753723144531
ell 447, elapsed: 0.0005619525909423828
ell 446, elapsed: 0.0002970695495605469
ell 445, elapsed: 0.00035190582275390625
ell 444, elapsed: 0.0003018379211425781
ell 443, elapsed: 0.0003669261932373047
ell 442, elapsed: 0.00030612945556640625
ell 441, elapsed: 0.00034999847412109375
ell 440, elapsed: 0.00028896331787109375
ell 439, elapsed: 0.0003669261932373047
ell 438, elapsed: 0.0002880096435546875
ell 437, elapsed: 0.0003559589385986328
ell 436, elapsed: 0.00028896331787109375
ell 435, elapsed: 0.00034999847412109375
ell 434, elapsed: 0.0002880096435546875
ell 433, elapsed: 0.0003559589385986328
ell 432, elapsed: 0.00028705596923828125
ell 431, elapsed: 0.0003960132598876953
ell 430, elapsed: 0.0002880096435546875
ell 429, elapsed: 0.0003612041473388672
ell 428, elapsed: 0.0002980232238769531
ell 427, elapsed: 0.00035500526428222656
ell 426, elapsed: 0.0002949237823486328
ell 425, elapsed: 0.00035309791564941406
ell 424, elapsed: 0.0002980232238769531
ell 423, elapsed: 0.00035309791564941406
ell 422, elapsed: 0.0003018379211425781
ell 421, elapsed: 0.0003590583801269531
ell 420, elapsed: 0.00029587745666503906
ell 419, elapsed: 0.00036597251892089844
ell 418, elapsed: 0.0002911090850830078
ell 417, elapsed: 0.0003559589385986328
ell 416, elapsed: 0.0002930164337158203
ell 415, elapsed: 0.0003528594970703125
ell 414, elapsed: 0.0003731250762939453
ell 413, elapsed: 0.0003800392150878906
ell 412, elapsed: 0.00038313865661621094
ell 411, elapsed: 0.0005650520324707031
ell 410, elapsed: 0.0006339550018310547
ell 409, elapsed: 0.0005590915679931641
ell 408, elapsed: 0.0003299713134765625
ell 407, elapsed: 0.00047206878662109375
ell 406, elapsed: 0.0005431175231933594
ell 405, elapsed: 0.0005731582641601562
ell 404, elapsed: 0.00039315223693847656
ell 403, elapsed: 0.0004749298095703125
ell 402, elapsed: 0.0004100799560546875
ell 401, elapsed: 0.0004801750183105469
ell 400, elapsed: 0.0005481243133544922
ell 399, elapsed: 0.0006160736083984375
ell 398, elapsed: 0.0005540847778320312
ell 397, elapsed: 0.0006170272827148438
ell 396, elapsed: 0.00039196014404296875
ell 395, elapsed: 0.0006709098815917969
ell 394, elapsed: 0.00044608116149902344
ell 393, elapsed: 0.00047397613525390625
ell 392, elapsed: 0.0003879070281982422
ell 391, elapsed: 0.0004730224609375
ell 390, elapsed: 0.000576019287109375
ell 389, elapsed: 0.0007450580596923828
ell 388, elapsed: 0.0005629062652587891
ell 387, elapsed: 0.0006668567657470703
ell 386, elapsed: 0.00046515464782714844
ell 385, elapsed: 0.0006878376007080078
ell 384, elapsed: 0.0005898475646972656
ell 383, elapsed: 0.0005741119384765625
ell 382, elapsed: 0.0005490779876708984
ell 381, elapsed: 0.0006289482116699219
ell 380, elapsed: 0.0003859996795654297
ell 379, elapsed: 0.0004630088806152344
ell 378, elapsed: 0.0005431175231933594
ell 377, elapsed: 0.0005929470062255859
ell 376, elapsed: 0.0003631114959716797
ell 375, elapsed: 0.0006928443908691406
ell 374, elapsed: 0.0005009174346923828
ell 373, elapsed: 0.0006418228149414062
ell 372, elapsed: 0.0004999637603759766
ell 371, elapsed: 0.0006799697875976562
ell 370, elapsed: 0.0004699230194091797
ell 369, elapsed: 0.00045800209045410156
ell 368, elapsed: 0.0005710124969482422
ell 367, elapsed: 0.0007419586181640625
ell 366, elapsed: 0.0004520416259765625
ell 365, elapsed: 0.0006680488586425781
ell 364, elapsed: 0.0006089210510253906
ell 363, elapsed: 0.0006229877471923828
ell 362, elapsed: 0.0006508827209472656
ell 361, elapsed: 0.0005121231079101562
ell 360, elapsed: 0.0005168914794921875
ell 359, elapsed: 0.0007338523864746094
ell 358, elapsed: 0.00045990943908691406
ell 357, elapsed: 0.000476837158203125
ell 356, elapsed: 0.0003879070281982422
ell 355, elapsed: 0.0006978511810302734
ell 354, elapsed: 0.00043892860412597656
ell 353, elapsed: 0.0004811286926269531
ell 352, elapsed: 0.0003829002380371094
ell 351, elapsed: 0.0005769729614257812
ell 350, elapsed: 0.0005218982696533203
ell 349, elapsed: 0.0006780624389648438
ell 348, elapsed: 0.0007081031799316406
ell 347, elapsed: 0.0005419254302978516
ell 346, elapsed: 0.0003960132598876953
ell 345, elapsed: 0.0004718303680419922
ell 344, elapsed: 0.0003719329833984375
ell 343, elapsed: 0.0006711483001708984
ell 342, elapsed: 0.00047707557678222656
ell 341, elapsed: 0.0006840229034423828
ell 340, elapsed: 0.0004749298095703125
ell 339, elapsed: 0.0005910396575927734
ell 338, elapsed: 0.0005161762237548828
ell 337, elapsed: 0.0006539821624755859
ell 336, elapsed: 0.0006308555603027344
ell 335, elapsed: 0.0007519721984863281
ell 334, elapsed: 0.0004761219024658203
ell 333, elapsed: 0.0006611347198486328
ell 332, elapsed: 0.0006029605865478516
ell 331, elapsed: 0.0007359981536865234
ell 330, elapsed: 0.0004367828369140625
ell 329, elapsed: 0.00046896934509277344
ell 328, elapsed: 0.0006239414215087891
ell 327, elapsed: 0.0005578994750976562
ell 326, elapsed: 0.0003800392150878906
ell 325, elapsed: 0.0004761219024658203
ell 324, elapsed: 0.0003859996795654297
ell 323, elapsed: 0.0006501674652099609
ell 322, elapsed: 0.0005240440368652344
ell 321, elapsed: 0.0004851818084716797
ell 320, elapsed: 0.0005450248718261719
ell 319, elapsed: 0.0005719661712646484
ell 318, elapsed: 0.0005450248718261719
ell 317, elapsed: 0.0006411075592041016
ell 316, elapsed: 0.0003879070281982422
ell 315, elapsed: 0.0006678104400634766
ell 314, elapsed: 0.0006091594696044922
ell 313, elapsed: 0.0007398128509521484
ell 312, elapsed: 0.0005037784576416016
ell 311, elapsed: 0.0006392002105712891
ell 310, elapsed: 0.000453948974609375
ell 309, elapsed: 0.0004849433898925781
ell 308, elapsed: 0.0005741119384765625
ell 307, elapsed: 0.0007359981536865234
ell 306, elapsed: 0.0005240440368652344
ell 305, elapsed: 0.0004780292510986328
ell 304, elapsed: 0.00046515464782714844
ell 303, elapsed: 0.0007250308990478516
ell 302, elapsed: 0.0005109310150146484
ell 301, elapsed: 0.0005881786346435547
ell 300, elapsed: 0.0005121231079101562
ell 299, elapsed: 0.0006730556488037109
ell 298, elapsed: 0.0005960464477539062
ell 297, elapsed: 0.0006358623504638672
ell 296, elapsed: 0.0005309581756591797
ell 295, elapsed: 0.0006539821624755859
ell 294, elapsed: 0.00036215782165527344
ell 293, elapsed: 0.00042700767517089844
ell 292, elapsed: 0.0003571510314941406
ell 291, elapsed: 0.0004398822784423828
ell 290, elapsed: 0.0003638267517089844
ell 289, elapsed: 0.0004341602325439453
ell 288, elapsed: 0.0003561973571777344
ell 287, elapsed: 0.00042510032653808594
ell 286, elapsed: 0.0003750324249267578
ell 285, elapsed: 0.00042819976806640625
ell 284, elapsed: 0.0003578662872314453
ell 283, elapsed: 0.0004329681396484375
ell 282, elapsed: 0.0003590583801269531
ell 281, elapsed: 0.0004360675811767578
ell 280, elapsed: 0.0003609657287597656
ell 279, elapsed: 0.000431060791015625
ell 278, elapsed: 0.0003559589385986328
ell 277, elapsed: 0.0004820823669433594
ell 276, elapsed: 0.0005741119384765625
ell 275, elapsed: 0.0007669925689697266
ell 274, elapsed: 0.0006568431854248047
ell 273, elapsed: 0.0007779598236083984
ell 272, elapsed: 0.0006380081176757812
ell 271, elapsed: 0.0007860660552978516
ell 270, elapsed: 0.0006430149078369141
ell 269, elapsed: 0.0007779598236083984
ell 268, elapsed: 0.0006411075592041016
ell 267, elapsed: 0.0007569789886474609
ell 266, elapsed: 0.0006520748138427734
ell 265, elapsed: 0.0007610321044921875
ell 264, elapsed: 0.0006577968597412109
ell 263, elapsed: 0.0007631778717041016
ell 262, elapsed: 0.0006318092346191406
ell 261, elapsed: 0.0007979869842529297
ell 260, elapsed: 0.0006442070007324219
ell 259, elapsed: 0.0007920265197753906
ell 258, elapsed: 0.0006439685821533203
ell 257, elapsed: 0.0007798671722412109
ell 256, elapsed: 0.0006968975067138672
ell 255, elapsed: 0.00078582763671875
ell 254, elapsed: 0.0006530284881591797
ell 253, elapsed: 0.0007510185241699219
ell 252, elapsed: 0.0006351470947265625
ell 251, elapsed: 0.0007638931274414062
ell 250, elapsed: 0.0006570816040039062
ell 249, elapsed: 0.0007569789886474609
ell 248, elapsed: 0.0006411075592041016
ell 247, elapsed: 0.0007660388946533203
ell 246, elapsed: 0.0006449222564697266
ell 245, elapsed: 0.0008020401000976562
ell 244, elapsed: 0.0006310939788818359
ell 243, elapsed: 0.0007600784301757812
ell 242, elapsed: 0.0006389617919921875
ell 241, elapsed: 0.0007548332214355469
ell 240, elapsed: 0.0007359981536865234
ell 239, elapsed: 0.0007698535919189453
ell 238, elapsed: 0.0006229877471923828
ell 237, elapsed: 0.0007498264312744141
ell 236, elapsed: 0.0006239414215087891
ell 235, elapsed: 0.0009148120880126953
ell 234, elapsed: 0.0005919933319091797
ell 233, elapsed: 0.0007538795471191406
ell 232, elapsed: 0.00061798095703125
ell 231, elapsed: 0.0007529258728027344
ell 230, elapsed: 0.0006268024444580078
ell 229, elapsed: 0.0007660388946533203
ell 228, elapsed: 0.0006330013275146484
ell 227, elapsed: 0.0007519721984863281
ell 226, elapsed: 0.0006301403045654297
ell 225, elapsed: 0.0007572174072265625
ell 224, elapsed: 0.0006589889526367188
ell 223, elapsed: 0.0008380413055419922
ell 222, elapsed: 0.0006771087646484375
ell 221, elapsed: 0.0007669925689697266
ell 220, elapsed: 0.0007719993591308594
ell 219, elapsed: 0.0008680820465087891
ell 218, elapsed: 0.0007131099700927734
ell 217, elapsed: 0.0008490085601806641
ell 216, elapsed: 0.0007278919219970703
ell 215, elapsed: 0.0006289482116699219
ell 214, elapsed: 0.0005888938903808594
ell 213, elapsed: 0.0008268356323242188
ell 212, elapsed: 0.0006411075592041016
ell 211, elapsed: 0.0008561611175537109
ell 210, elapsed: 0.0006449222564697266
ell 209, elapsed: 0.0008618831634521484
ell 208, elapsed: 0.0006890296936035156
ell 207, elapsed: 0.0005428791046142578
ell 206, elapsed: 0.0005090236663818359
ell 205, elapsed: 0.0007519721984863281
ell 204, elapsed: 0.0006232261657714844
ell 203, elapsed: 0.0007550716400146484
ell 202, elapsed: 0.0006349086761474609
ell 201, elapsed: 0.0007598400115966797
ell 200, elapsed: 0.0006148815155029297
ell 199, elapsed: 0.0007359981536865234
ell 198, elapsed: 0.0006570816040039062
ell 197, elapsed: 0.0007741451263427734
ell 196, elapsed: 0.0005598068237304688
ell 195, elapsed: 0.0007331371307373047
ell 194, elapsed: 0.0006098747253417969
ell 193, elapsed: 0.0007309913635253906
ell 192, elapsed: 0.0006129741668701172
ell 191, elapsed: 0.0008440017700195312
ell 190, elapsed: 0.0006170272827148438
ell 189, elapsed: 0.00074005126953125
ell 188, elapsed: 0.0005757808685302734
ell 187, elapsed: 0.0007221698760986328
ell 186, elapsed: 0.0006079673767089844
ell 185, elapsed: 0.0006260871887207031
ell 184, elapsed: 0.0005409717559814453
ell 183, elapsed: 0.0007219314575195312
ell 182, elapsed: 0.0006139278411865234
ell 181, elapsed: 0.0007460117340087891
ell 180, elapsed: 0.0005059242248535156
ell 179, elapsed: 0.0007319450378417969
ell 178, elapsed: 0.0006139278411865234
ell 177, elapsed: 0.0006489753723144531
ell 176, elapsed: 0.0005037784576416016
ell 175, elapsed: 0.0007290840148925781
ell 174, elapsed: 0.0005049705505371094
ell 173, elapsed: 0.0007550716400146484
ell 172, elapsed: 0.0006189346313476562
ell 171, elapsed: 0.0007300376892089844
ell 170, elapsed: 0.0006079673767089844
ell 169, elapsed: 0.0007379055023193359
ell 168, elapsed: 0.0006361007690429688
ell 167, elapsed: 0.0007259845733642578
ell 166, elapsed: 0.0006129741668701172
ell 165, elapsed: 0.0007300376892089844
ell 164, elapsed: 0.0006170272827148438
ell 163, elapsed: 0.0007340908050537109
ell 162, elapsed: 0.0006339550018310547
ell 161, elapsed: 0.0007278919219970703
ell 160, elapsed: 0.0006198883056640625
ell 159, elapsed: 0.0007338523864746094
ell 158, elapsed: 0.0006189346313476562
ell 157, elapsed: 0.0005490779876708984
ell 156, elapsed: 0.0005609989166259766
ell 155, elapsed: 0.0007259845733642578
ell 154, elapsed: 0.0006051063537597656
ell 153, elapsed: 0.000720977783203125
ell 152, elapsed: 0.0006148815155029297
ell 151, elapsed: 0.000743865966796875
ell 150, elapsed: 0.0006091594696044922
ell 149, elapsed: 0.0007259845733642578
ell 148, elapsed: 0.0006079673767089844
ell 147, elapsed: 0.0007128715515136719
ell 146, elapsed: 0.0006051063537597656
ell 145, elapsed: 0.000743865966796875
ell 144, elapsed: 0.0005228519439697266
ell 143, elapsed: 0.0004699230194091797
ell 142, elapsed: 0.0004971027374267578
ell 141, elapsed: 0.0006840229034423828
ell 140, elapsed: 0.0006229877471923828
ell 139, elapsed: 0.0007688999176025391
ell 138, elapsed: 0.0006351470947265625
ell 137, elapsed: 0.0007429122924804688
ell 136, elapsed: 0.0006299018859863281
ell 135, elapsed: 0.0007328987121582031
ell 134, elapsed: 0.0004899501800537109
ell 133, elapsed: 0.0007569789886474609
ell 132, elapsed: 0.0006201267242431641
ell 131, elapsed: 0.0007550716400146484
ell 130, elapsed: 0.0006229877471923828
ell 129, elapsed: 0.0007538795471191406
ell 128, elapsed: 0.0006501674652099609
ell 127, elapsed: 0.0007529258728027344
ell 126, elapsed: 0.0006258487701416016
ell 125, elapsed: 0.0007178783416748047
ell 124, elapsed: 0.00061798095703125
ell 123, elapsed: 0.0007369518280029297
ell 122, elapsed: 0.00047898292541503906
ell 121, elapsed: 0.0006499290466308594
ell 120, elapsed: 0.0006349086761474609
ell 119, elapsed: 0.0007619857788085938
ell 118, elapsed: 0.000637054443359375
ell 117, elapsed: 0.0007748603820800781
ell 116, elapsed: 0.0005369186401367188
ell 115, elapsed: 0.0006771087646484375
ell 114, elapsed: 0.00061798095703125
ell 113, elapsed: 0.0007359981536865234
ell 112, elapsed: 0.0006248950958251953
ell 111, elapsed: 0.0007669925689697266
ell 110, elapsed: 0.0006139278411865234
ell 109, elapsed: 0.0007710456848144531
ell 108, elapsed: 0.0006129741668701172
ell 107, elapsed: 0.0007610321044921875
ell 106, elapsed: 0.0006809234619140625
ell 105, elapsed: 0.00074005126953125
ell 104, elapsed: 0.0005509853363037109
ell 103, elapsed: 0.0007300376892089844
ell 102, elapsed: 0.0005199909210205078
ell 101, elapsed: 0.0007300376892089844
ell 100, elapsed: 0.0006248950958251953
ell 99, elapsed: 0.0007910728454589844
ell 98, elapsed: 0.0004329681396484375
ell 97, elapsed: 0.0004839897155761719
ell 96, elapsed: 0.0005331039428710938
ell 95, elapsed: 0.0007398128509521484
ell 94, elapsed: 0.0005209445953369141
ell 93, elapsed: 0.0005009174346923828
ell 92, elapsed: 0.0005779266357421875
ell 91, elapsed: 0.0006711483001708984
ell 90, elapsed: 0.0005729198455810547
ell 89, elapsed: 0.0007369518280029297
ell 88, elapsed: 0.0006761550903320312
ell 87, elapsed: 0.0005810260772705078
ell 86, elapsed: 0.0005409717559814453
ell 85, elapsed: 0.0007359981536865234
ell 84, elapsed: 0.0004940032958984375
ell 83, elapsed: 0.0006659030914306641
ell 82, elapsed: 0.0007109642028808594
ell 81, elapsed: 0.0005390644073486328
ell 80, elapsed: 0.0005419254302978516
ell 79, elapsed: 0.00074005126953125
ell 78, elapsed: 0.00049591064453125
ell 77, elapsed: 0.00048089027404785156
ell 76, elapsed: 0.00045800209045410156
ell 75, elapsed: 0.0007112026214599609
ell 74, elapsed: 0.00034499168395996094
ell 73, elapsed: 0.0005838871002197266
ell 72, elapsed: 0.0004730224609375
ell 71, elapsed: 0.0006859302520751953
ell 70, elapsed: 0.0006210803985595703
ell 69, elapsed: 0.0005958080291748047
ell 68, elapsed: 0.0005109310150146484
ell 67, elapsed: 0.0007648468017578125
ell 66, elapsed: 0.0006120204925537109
ell 65, elapsed: 0.0006160736083984375
ell 64, elapsed: 0.0005249977111816406
ell 63, elapsed: 0.0007650852203369141
ell 62, elapsed: 0.0006210803985595703
ell 61, elapsed: 0.0005710124969482422
ell 60, elapsed: 0.0005412101745605469
ell 59, elapsed: 0.0007488727569580078
ell 58, elapsed: 0.0005028247833251953
ell 57, elapsed: 0.0006949901580810547
ell 56, elapsed: 0.00061798095703125
ell 55, elapsed: 0.0007500648498535156
ell 54, elapsed: 0.0005550384521484375
ell 53, elapsed: 0.0007481575012207031
ell 52, elapsed: 0.0006198883056640625
ell 51, elapsed: 0.0007548332214355469
ell 50, elapsed: 0.00061798095703125
ell 49, elapsed: 0.0006518363952636719
ell 48, elapsed: 0.00038814544677734375
ell 47, elapsed: 0.0006079673767089844
ell 46, elapsed: 0.0005180835723876953
ell 45, elapsed: 0.0007009506225585938
ell 44, elapsed: 0.0005137920379638672
ell 43, elapsed: 0.0004820823669433594
ell 42, elapsed: 0.0003819465637207031
ell 41, elapsed: 0.0006530284881591797
ell 40, elapsed: 0.0004951953887939453
ell 39, elapsed: 0.0006940364837646484
ell 38, elapsed: 0.0005280971527099609
ell 37, elapsed: 0.000476837158203125
ell 36, elapsed: 0.0003840923309326172
ell 35, elapsed: 0.00046896934509277344
ell 34, elapsed: 0.00038695335388183594
ell 33, elapsed: 0.0004639625549316406
ell 32, elapsed: 0.0003800392150878906
ell 31, elapsed: 0.0004620552062988281
ell 30, elapsed: 0.00037980079650878906
ell 29, elapsed: 0.0005190372467041016
ell 28, elapsed: 0.00043010711669921875
ell 27, elapsed: 0.0005509853363037109
ell 26, elapsed: 0.00047707557678222656
ell 25, elapsed: 0.0005669593811035156
ell 24, elapsed: 0.0004699230194091797
ell 23, elapsed: 0.0005171298980712891
ell 22, elapsed: 0.0003910064697265625
ell 21, elapsed: 0.00047397613525390625
ell 20, elapsed: 0.0003809928894042969
ell 19, elapsed: 0.00045990943908691406
ell 18, elapsed: 0.0003829002380371094
ell 17, elapsed: 0.0004639625549316406
ell 16, elapsed: 0.0003871917724609375
ell 15, elapsed: 0.0005218982696533203
ell 14, elapsed: 0.000392913818359375
ell 13, elapsed: 0.0004818439483642578
ell 12, elapsed: 0.00043487548828125
ell 11, elapsed: 0.0005059242248535156
ell 10, elapsed: 0.0004138946533203125
ell 9, elapsed: 0.0004990100860595703
ell 8, elapsed: 0.00041103363037109375
ell 7, elapsed: 0.0005500316619873047
ell 6, elapsed: 0.00040912628173828125
ell 5, elapsed: 0.0005030632019042969
ell 4, elapsed: 0.0004069805145263672
ell 3, elapsed: 0.0005018711090087891
ell 2, elapsed: 0.00040793418884277344
ell 1, elapsed: 0.0005018711090087891
ell 0, elapsed: 0.0004131793975830078
  0.592941 seconds (41.19 k allocations: 2.939 MiB)
elapsed: 0.0006508827209472656
step:          0.065144 sec (0 allocations: 0 byte, 0.0% gc time)
swapping:      0.000683 sec (0 allocations: 0 byte, 0.0% gc time)
calc_Mellell!: 0.0098 sec (0 allocations: 0 byte, 0.0% gc time)
  t0 :  0.002704 sec (0 allocations: 0 byte, 0.0% gc time)
  tm2 : 0.100202 sec (0 allocations: 0 byte, 0.0% gc time)
  tm2s: 0.00171 sec (0 allocations: 0 byte, 0.0% gc time)
  tm4 : 0.234737 sec (0 allocations: 0 byte, 0.0% gc time)
  tp2 : 0.0 sec (0 allocations: 0 byte, 0.0% gc time)
  tp2s: 0.0 sec (0 allocations: 0 byte, 0.0% gc time)
  tp4 : 0.0 sec (0 allocations: 0 byte, 0.0% gc time)
calc_wtdll!:   0.355028 sec (9.87 k allocations: 1.043 MB, 0.0% gc time)
calc_wljj!:    0.035998 sec (689 allocations: 10.766 KB, 0.0% gc time)
mult_prefac!:  0.0 sec (0 allocations: 0 byte, 0.0% gc time)
convert:       0.0 sec (0 allocations: 0 byte, 0.0% gc time)
write:         0.052983 sec (0 allocations: 0 byte, 0.0% gc time)
test_rand_2f1: 0.0 sec (0 allocations: 0 byte, 0.0% gc time)
Closing outfile out/Ml21-cache.bin...   0.023158 seconds
  0.000580 seconds (52 allocations: 28.297 KiB)
make_phi():   0.002969 seconds (8.20 k allocations: 238.016 KiB)
  0.190921 seconds (146.69 k allocations: 3.629 MiB)
tskip:       0.000978 sec (0 allocations: 0 byte, 0.0% gc time)
tread:       0.026443 sec (19 allocations: 10.688 KB, 0.0% gc time)
tmultphi:    0.01341 sec (0 allocations: 0 byte, 0.0% gc time)
tbrfft:      0.050248 sec (9.592 k allocations: 449.625 KB, 0.0% gc time)
tmultprefac: 0.040919 sec (0 allocations: 0 byte, 0.0% gc time)
toutfunc:    0.056773 sec (129.905 k allocations: 2.421 MB, 0.0% gc time)
Testing R=1.0 ... passed
Calculating fmax: 
  dlrec    = 4
  dlrecRg1 = -4
  q=1.1, R=0.9:	  0.452856 seconds (116.47 k allocations: 15.614 MiB)

  0.453108 seconds (116.50 k allocations: 15.647 MiB)
ℓ = 1202
Δℓ = 4
ΔℓRg1 = -4
N = 1600
q = 1.1
kmin = 1.0e-5
kmax = 100000.00000000004
χ0 = 0.023029999999999995
RR = RR.tsv
ℓmax = ℓmax.bin
f21 = f21.bin
kmin = 1.0e-5
kmax = 100000.0
dlrec    = 4
dlrecRg1 = -4
Output size: 5741568 bytes = 0.005347251892089844 GiB
Output size: 51264 bytes = 4.774332046508789e-5 GiB
Reading 'out/F21EllCache'...   0.001114 seconds (267 allocations: 84.656 KiB)
ellmax: 1202
lmaxcache: 1202
fell[:,1,1] = Complex{Float64}[1.3482014726274674e-57 - 3.302141236118086e-73im, 1.357860004724329e-57 - 3.3257978169518355e-73im]
ell 1202, elapsed: 2.002716064453125e-5
ell 1201, elapsed: 0.0004379749298095703
ell 1200, elapsed: 0.00039696693420410156
ell 1199, elapsed: 0.00039196014404296875
ell 1198, elapsed: 0.00039196014404296875
ell 1002, elapsed: 0.011260986328125
ell 1001, elapsed: 0.0005130767822265625
ell 1000, elapsed: 0.0005431175231933594
ell 999, elapsed: 0.0005300045013427734
ell 998, elapsed: 0.0005669593811035156
ell 902, elapsed: 0.004939079284667969
ell 901, elapsed: 0.0005130767822265625
ell 900, elapsed: 0.0010218620300292969
ell 899, elapsed: 0.00045609474182128906
ell 898, elapsed: 0.0005340576171875
ell 802, elapsed: 0.005295991897583008
ell 801, elapsed: 0.0003790855407714844
ell 800, elapsed: 0.0004990100860595703
ell 799, elapsed: 0.0005540847778320312
ell 798, elapsed: 0.0005230903625488281
ell 702, elapsed: 0.005407094955444336
ell 701, elapsed: 0.00045299530029296875
ell 700, elapsed: 0.0005540847778320312
ell 699, elapsed: 0.0005259513854980469
ell 698, elapsed: 0.0003478527069091797
ell 602, elapsed: 0.0055730342864990234
ell 601, elapsed: 0.0010569095611572266
ell 600, elapsed: 0.00037598609924316406
ell 599, elapsed: 0.00035309791564941406
ell 598, elapsed: 0.00034689903259277344
ell 502, elapsed: 0.005590915679931641
ell 501, elapsed: 0.0003719329833984375
ell 500, elapsed: 0.00034809112548828125
ell 499, elapsed: 0.00034999847412109375
ell 498, elapsed: 0.0003490447998046875
ell 402, elapsed: 0.005327939987182617
ell 401, elapsed: 0.001466989517211914
ell 400, elapsed: 0.00036907196044921875
ell 399, elapsed: 0.0003540515899658203
ell 398, elapsed: 0.00034999847412109375
ell 302, elapsed: 0.005763053894042969
ell 301, elapsed: 0.0003809928894042969
ell 300, elapsed: 0.0007879734039306641
ell 299, elapsed: 0.0003619194030761719
ell 298, elapsed: 0.0003509521484375
ell 202, elapsed: 0.005905866622924805
ell 201, elapsed: 0.0003750324249267578
ell 200, elapsed: 0.00035381317138671875
ell 199, elapsed: 0.0006649494171142578
ell 198, elapsed: 0.00035309791564941406
ell 152, elapsed: 0.002997159957885742
ell 151, elapsed: 0.00037789344787597656
ell 150, elapsed: 0.0003578662872314453
ell 149, elapsed: 0.0005559921264648438
ell 148, elapsed: 0.0003581047058105469
ell 127, elapsed: 0.0017588138580322266
ell 126, elapsed: 0.0006668567657470703
ell 125, elapsed: 0.0003590583801269531
ell 124, elapsed: 0.0003528594970703125
ell 123, elapsed: 0.0005710124969482422
ell 114, elapsed: 0.0010330677032470703
ell 113, elapsed: 0.0004420280456542969
ell 112, elapsed: 0.0005190372467041016
ell 111, elapsed: 0.0005939006805419922
ell 110, elapsed: 0.0005409717559814453
ell 102, elapsed: 0.001071929931640625
ell 101, elapsed: 0.0003540515899658203
ell 100, elapsed: 0.00036907196044921875
ell 99, elapsed: 0.0007069110870361328
ell 98, elapsed: 0.0004382133483886719
ell 97, elapsed: 0.00040602684020996094
ell 96, elapsed: 0.0006890296936035156
ell 95, elapsed: 0.0004019737243652344
ell 94, elapsed: 0.0004940032958984375
ell 93, elapsed: 0.00039315223693847656
ell 92, elapsed: 0.0006849765777587891
ell 91, elapsed: 0.0004000663757324219
ell 90, elapsed: 0.0004911422729492188
ell 89, elapsed: 0.000392913818359375
ell 88, elapsed: 0.0007791519165039062
ell 87, elapsed: 0.0003910064697265625
ell 86, elapsed: 0.0004830360412597656
ell 85, elapsed: 0.00040793418884277344
ell 84, elapsed: 0.00048613548278808594
ell 83, elapsed: 0.0005168914794921875
ell 82, elapsed: 0.0005970001220703125
ell 81, elapsed: 0.0006079673767089844
ell 80, elapsed: 0.0004830360412597656
ell 79, elapsed: 0.0003910064697265625
ell 78, elapsed: 0.0004971027374267578
ell 77, elapsed: 0.0003960132598876953
ell 76, elapsed: 0.0004799365997314453
ell 75, elapsed: 0.000392913818359375
ell 74, elapsed: 0.0007100105285644531
ell 73, elapsed: 0.0003991127014160156
ell 72, elapsed: 0.0004830360412597656
ell 71, elapsed: 0.0003960132598876953
ell 70, elapsed: 0.0005018711090087891
ell 69, elapsed: 0.0005359649658203125
ell 68, elapsed: 0.0009810924530029297
ell 67, elapsed: 0.0006160736083984375
ell 66, elapsed: 0.0006110668182373047
ell 65, elapsed: 0.0004999637603759766
ell 64, elapsed: 0.000762939453125
ell 63, elapsed: 0.0006139278411865234
ell 62, elapsed: 0.0005688667297363281
ell 61, elapsed: 0.0008687973022460938
ell 60, elapsed: 0.0007479190826416016
ell 59, elapsed: 0.0006318092346191406
ell 58, elapsed: 0.0007240772247314453
ell 57, elapsed: 0.000782012939453125
ell 56, elapsed: 0.00067901611328125
ell 55, elapsed: 0.0006139278411865234
ell 54, elapsed: 0.0006239414215087891
ell 53, elapsed: 0.00044083595275878906
ell 52, elapsed: 0.0005800724029541016
ell 51, elapsed: 0.0005249977111816406
ell 50, elapsed: 0.00047588348388671875
ell 49, elapsed: 0.0003859996795654297
ell 48, elapsed: 0.0004780292510986328
ell 47, elapsed: 0.0003910064697265625
ell 46, elapsed: 0.0004811286926269531
ell 45, elapsed: 0.00040912628173828125
ell 44, elapsed: 0.000476837158203125
ell 43, elapsed: 0.0003879070281982422
ell 42, elapsed: 0.0004799365997314453
ell 41, elapsed: 0.0003979206085205078
ell 40, elapsed: 0.0004858970642089844
ell 39, elapsed: 0.00039696693420410156
ell 38, elapsed: 0.0004820823669433594
ell 37, elapsed: 0.00039696693420410156
ell 36, elapsed: 0.000476837158203125
ell 35, elapsed: 0.0003948211669921875
ell 34, elapsed: 0.0004780292510986328
ell 33, elapsed: 0.0005009174346923828
ell 32, elapsed: 0.0006129741668701172
ell 31, elapsed: 0.0005011558532714844
ell 30, elapsed: 0.0006148815155029297
ell 29, elapsed: 0.00041413307189941406
ell 28, elapsed: 0.0004911422729492188
ell 27, elapsed: 0.0003979206085205078
ell 26, elapsed: 0.0006499290466308594
ell 25, elapsed: 0.00047206878662109375
ell 24, elapsed: 0.0006170272827148438
ell 23, elapsed: 0.00048804283142089844
ell 22, elapsed: 0.0004858970642089844
ell 21, elapsed: 0.00036215782165527344
ell 20, elapsed: 0.0006229877471923828
ell 19, elapsed: 0.00048089027404785156
ell 18, elapsed: 0.0004851818084716797
ell 17, elapsed: 0.00038909912109375
ell 16, elapsed: 0.0006380081176757812
ell 15, elapsed: 0.00047588348388671875
ell 14, elapsed: 0.00061798095703125
ell 13, elapsed: 0.0005128383636474609
ell 12, elapsed: 0.0006451606750488281
ell 11, elapsed: 0.00045990943908691406
ell 10, elapsed: 0.0004749298095703125
ell 9, elapsed: 0.0003960132598876953
ell 8, elapsed: 0.00047588348388671875
ell 7, elapsed: 0.00040984153747558594
ell 6, elapsed: 0.00047707557678222656
ell 5, elapsed: 0.0003879070281982422
ell 4, elapsed: 0.0006539821624755859
ell 3, elapsed: 0.0004611015319824219
ell 2, elapsed: 0.0006170272827148438
ell 1, elapsed: 0.0004930496215820312
ell 0, elapsed: 0.0006949901580810547
  0.147913 seconds (10.83 k allocations: 697.938 KiB)
elapsed: 0.0005519390106201172
step:          0.062182 sec (0 allocations: 0 byte, 0.0% gc time)
swapping:      0.000575 sec (0 allocations: 0 byte, 0.0% gc time)
calc_Mellell!: 0.001815 sec (0 allocations: 0 byte, 0.0% gc time)
  t0 :  0.00045 sec (0 allocations: 0 byte, 0.0% gc time)
  tm2 : 0.015236 sec (0 allocations: 0 byte, 0.0% gc time)
  tm2s: 0.000347 sec (0 allocations: 0 byte, 0.0% gc time)
  tm4 : 0.041233 sec (0 allocations: 0 byte, 0.0% gc time)
  tp2 : 0.0 sec (0 allocations: 0 byte, 0.0% gc time)
  tp2s: 0.0 sec (0 allocations: 0 byte, 0.0% gc time)
  tp4 : 0.0 sec (0 allocations: 0 byte, 0.0% gc time)
calc_wtdll!:   0.057944 sec (1.344 k allocations: 147.0 KB, 0.0% gc time)
calc_wljj!:    0.004239 sec (6 allocations: 96 byte, 0.0% gc time)
mult_prefac!:  0.0 sec (0 allocations: 0 byte, 0.0% gc time)
convert:       0.0 sec (0 allocations: 0 byte, 0.0% gc time)
write:         0.006556 sec (0 allocations: 0 byte, 0.0% gc time)
test_rand_2f1: 0.0 sec (0 allocations: 0 byte, 0.0% gc time)
Closing outfile out/Ml21-cache.bin...   0.004696 seconds
  0.000245 seconds (52 allocations: 28.297 KiB)
make_phi():   0.002876 seconds (8.20 k allocations: 238.016 KiB)
  0.017728 seconds (12.10 k allocations: 322.000 KiB)
tskip:       2.1e-5 sec (0 allocations: 0 byte, 0.0% gc time)
tread:       0.002469 sec (19 allocations: 2.172 KB, 0.0% gc time)
tmultphi:    0.001289 sec (0 allocations: 0 byte, 0.0% gc time)
tbrfft:      0.004635 sec (896 allocations: 42.0 KB, 0.0% gc time)
tmultprefac: 0.004023 sec (0 allocations: 0 byte, 0.0% gc time)
toutfunc:    0.005295 sec (10.528 k allocations: 206.5 KB, 0.0% gc time)
Testing R=0.9 ... passed
Calculating fmax: 
  dlrec    = 4
  dlrecRg1 = -4
  q=1.1, R=0.8:	  0.363924 seconds (113.61 k allocations: 15.166 MiB)

  0.364190 seconds (113.65 k allocations: 15.200 MiB)
ℓ = 1202
Δℓ = 4
ΔℓRg1 = -4
N = 1600
q = 1.1
kmin = 1.0e-5
kmax = 100000.00000000004
χ0 = 0.023029999999999995
RR = RR.tsv
ℓmax = ℓmax.bin
f21 = f21.bin
kmin = 1.0e-5
kmax = 100000.0
dlrec    = 4
dlrecRg1 = -4
Output size: 5741568 bytes = 0.005347251892089844 GiB
Output size: 51264 bytes = 4.774332046508789e-5 GiB
Reading 'out/F21EllCache'...   0.001052 seconds (267 allocations: 84.656 KiB)
ellmax: 1202
lmaxcache: 1202
fell[:,1,1] = Complex{Float64}[7.519068145690986e-120 - 1.8416405474382574e-135im, 7.541664537386155e-120 - 1.847175067190611e-135im]
ell 1202, elapsed: 2.002716064453125e-5
ell 1201, elapsed: 0.0004298686981201172
ell 1200, elapsed: 0.0003991127014160156
ell 1199, elapsed: 0.0003998279571533203
ell 1198, elapsed: 0.0004029273986816406
ell 1002, elapsed: 0.010534048080444336
ell 1001, elapsed: 0.00037217140197753906
ell 1000, elapsed: 0.00035691261291503906
ell 999, elapsed: 0.0003559589385986328
ell 998, elapsed: 0.0003719329833984375
ell 902, elapsed: 0.005147218704223633
ell 901, elapsed: 0.0003871917724609375
ell 900, elapsed: 0.0003559589385986328
ell 899, elapsed: 0.00034999847412109375
ell 898, elapsed: 0.0003540515899658203
ell 802, elapsed: 0.005452871322631836
ell 801, elapsed: 0.0003590583801269531
ell 800, elapsed: 0.0003521442413330078
ell 799, elapsed: 0.0003600120544433594
ell 798, elapsed: 0.00035119056701660156
ell 702, elapsed: 0.00524592399597168
ell 701, elapsed: 0.0003719329833984375
ell 700, elapsed: 0.00036597251892089844
ell 699, elapsed: 0.0003609657287597656
ell 698, elapsed: 0.0003559589385986328
ell 602, elapsed: 0.0053479671478271484
ell 601, elapsed: 0.0004971027374267578
ell 600, elapsed: 0.000453948974609375
ell 599, elapsed: 0.0003600120544433594
ell 598, elapsed: 0.00036907196044921875
ell 502, elapsed: 0.005232810974121094
ell 501, elapsed: 0.0005230903625488281
ell 500, elapsed: 0.00043702125549316406
ell 499, elapsed: 0.00036406517028808594
ell 498, elapsed: 0.0003521442413330078
ell 402, elapsed: 0.00539088249206543
ell 401, elapsed: 0.0003819465637207031
ell 400, elapsed: 0.0003578662872314453
ell 399, elapsed: 0.0003600120544433594
ell 398, elapsed: 0.0003528594970703125
ell 302, elapsed: 0.005243062973022461
ell 301, elapsed: 0.0003809928894042969
ell 300, elapsed: 0.0003731250762939453
ell 299, elapsed: 0.0003540515899658203
ell 298, elapsed: 0.0003638267517089844
ell 202, elapsed: 0.004930019378662109
ell 201, elapsed: 0.00038313865661621094
ell 200, elapsed: 0.00034999847412109375
ell 199, elapsed: 0.0003571510314941406
ell 198, elapsed: 0.00036597251892089844
ell 152, elapsed: 0.0026230812072753906
ell 151, elapsed: 0.0003731250762939453
ell 150, elapsed: 0.0003581047058105469
ell 149, elapsed: 0.0003662109375
ell 148, elapsed: 0.0003578662872314453
ell 127, elapsed: 0.0015859603881835938
ell 126, elapsed: 0.00036406517028808594
ell 125, elapsed: 0.00035500526428222656
ell 124, elapsed: 0.0003571510314941406
ell 123, elapsed: 0.0003578662872314453
ell 114, elapsed: 0.0008380413055419922
ell 113, elapsed: 0.0003628730773925781
ell 112, elapsed: 0.00034999847412109375
ell 111, elapsed: 0.00035309791564941406
ell 110, elapsed: 0.0003571510314941406
ell 102, elapsed: 0.0008690357208251953
ell 101, elapsed: 0.00035691261291503906
ell 100, elapsed: 0.0003571510314941406
ell 99, elapsed: 0.0003628730773925781
ell 98, elapsed: 0.00037097930908203125
ell 97, elapsed: 0.00041103363037109375
ell 96, elapsed: 0.0005228519439697266
ell 95, elapsed: 0.0005340576171875
ell 94, elapsed: 0.0006029605865478516
ell 93, elapsed: 0.0004100799560546875
ell 92, elapsed: 0.0004849433898925781
ell 91, elapsed: 0.0005688667297363281
ell 90, elapsed: 0.0005562305450439453
ell 89, elapsed: 0.0005099773406982422
ell 88, elapsed: 0.0006160736083984375
ell 87, elapsed: 0.0003979206085205078
ell 86, elapsed: 0.0004940032958984375
ell 85, elapsed: 0.0005550384521484375
ell 84, elapsed: 0.0005779266357421875
ell 83, elapsed: 0.0005881786346435547
ell 82, elapsed: 0.0005598068237304688
ell 81, elapsed: 0.0003960132598876953
ell 80, elapsed: 0.0004909038543701172
ell 79, elapsed: 0.00039505958557128906
ell 78, elapsed: 0.0004889965057373047
ell 77, elapsed: 0.0004010200500488281
ell 76, elapsed: 0.0005099773406982422
ell 75, elapsed: 0.0003972053527832031
ell 74, elapsed: 0.0004878044128417969
ell 73, elapsed: 0.00039196014404296875
ell 72, elapsed: 0.0005078315734863281
ell 71, elapsed: 0.000392913818359375
ell 70, elapsed: 0.0004889965057373047
ell 69, elapsed: 0.00039315223693847656
ell 68, elapsed: 0.0004870891571044922
ell 67, elapsed: 0.00042510032653808594
ell 66, elapsed: 0.0004818439483642578
ell 65, elapsed: 0.00039315223693847656
ell 64, elapsed: 0.0006909370422363281
ell 63, elapsed: 0.00043010711669921875
ell 62, elapsed: 0.00047397613525390625
ell 61, elapsed: 0.00038909912109375
ell 60, elapsed: 0.0004711151123046875
ell 59, elapsed: 0.00041294097900390625
ell 58, elapsed: 0.0007269382476806641
ell 57, elapsed: 0.0004360675811767578
ell 56, elapsed: 0.0004940032958984375
ell 55, elapsed: 0.0004050731658935547
ell 54, elapsed: 0.0005059242248535156
ell 53, elapsed: 0.0005009174346923828
ell 52, elapsed: 0.0006480216979980469
ell 51, elapsed: 0.00039505958557128906
ell 50, elapsed: 0.0004661083221435547
ell 49, elapsed: 0.00038313865661621094
ell 48, elapsed: 0.0004558563232421875
ell 47, elapsed: 0.00037288665771484375
ell 46, elapsed: 0.0004990100860595703
ell 45, elapsed: 0.0004031658172607422
ell 44, elapsed: 0.0007090568542480469
ell 43, elapsed: 0.0005819797515869141
ell 42, elapsed: 0.0006890296936035156
ell 41, elapsed: 0.0004048347473144531
ell 40, elapsed: 0.00045609474182128906
ell 39, elapsed: 0.0003769397735595703
ell 38, elapsed: 0.0004589557647705078
ell 37, elapsed: 0.0003838539123535156
ell 36, elapsed: 0.0004799365997314453
ell 35, elapsed: 0.00036978721618652344
ell 34, elapsed: 0.0004642009735107422
ell 33, elapsed: 0.00039005279541015625
ell 32, elapsed: 0.00048804283142089844
ell 31, elapsed: 0.0003998279571533203
ell 30, elapsed: 0.00047397613525390625
ell 29, elapsed: 0.00039196014404296875
ell 28, elapsed: 0.0007088184356689453
ell 27, elapsed: 0.00040793418884277344
ell 26, elapsed: 0.0006461143493652344
ell 25, elapsed: 0.0004649162292480469
ell 24, elapsed: 0.0004851818084716797
ell 23, elapsed: 0.0003941059112548828
ell 22, elapsed: 0.0004949569702148438
ell 21, elapsed: 0.0005538463592529297
ell 20, elapsed: 0.0007679462432861328
ell 19, elapsed: 0.0006339550018310547
[...]
ell 789, elapsed: 0.0008130073547363281
ell 788, elapsed: 0.0008120536804199219
ell 782, elapsed: 0.0016210079193115234
ell 781, elapsed: 0.0008149147033691406
ell 780, elapsed: 0.0008058547973632812
ell 779, elapsed: 0.0008111000061035156
ell 778, elapsed: 0.0008139610290527344
ell 772, elapsed: 0.00177001953125
ell 771, elapsed: 0.0007719993591308594
ell 770, elapsed: 0.0008158683776855469
ell 769, elapsed: 0.0008230209350585938
ell 768, elapsed: 0.0008261203765869141
ell 762, elapsed: 0.0015988349914550781
ell 761, elapsed: 0.0008199214935302734
ell 760, elapsed: 0.0008199214935302734
ell 759, elapsed: 0.0008180141448974609
ell 758, elapsed: 0.0008180141448974609
ell 752, elapsed: 0.0015821456909179688
ell 751, elapsed: 0.0008301734924316406
ell 750, elapsed: 0.0008170604705810547
ell 749, elapsed: 0.0008199214935302734
ell 748, elapsed: 0.0008161067962646484
ell 742, elapsed: 0.001650094985961914
ell 741, elapsed: 0.0008339881896972656
ell 740, elapsed: 0.0008180141448974609
ell 739, elapsed: 0.0008261203765869141
ell 738, elapsed: 0.0008211135864257812
ell 732, elapsed: 0.001984834671020508
ell 731, elapsed: 0.0008139610290527344
ell 730, elapsed: 0.0008141994476318359
ell 729, elapsed: 0.0008370876312255859
ell 728, elapsed: 0.0008280277252197266
ell 722, elapsed: 0.0016069412231445312
ell 721, elapsed: 0.0008189678192138672
ell 720, elapsed: 0.0008351802825927734
ell 719, elapsed: 0.0008280277252197266
ell 718, elapsed: 0.000823974609375
ell 712, elapsed: 0.001645803451538086
ell 711, elapsed: 0.0008301734924316406
ell 710, elapsed: 0.0008268356323242188
ell 709, elapsed: 0.0008170604705810547
ell 708, elapsed: 0.000823974609375
ell 702, elapsed: 0.0015871524810791016
ell 701, elapsed: 0.0008289813995361328
ell 700, elapsed: 0.0008189678192138672
ell 699, elapsed: 0.0008230209350585938
ell 698, elapsed: 0.0008451938629150391
ell 692, elapsed: 0.0016150474548339844
ell 691, elapsed: 0.0008218288421630859
ell 690, elapsed: 0.000823974609375
ell 689, elapsed: 0.0008449554443359375
ell 688, elapsed: 0.0008089542388916016
ell 682, elapsed: 0.0016200542449951172
ell 681, elapsed: 0.0008571147918701172
ell 680, elapsed: 0.0008230209350585938
ell 679, elapsed: 0.0008130073547363281
ell 678, elapsed: 0.0008230209350585938
ell 672, elapsed: 0.0016300678253173828
ell 671, elapsed: 0.0008268356323242188
ell 670, elapsed: 0.0008199214935302734
ell 669, elapsed: 0.0008058547973632812
ell 668, elapsed: 0.0008189678192138672
ell 662, elapsed: 0.0016181468963623047
ell 661, elapsed: 0.0008318424224853516
ell 660, elapsed: 0.0008180141448974609
ell 659, elapsed: 0.000823974609375
ell 658, elapsed: 0.0008440017700195312
ell 652, elapsed: 0.0016031265258789062
ell 651, elapsed: 0.000823974609375
ell 650, elapsed: 0.0008318424224853516
ell 649, elapsed: 0.0008161067962646484
ell 648, elapsed: 0.0008411407470703125
ell 642, elapsed: 0.0015869140625
ell 641, elapsed: 0.0008308887481689453
ell 640, elapsed: 0.0008199214935302734
ell 639, elapsed: 0.0008289813995361328
ell 638, elapsed: 0.0008261203765869141
ell 632, elapsed: 0.002051115036010742
ell 631, elapsed: 0.0008211135864257812
ell 630, elapsed: 0.0008180141448974609
ell 629, elapsed: 0.0008158683776855469
ell 628, elapsed: 0.0008399486541748047
ell 622, elapsed: 0.0017809867858886719
ell 621, elapsed: 0.0007851123809814453
ell 620, elapsed: 0.0008270740509033203
ell 619, elapsed: 0.0008509159088134766
ell 618, elapsed: 0.0008218288421630859
ell 612, elapsed: 0.0016019344329833984
ell 611, elapsed: 0.0008499622344970703
ell 610, elapsed: 0.0008161067962646484
ell 609, elapsed: 0.0008211135864257812
ell 608, elapsed: 0.0008211135864257812
ell 602, elapsed: 0.0015950202941894531
ell 601, elapsed: 0.0008258819580078125
ell 600, elapsed: 0.0008258819580078125
ell 599, elapsed: 0.000823974609375
ell 598, elapsed: 0.0008218288421630859
ell 592, elapsed: 0.0016329288482666016
ell 591, elapsed: 0.0008327960968017578
ell 590, elapsed: 0.0008249282836914062
ell 589, elapsed: 0.0008938312530517578
ell 588, elapsed: 0.0008161067962646484
ell 582, elapsed: 0.0016088485717773438
ell 581, elapsed: 0.0008199214935302734
ell 580, elapsed: 0.0009241104125976562
ell 579, elapsed: 0.0008308887481689453
ell 578, elapsed: 0.0008249282836914062
ell 572, elapsed: 0.001622915267944336
ell 571, elapsed: 0.0008409023284912109
ell 570, elapsed: 0.0008149147033691406
ell 569, elapsed: 0.0008199214935302734
ell 568, elapsed: 0.0008220672607421875
ell 562, elapsed: 0.001641988754272461
ell 561, elapsed: 0.0008308887481689453
ell 560, elapsed: 0.0008170604705810547
ell 559, elapsed: 0.0008189678192138672
ell 558, elapsed: 0.0008440017700195312
ell 552, elapsed: 0.0015728473663330078
ell 551, elapsed: 0.0008270740509033203
ell 550, elapsed: 0.0008218288421630859
ell 549, elapsed: 0.0008339881896972656
ell 548, elapsed: 0.000823974609375
ell 542, elapsed: 0.0016248226165771484
ell 541, elapsed: 0.0008349418640136719
ell 540, elapsed: 0.0008769035339355469
ell 539, elapsed: 0.0008211135864257812
ell 538, elapsed: 0.0008170604705810547
ell 532, elapsed: 0.001628875732421875
ell 531, elapsed: 0.0008280277252197266
ell 530, elapsed: 0.0008230209350585938
ell 529, elapsed: 0.0008161067962646484
ell 528, elapsed: 0.0008141994476318359
ell 522, elapsed: 0.0016069412231445312
ell 521, elapsed: 0.0008339881896972656
ell 520, elapsed: 0.0008208751678466797
ell 519, elapsed: 0.0008199214935302734
ell 518, elapsed: 0.0008878707885742188
ell 512, elapsed: 0.0017418861389160156
ell 511, elapsed: 0.0007660388946533203
ell 510, elapsed: 0.0008280277252197266
ell 509, elapsed: 0.0008180141448974609
ell 508, elapsed: 0.0008289813995361328
ell 502, elapsed: 0.001744985580444336
ell 501, elapsed: 0.0008032321929931641
ell 500, elapsed: 0.0008339881896972656
ell 499, elapsed: 0.0007948875427246094
ell 498, elapsed: 0.0007898807525634766
ell 492, elapsed: 0.001550912857055664
ell 491, elapsed: 0.000823974609375
ell 490, elapsed: 0.0008330345153808594
ell 489, elapsed: 0.0008268356323242188
ell 488, elapsed: 0.0008020401000976562
ell 482, elapsed: 0.0017631053924560547
ell 481, elapsed: 0.000762939453125
ell 480, elapsed: 0.0008308887481689453
ell 479, elapsed: 0.0008268356323242188
ell 478, elapsed: 0.0008950233459472656
ell 472, elapsed: 0.0015659332275390625
ell 471, elapsed: 0.00078582763671875
ell 470, elapsed: 0.0008399486541748047
ell 469, elapsed: 0.0008180141448974609
ell 468, elapsed: 0.0008080005645751953
ell 462, elapsed: 0.0016548633575439453
ell 461, elapsed: 0.0008220672607421875
ell 460, elapsed: 0.0008180141448974609
ell 459, elapsed: 0.0007989406585693359
ell 458, elapsed: 0.0008020401000976562
ell 452, elapsed: 0.0015778541564941406
ell 451, elapsed: 0.0008308887481689453
ell 450, elapsed: 0.0008070468902587891
ell 449, elapsed: 0.0008070468902587891
ell 448, elapsed: 0.0007989406585693359
ell 442, elapsed: 0.0015230178833007812
ell 441, elapsed: 0.000823974609375
ell 440, elapsed: 0.0008411407470703125
ell 439, elapsed: 0.0008089542388916016
ell 438, elapsed: 0.0007989406585693359
ell 432, elapsed: 0.0015358924865722656
ell 431, elapsed: 0.0008199214935302734
ell 430, elapsed: 0.0007760524749755859
ell 429, elapsed: 0.0007469654083251953
ell 428, elapsed: 0.0008029937744140625
ell 422, elapsed: 0.001519918441772461
ell 421, elapsed: 0.0007991790771484375
ell 420, elapsed: 0.0008101463317871094
ell 419, elapsed: 0.0008158683776855469
ell 418, elapsed: 0.0008218288421630859
ell 412, elapsed: 0.0015780925750732422
ell 411, elapsed: 0.0008170604705810547
ell 410, elapsed: 0.0008230209350585938
ell 409, elapsed: 0.0008199214935302734
ell 408, elapsed: 0.0008380413055419922
ell 402, elapsed: 0.001589059829711914
ell 401, elapsed: 0.0008230209350585938
ell 400, elapsed: 0.0008749961853027344
ell 399, elapsed: 0.0008301734924316406
ell 398, elapsed: 0.0008242130279541016
ell 392, elapsed: 0.0015859603881835938
ell 391, elapsed: 0.0008890628814697266
ell 390, elapsed: 0.0008320808410644531
ell 389, elapsed: 0.0008380413055419922
ell 388, elapsed: 0.0008139610290527344
ell 382, elapsed: 0.0017728805541992188
ell 381, elapsed: 0.0007278919219970703
ell 380, elapsed: 0.0009179115295410156
ell 379, elapsed: 0.0008168220520019531
ell 378, elapsed: 0.0008890628814697266
ell 372, elapsed: 0.0015649795532226562
ell 371, elapsed: 0.0008230209350585938
ell 370, elapsed: 0.0008299350738525391
ell 369, elapsed: 0.0009548664093017578
ell 368, elapsed: 0.0008139610290527344
ell 362, elapsed: 0.0015819072723388672
ell 361, elapsed: 0.0008318424224853516
ell 360, elapsed: 0.0008339881896972656
ell 359, elapsed: 0.0008230209350585938
ell 358, elapsed: 0.0008230209350585938
ell 352, elapsed: 0.001592874526977539
ell 351, elapsed: 0.0008280277252197266
ell 350, elapsed: 0.0008471012115478516
ell 349, elapsed: 0.0008220672607421875
ell 348, elapsed: 0.0008399486541748047
ell 342, elapsed: 0.0015120506286621094
ell 341, elapsed: 0.0008120536804199219
ell 340, elapsed: 0.0007920265197753906
ell 339, elapsed: 0.0008039474487304688
ell 338, elapsed: 0.0008461475372314453
ell 332, elapsed: 0.0015749931335449219
ell 331, elapsed: 0.0008261203765869141
ell 330, elapsed: 0.0008218288421630859
ell 329, elapsed: 0.0008318424224853516
ell 328, elapsed: 0.0009081363677978516
ell 322, elapsed: 0.0015799999237060547
ell 321, elapsed: 0.0009260177612304688
ell 320, elapsed: 0.0008141994476318359
ell 319, elapsed: 0.0008280277252197266
ell 318, elapsed: 0.0008070468902587891
ell 312, elapsed: 0.002190113067626953
ell 311, elapsed: 0.0008299350738525391
ell 310, elapsed: 0.0010290145874023438
ell 309, elapsed: 0.0008449554443359375
ell 308, elapsed: 0.000823974609375
ell 302, elapsed: 0.0015690326690673828
ell 301, elapsed: 0.0008351802825927734
ell 300, elapsed: 0.0008349418640136719
ell 299, elapsed: 0.0008149147033691406
ell 298, elapsed: 0.0008192062377929688
ell 292, elapsed: 0.0018260478973388672
ell 291, elapsed: 0.0007839202880859375
ell 290, elapsed: 0.0008189678192138672
ell 289, elapsed: 0.0008249282836914062
ell 288, elapsed: 0.0009050369262695312
ell 282, elapsed: 0.0015909671783447266
ell 281, elapsed: 0.0009701251983642578
ell 280, elapsed: 0.0009069442749023438
ell 279, elapsed: 0.0008311271667480469
ell 278, elapsed: 0.0008380413055419922
ell 272, elapsed: 0.0015358924865722656
ell 271, elapsed: 0.0008358955383300781
ell 270, elapsed: 0.0008380413055419922
ell 269, elapsed: 0.000843048095703125
ell 268, elapsed: 0.0008389949798583984
ell 262, elapsed: 0.0015540122985839844
ell 261, elapsed: 0.0008120536804199219
ell 260, elapsed: 0.0008251667022705078
ell 259, elapsed: 0.0008301734924316406
ell 258, elapsed: 0.0008258819580078125
ell 252, elapsed: 0.0015690326690673828
ell 251, elapsed: 0.0008399486541748047
ell 250, elapsed: 0.0008358955383300781
ell 249, elapsed: 0.0008270740509033203
ell 248, elapsed: 0.0008170604705810547
ell 242, elapsed: 0.002649068832397461
ell 241, elapsed: 0.0008540153503417969
ell 240, elapsed: 0.0008561611175537109
ell 239, elapsed: 0.0008409023284912109
ell 238, elapsed: 0.0008339881896972656
ell 232, elapsed: 0.0015490055084228516
ell 231, elapsed: 0.0008268356323242188
ell 230, elapsed: 0.0008211135864257812
ell 229, elapsed: 0.0008249282836914062
ell 228, elapsed: 0.0008251667022705078
ell 222, elapsed: 0.0018079280853271484
ell 221, elapsed: 0.0008041858673095703
ell 220, elapsed: 0.0011348724365234375
ell 219, elapsed: 0.001104116439819336
ell 218, elapsed: 0.0008690357208251953
ell 212, elapsed: 0.002167224884033203
ell 211, elapsed: 0.0007169246673583984
ell 210, elapsed: 0.0006918907165527344
ell 209, elapsed: 0.0006568431854248047
ell 208, elapsed: 0.0006399154663085938
ell 202, elapsed: 0.0011839866638183594
ell 201, elapsed: 0.0006527900695800781
ell 200, elapsed: 0.0006649494171142578
ell 199, elapsed: 0.0008552074432373047
ell 198, elapsed: 0.0008091926574707031
ell 192, elapsed: 0.0014009475708007812
ell 191, elapsed: 0.0006361007690429688
ell 190, elapsed: 0.0006470680236816406
ell 189, elapsed: 0.0006418228149414062
ell 188, elapsed: 0.0006368160247802734
ell 182, elapsed: 0.0011858940124511719
ell 181, elapsed: 0.0006601810455322266
ell 180, elapsed: 0.0008389949798583984
ell 179, elapsed: 0.000820159912109375
ell 178, elapsed: 0.00074005126953125
ell 172, elapsed: 0.0011870861053466797
ell 171, elapsed: 0.0007069110870361328
ell 170, elapsed: 0.0009188652038574219
ell 169, elapsed: 0.0010118484497070312
ell 168, elapsed: 0.0009419918060302734
ell 162, elapsed: 0.0018169879913330078
ell 161, elapsed: 0.0009050369262695312
ell 160, elapsed: 0.0009059906005859375
ell 159, elapsed: 0.00092315673828125
ell 158, elapsed: 0.0009038448333740234
ell 152, elapsed: 0.0017070770263671875
ell 151, elapsed: 0.0010418891906738281
ell 150, elapsed: 0.0009458065032958984
ell 149, elapsed: 0.0009710788726806641
ell 148, elapsed: 0.0009441375732421875
ell 142, elapsed: 0.0017309188842773438
ell 141, elapsed: 0.00090789794921875
ell 140, elapsed: 0.0009009838104248047
ell 139, elapsed: 0.0008990764617919922
ell 138, elapsed: 0.0009129047393798828
ell 132, elapsed: 0.0017180442810058594
ell 131, elapsed: 0.0008971691131591797
ell 130, elapsed: 0.0009100437164306641
ell 129, elapsed: 0.0008962154388427734
ell 128, elapsed: 0.0008978843688964844
ell 122, elapsed: 0.0017321109771728516
ell 121, elapsed: 0.0009160041809082031
ell 120, elapsed: 0.0009009838104248047
ell 119, elapsed: 0.0008978843688964844
ell 118, elapsed: 0.0009000301361083984
ell 112, elapsed: 0.0017271041870117188
ell 111, elapsed: 0.0008969306945800781
ell 110, elapsed: 0.0008990764617919922
ell 109, elapsed: 0.0009121894836425781
ell 108, elapsed: 0.0009028911590576172
ell 102, elapsed: 0.0019571781158447266
ell 101, elapsed: 0.004667043685913086
ell 100, elapsed: 0.004438161849975586
ell 99, elapsed: 0.0038518905639648438
ell 98, elapsed: 0.0038039684295654297
ell 92, elapsed: 0.0071489810943603516
ell 91, elapsed: 0.0038270950317382812
ell 90, elapsed: 0.004209995269775391
ell 89, elapsed: 0.004333972930908203
ell 88, elapsed: 0.004125118255615234
ell 82, elapsed: 0.007359027862548828
ell 81, elapsed: 0.004546165466308594
ell 80, elapsed: 0.0047528743743896484
ell 79, elapsed: 0.004436016082763672
ell 78, elapsed: 0.004202127456665039
ell 72, elapsed: 0.007946014404296875
ell 71, elapsed: 0.0044078826904296875
ell 70, elapsed: 0.004776954650878906
ell 69, elapsed: 0.004323005676269531
ell 68, elapsed: 0.004741191864013672
ell 62, elapsed: 0.00690913200378418
ell 61, elapsed: 0.0031211376190185547
ell 60, elapsed: 0.0029439926147460938
ell 59, elapsed: 0.0028181076049804688
ell 58, elapsed: 0.002516031265258789
ell 52, elapsed: 0.00468897819519043
ell 51, elapsed: 0.0024628639221191406
ell 50, elapsed: 0.0024781227111816406
ell 49, elapsed: 0.002483844757080078
ell 48, elapsed: 0.002579927444458008
ell 42, elapsed: 0.00469207763671875
ell 41, elapsed: 0.0024929046630859375
ell 40, elapsed: 0.002454042434692383
ell 39, elapsed: 0.003103971481323242
ell 38, elapsed: 0.0046460628509521484
ell 32, elapsed: 0.007445096969604492
ell 31, elapsed: 0.004544973373413086
ell 30, elapsed: 0.0046770572662353516
ell 29, elapsed: 0.004822969436645508
ell 28, elapsed: 0.003821849822998047
ell 22, elapsed: 0.006478786468505859
ell 21, elapsed: 0.004251003265380859
ell 20, elapsed: 0.004221916198730469
ell 19, elapsed: 0.004171848297119141
ell 18, elapsed: 0.0040590763092041016
ell 12, elapsed: 0.006196022033691406
ell 11, elapsed: 0.004014015197753906
ell 10, elapsed: 0.00398707389831543
ell 9, elapsed: 0.004310131072998047
ell 8, elapsed: 0.0042209625244140625
  0.790968 seconds (66.75 k allocations: 12.139 MiB)
elapsed: 0.005278110504150391
step:          0.072906 sec (0 allocations: 0 byte, 0.0% gc time)
swapping:      0.000726 sec (0 allocations: 0 byte, 0.0% gc time)
calc_Mellell!: 0.036393 sec (0 allocations: 0 byte, 0.0% gc time)
  t0 :  0.011569 sec (0 allocations: 0 byte, 0.0% gc time)
  tm2 : 0.079031 sec (0 allocations: 0 byte, 0.0% gc time)
  tm2s: 0.00908 sec (0 allocations: 0 byte, 0.0% gc time)
  tm4 : 0.196084 sec (0 allocations: 0 byte, 0.0% gc time)
  tp2 : 0.0 sec (0 allocations: 0 byte, 0.0% gc time)
  tp2s: 0.0 sec (0 allocations: 0 byte, 0.0% gc time)
  tp4 : 0.0 sec (0 allocations: 0 byte, 0.0% gc time)
calc_wtdll!:   0.559115 sec (49.2 k allocations: 11.133 MB, 0.0% gc time)
calc_wljj!:    0.041826 sec (69 allocations: 1.078 KB, 0.0% gc time)
mult_prefac!:  0.0 sec (0 allocations: 0 byte, 0.0% gc time)
convert:       0.0 sec (0 allocations: 0 byte, 0.0% gc time)
write:         0.036503 sec (0 allocations: 0 byte, 0.0% gc time)
test_rand_2f1: 0.0 sec (0 allocations: 0 byte, 0.0% gc time)
Closing outfile out/MlCache/MlCache.bin...   0.000010 seconds
xi, l=0, nu=0:   0.401092 seconds (551.85 k allocations: 26.842 MiB, 3.66% gc time)
xi, l=0, nu=-2:  0.001661 seconds (144 allocations: 149.562 KiB)
Created 'out/xi.tsv'.
  q=1.1, R=0.6:	  0.728859 seconds (291.08 k allocations: 38.895 MiB, 1.50% gc time)
  q=1.1, R=0.7:	  0.855233 seconds (304.75 k allocations: 40.996 MiB, 1.11% gc time)
  q=1.1, R=0.8:	  0.863771 seconds (299.14 k allocations: 40.132 MiB, 0.87% gc time)
  q=1.1, R=0.9:	  0.990392 seconds (293.57 k allocations: 39.286 MiB, 0.77% gc time)
  q=1.1, R=0.998:	 20.662261 seconds (10.67 M allocations: 823.453 MiB, 0.22% gc time)
  q=1.1, R=1.0:	  0.003931 seconds (10.24 k allocations: 768.375 KiB)

ℓ = 1000
Δℓ = 4
ΔℓRg1 = -4
N = 4096
q = 1.1
kmin = 1.0e-5
kmax = 1000.0
χ0 = 0.001
RR = RR.tsv
ℓmax = ℓmax.bin
f21 = f21.bin
kmin = 1.0e-5
kmax = 1000.0
dlrec    = 4
dlrecRg1 = -4
Output size: 1573632 bytes = 0.0014655590057373047 GiB
Output size: 786816 bytes = 0.0007327795028686523 GiB
Reading 'out/F21EllCache'...   0.001365 seconds (268 allocations: 533.531 KiB)
ellmax: 1002
lmaxcache: 1000
fell[:,1,1] = Complex{Float64}[1.7262928128202118e-224 - 4.2281979352226944e-240im, 1.7282693092099662e-224 - 4.233038955177176e-240im]
ell 1002, elapsed: 3.790855407714844e-5
ell 1001, elapsed: 0.0007660388946533203
ell 1000, elapsed: 0.0006940364837646484
ell 999, elapsed: 0.006739139556884766
ell 998, elapsed: 0.006100893020629883
ell 44, elapsed: 0.6277270317077637
ell 43, elapsed: 0.005228996276855469
ell 42, elapsed: 0.005259990692138672
ell 41, elapsed: 0.005199909210205078
ell 40, elapsed: 0.005192995071411133
  0.669606 seconds (4.55 k allocations: 320.359 KiB)
elapsed: 0.006333112716674805
step:          0.624919 sec (0 allocations: 0 byte, 0.0% gc time)
swapping:      0.000614 sec (0 allocations: 0 byte, 0.0% gc time)
calc_Mellell!: 0.001182 sec (0 allocations: 0 byte, 0.0% gc time)
  t0 :  0.000438 sec (0 allocations: 0 byte, 0.0% gc time)
  tm2 : 0.009941 sec (0 allocations: 0 byte, 0.0% gc time)
  tm2s: 0.000294 sec (0 allocations: 0 byte, 0.0% gc time)
  tm4 : 0.026575 sec (0 allocations: 0 byte, 0.0% gc time)
  tp2 : 0.0 sec (0 allocations: 0 byte, 0.0% gc time)
  tp2s: 0.0 sec (0 allocations: 0 byte, 0.0% gc time)
  tp4 : 0.0 sec (0 allocations: 0 byte, 0.0% gc time)
calc_wtdll!:   0.037469 sec (480 allocations: 52.5 KB, 0.0% gc time)
calc_wljj!:    0.001179 sec (1 allocations: 16 byte, 0.0% gc time)
mult_prefac!:  0.0 sec (0 allocations: 0 byte, 0.0% gc time)
convert:       0.0 sec (0 allocations: 0 byte, 0.0% gc time)
write:         0.001045 sec (0 allocations: 0 byte, 0.0% gc time)
test_rand_2f1: 0.0 sec (0 allocations: 0 byte, 0.0% gc time)
Closing outfile out/MlCache/MlCache.bin...   0.001176 seconds
  0.499332 seconds (54 allocations: 67.203 KiB)
make_phi():   0.009534 seconds (80 allocations: 276.297 KiB)
  0.003146 seconds (108 allocations: 5.812 KiB)
tskip:       1.0e-6 sec (0 allocations: 0 byte, 0.0% gc time)
tread:       0.014232 sec (19 allocations: 1.312 KB, 0.0% gc time)
tmultphi:    0.00037 sec (0 allocations: 0 byte, 0.0% gc time)
tbrfft:      0.001171 sec (96 allocations: 4.5 KB, 0.0% gc time)
tmultprefac: 0.000941 sec (0 allocations: 0 byte, 0.0% gc time)
toutfunc:    0.00012 sec (0 allocations: 0 byte, 0.0% gc time)
Created 'out/wl42_jj00.tsv'.
Created 'out/wl42_jj02.tsv'.
   Testing TwoFAST tests passed 
