Julia Version 1.6.0-DEV.1124
Commit 55a6dab763 (2020-10-04 09:06 UTC)
Platform Info:
  OS: Linux (x86_64-pc-linux-gnu)
  CPU: AMD EPYC 7502 32-Core Processor
  WORD_SIZE: 64
  LIBM: libopenlibm
  LLVM: libLLVM-10.0.1 (ORCJIT, znver2)
Environment:
  JULIA_DEPOT_PATH = ::/usr/local/share/julia
  JULIA_NUM_THREADS = 2

  Resolving package versions...
  Installed Reexport ───────────────────── v0.2.0
  Installed OpenSpecFun_jll ────────────── v0.5.3+3
  Installed GenericSVD ─────────────────── v0.3.0
  Installed AbstractFFTs ───────────────── v0.5.0
  Installed SpecialFunctions ───────────── v0.10.3
  Installed GenericSchur ───────────────── v0.4.0
  Installed ArbNumerics ────────────────── v1.2.1
  Installed MKL_jll ────────────────────── v2020.2.254+0
  Installed Readables ──────────────────── v0.3.3
  Installed FFTW_jll ───────────────────── v3.3.9+5
  Installed FFTW ───────────────────────── v1.2.4
  Installed BinaryProvider ─────────────── v0.5.10
  Installed TwoFAST ────────────────────── v0.1.3
  Installed IntelOpenMP_jll ────────────── v2018.0.3+0
  Installed CompilerSupportLibraries_jll ─ v0.3.3+0
Updating `~/.julia/environments/v1.6/Project.toml`
  [0dd23c3e] + TwoFAST v0.1.3
Updating `~/.julia/environments/v1.6/Manifest.toml`
  [621f4979] + AbstractFFTs v0.5.0
  [7e558dbc] + ArbNumerics v1.2.1
  [b99e7846] + BinaryProvider v0.5.10
  [e66e0078] + CompilerSupportLibraries_jll v0.3.3+0
  [7a1cc6ca] + FFTW v1.2.4
  [f5851436] + FFTW_jll v3.3.9+5
  [01680d73] + GenericSVD v0.3.0
  [c145ed77] + GenericSchur v0.4.0
  [1d5cc7b8] + IntelOpenMP_jll v2018.0.3+0
  [856f044c] + MKL_jll v2020.2.254+0
  [efe28fd5] + OpenSpecFun_jll v0.5.3+3
  [0d4725de] + Readables v0.3.3
  [189a3867] + Reexport v0.2.0
  [276daf66] + SpecialFunctions v0.10.3
  [0dd23c3e] + TwoFAST v0.1.3
  [56f22d72] + Artifacts
  [2a0f44e3] + Base64
  [ade2ca70] + Dates
  [8bb1440f] + DelimitedFiles
  [8ba89e20] + Distributed
  [b77e0a4c] + InteractiveUtils
  [76f85450] + LibGit2
  [8f399da3] + Libdl
  [37e2e46d] + LinearAlgebra
  [56ddb016] + Logging
  [d6f4376e] + Markdown
  [a63ad114] + Mmap
  [44cfe95a] + Pkg
  [de0858da] + Printf
  [3fa0cd96] + REPL
  [9a3f8284] + Random
  [ea8e919c] + SHA
  [9e88b42a] + Serialization
  [6462fe0b] + Sockets
  [fa267f1f] + TOML
  [8dfed614] + Test
  [cf7118a7] + UUIDs
  [4ec0a83e] + Unicode
   Building ArbNumerics → `~/.julia/scratchspaces/44cfe95a-1eb2-52ea-b672-e2afdf69b78f/329a81d67c64e3a51c176a243b6424fbe39213d0/build.log`
   Building FFTW ───────→ `~/.julia/scratchspaces/44cfe95a-1eb2-52ea-b672-e2afdf69b78f/8b7c16b56936047ca41bf25effa137ae0b381ae8/build.log`
    Testing TwoFAST
Status `/tmp/jl_ogSTKX/Project.toml`
  [7e558dbc] ArbNumerics v1.2.1
  [39dd38d3] Dierckx v0.5.0
  [7a1cc6ca] FFTW v1.2.4
  [276daf66] SpecialFunctions v0.10.3
  [0dd23c3e] TwoFAST v0.1.3
  [8bb1440f] DelimitedFiles
  [37e2e46d] LinearAlgebra
  [56ddb016] Logging
  [8dfed614] Test
Status `/tmp/jl_ogSTKX/Manifest.toml`
  [621f4979] AbstractFFTs v0.5.0
  [7e558dbc] ArbNumerics v1.2.1
  [b99e7846] BinaryProvider v0.5.10
  [e66e0078] CompilerSupportLibraries_jll v0.3.3+0
  [39dd38d3] Dierckx v0.5.0
  [cd4c43a9] Dierckx_jll v0.0.1+0
  [7a1cc6ca] FFTW v1.2.4
  [f5851436] FFTW_jll v3.3.9+5
  [01680d73] GenericSVD v0.3.0
  [c145ed77] GenericSchur v0.4.0
  [1d5cc7b8] IntelOpenMP_jll v2018.0.3+0
  [856f044c] MKL_jll v2020.2.254+0
  [efe28fd5] OpenSpecFun_jll v0.5.3+3
  [0d4725de] Readables v0.3.3
  [189a3867] Reexport v0.2.0
  [276daf66] SpecialFunctions v0.10.3
  [0dd23c3e] TwoFAST v0.1.3
  [56f22d72] Artifacts
  [2a0f44e3] Base64
  [ade2ca70] Dates
  [8bb1440f] DelimitedFiles
  [8ba89e20] Distributed
  [b77e0a4c] InteractiveUtils
  [76f85450] LibGit2
  [8f399da3] Libdl
  [37e2e46d] LinearAlgebra
  [56ddb016] Logging
  [d6f4376e] Markdown
  [a63ad114] Mmap
  [44cfe95a] Pkg
  [de0858da] Printf
  [3fa0cd96] REPL
  [9a3f8284] Random
  [ea8e919c] SHA
  [9e88b42a] Serialization
  [6462fe0b] Sockets
  [fa267f1f] TOML
  [8dfed614] Test
  [cf7118a7] UUIDs
  [4ec0a83e] Unicode
    Testing Running tests...
WARNING: could not import Printf.ini_hex into ArbNumerics
WARNING: could not import Printf.ini_HEX into ArbNumerics
t = 0.0 sec (0 allocations: 0 byte, 0.0% gc time)
typeof(t) = NamedTuple{(:value, :time, :bytes, :gctime, :gcstats), Tuple{DataType, Float64, Int64, Float64, Base.GC_Diff}}
TwoFAST.PerformanceStats.TimedType = Union{NamedTuple{(:value, :time, :bytes, :gctime, :gcstats), Tuple{T, Float64, Int64, Float64, Base.GC_Diff}}, Tuple{Any, Float64, Int64, Float64, Base.GC_Diff}} where T
t = 0.0 sec (0 allocations: 0 byte, 0.0% gc time)
t: 0.0 sec (0 allocations: 0 byte, 0.0% gc time)
Testing ξ(r), ℓ=0, ν=-1 ... passed
Testing ξ(r), ℓ=0, ν=0 ... passed
Testing ξ(r), ℓ=0, ν=1 ... passed
Testing ξ(r), ℓ=0, ν=2 ... passed
Testing ξ(r), ℓ=0, ν=3 ... passed
Testing ξ(r), ℓ=1, ν=0 ... passed
Testing ξ(r), ℓ=1, ν=1 ... passed
Testing ξ(r), ℓ=1, ν=2 ... passed
Testing ξ(r), ℓ=1, ν=3 ... passed
Testing ξ(r), ℓ=2, ν=-1 ... passed
Testing ξ(r), ℓ=2, ν=0 ... passed
Testing ξ(r), ℓ=2, ν=1 ... passed
Testing ξ(r), ℓ=2, ν=2 ... passed
Testing ξ(r), ℓ=2, ν=3 ... passed
Testing ξ(r), ℓ=3, ν=-1 ... passed
Testing ξ(r), ℓ=3, ν=0 ... passed
Testing ξ(r), ℓ=3, ν=1 ... passed
Testing ξ(r), ℓ=3, ν=2 ... passed
Testing ξ(r), ℓ=3, ν=3 ... passed
Testing ξ(r), ℓ=4, ν=-1 ... passed
Testing ξ(r), ℓ=4, ν=0 ... passed
Testing ξ(r), ℓ=4, ν=1 ... passed
Testing ξ(r), ℓ=4, ν=2 ... passed
Testing ξ(r), ℓ=4, ν=3 ... passed
Testing ξ(r) ... passed
Testing ξ′(r) ... passed
Testing ξ″(r) ... passed
Calculating fmax: 
  dlrec    = 4
  dlrecRg1 = -4
  q=1.1, R=1.1:	  3.539727 seconds (842.89 k allocations: 53.901 MiB, 1.59% gc time, 91.07% compilation time)

  3.552744 seconds (855.38 k allocations: 54.689 MiB, 1.58% gc time, 91.09% compilation time)
ℓ = 1202
Δℓ = 4
ΔℓRg1 = -4
N = 1600
q = 1.1
kmin = 1.0e-5
kmax = 100000.00000000004
χ0 = 0.023029999999999995
RR = RR.tsv
ℓmax = ℓmax.bin
f21 = f21.bin
kmin = 1.0e-5
kmax = 100000.0
dlrec    = 4
dlrecRg1 = -4
Output size: 5741568 bytes = 0.005347251892089844 GiB
Output size: 51264 bytes = 4.774332046508789e-5 GiB
Reading 'out/F21EllCache'...   0.696515 seconds (426.51 k allocations: 24.996 MiB, 4.24% gc time, 99.59% compilation time)
ellmax: 1202
lmaxcache: 1202
fell[:,1,1] = ComplexF64[3.9583795592771634e-52 - 9.695233714158177e-68im, 3.990121772925759e-52 - 9.772979714843386e-68im]
ell 1202, elapsed: 4.100799560546875e-5
ell 1201, elapsed: 1.1661219596862793
ell 1200, elapsed: 0.0004150867462158203
ell 1199, elapsed: 0.00038313865661621094
ell 1198, elapsed: 0.0003829002380371094
ell 1002, elapsed: 0.00851297378540039
ell 1001, elapsed: 0.0003981590270996094
ell 1000, elapsed: 0.0003840923309326172
ell 999, elapsed: 0.0003840923309326172
ell 998, elapsed: 0.0004429817199707031
ell 902, elapsed: 0.004367828369140625
ell 901, elapsed: 0.00039505958557128906
ell 900, elapsed: 0.00038504600524902344
ell 899, elapsed: 0.0003809928894042969
ell 898, elapsed: 0.00037980079650878906
ell 802, elapsed: 0.004405975341796875
ell 801, elapsed: 0.0004000663757324219
ell 800, elapsed: 0.0003960132598876953
ell 799, elapsed: 0.0004341602325439453
ell 798, elapsed: 0.0003898143768310547
ell 702, elapsed: 0.004481077194213867
ell 701, elapsed: 0.00040602684020996094
ell 700, elapsed: 0.0003910064697265625
ell 699, elapsed: 0.00039386749267578125
ell 698, elapsed: 0.0003941059112548828
ell 602, elapsed: 0.004396915435791016
ell 601, elapsed: 0.0004019737243652344
ell 600, elapsed: 0.0003960132598876953
ell 599, elapsed: 0.0003960132598876953
ell 598, elapsed: 0.00039505958557128906
ell 502, elapsed: 0.004410982131958008
ell 501, elapsed: 0.0004050731658935547
ell 500, elapsed: 0.0003910064697265625
ell 499, elapsed: 0.00039696693420410156
ell 498, elapsed: 0.00039505958557128906
ell 402, elapsed: 0.004382133483886719
ell 401, elapsed: 0.0004010200500488281
ell 400, elapsed: 0.0005068778991699219
ell 399, elapsed: 0.00038886070251464844
ell 398, elapsed: 0.0003910064697265625
ell 302, elapsed: 0.004369974136352539
ell 301, elapsed: 0.0003972053527832031
ell 300, elapsed: 0.0003948211669921875
ell 299, elapsed: 0.0003941059112548828
ell 298, elapsed: 0.00038909912109375
ell 202, elapsed: 0.004396915435791016
ell 201, elapsed: 0.0004341602325439453
ell 200, elapsed: 0.0003941059112548828
ell 199, elapsed: 0.00039315223693847656
ell 198, elapsed: 0.00039577484130859375
ell 152, elapsed: 0.0023391246795654297
ell 151, elapsed: 0.0004620552062988281
ell 150, elapsed: 0.00039196014404296875
ell 149, elapsed: 0.00039315223693847656
ell 148, elapsed: 0.0003960132598876953
ell 127, elapsed: 0.001302957534790039
ell 126, elapsed: 0.0004088878631591797
ell 125, elapsed: 0.0003979206085205078
ell 124, elapsed: 0.00043010711669921875
ell 123, elapsed: 0.000392913818359375
ell 114, elapsed: 0.0007889270782470703
ell 113, elapsed: 0.0003910064697265625
ell 112, elapsed: 0.0003879070281982422
ell 111, elapsed: 0.00038909912109375
ell 110, elapsed: 0.0003960132598876953
ell 102, elapsed: 0.000759124755859375
ell 101, elapsed: 0.0004899501800537109
ell 100, elapsed: 0.0003960132598876953
ell 99, elapsed: 0.0003879070281982422
ell 98, elapsed: 0.00039196014404296875
ell 97, elapsed: 0.00046706199645996094
ell 96, elapsed: 0.0004470348358154297
ell 95, elapsed: 0.0004470348358154297
ell 94, elapsed: 0.00044798851013183594
ell 93, elapsed: 0.00044083595275878906
ell 92, elapsed: 0.0004899501800537109
ell 91, elapsed: 0.0004439353942871094
ell 90, elapsed: 0.0004439353942871094
ell 89, elapsed: 0.00044798851013183594
ell 88, elapsed: 0.0004401206970214844
ell 87, elapsed: 0.00044083595275878906
ell 86, elapsed: 0.0004410743713378906
ell 85, elapsed: 0.00045299530029296875
ell 84, elapsed: 0.00044798851013183594
ell 83, elapsed: 0.00043702125549316406
ell 82, elapsed: 0.000453948974609375
ell 81, elapsed: 0.0004410743713378906
ell 80, elapsed: 0.00043392181396484375
ell 79, elapsed: 0.0004420280456542969
ell 78, elapsed: 0.0004360675811767578
ell 77, elapsed: 0.0004451274871826172
ell 76, elapsed: 0.00043702125549316406
ell 75, elapsed: 0.0004749298095703125
ell 74, elapsed: 0.0004591941833496094
ell 73, elapsed: 0.0004439353942871094
ell 72, elapsed: 0.00045299530029296875
ell 71, elapsed: 0.0004448890686035156
ell 70, elapsed: 0.0004470348358154297
ell 69, elapsed: 0.00044608116149902344
ell 68, elapsed: 0.00044798851013183594
ell 67, elapsed: 0.0004551410675048828
ell 66, elapsed: 0.0004439353942871094
ell 65, elapsed: 0.0004467964172363281
ell 64, elapsed: 0.0004520416259765625
ell 63, elapsed: 0.0004398822784423828
ell 62, elapsed: 0.0004470348358154297
ell 61, elapsed: 0.0004341602325439453
ell 60, elapsed: 0.00043892860412597656
ell 59, elapsed: 0.00043392181396484375
ell 58, elapsed: 0.0004742145538330078
ell 57, elapsed: 0.0004439353942871094
ell 56, elapsed: 0.0004429817199707031
ell 55, elapsed: 0.00044798851013183594
ell 54, elapsed: 0.00044083595275878906
ell 53, elapsed: 0.0004420280456542969
ell 52, elapsed: 0.0004410743713378906
ell 51, elapsed: 0.0004401206970214844
ell 50, elapsed: 0.0004429817199707031
ell 49, elapsed: 0.00047588348388671875
ell 48, elapsed: 0.0004298686981201172
ell 47, elapsed: 0.0004489421844482422
ell 46, elapsed: 0.00043392181396484375
ell 45, elapsed: 0.0004398822784423828
ell 44, elapsed: 0.00043702125549316406
ell 43, elapsed: 0.00043702125549316406
ell 42, elapsed: 0.0004420280456542969
ell 41, elapsed: 0.0004858970642089844
ell 40, elapsed: 0.0004398822784423828
ell 39, elapsed: 0.00044083595275878906
ell 38, elapsed: 0.00043201446533203125
ell 37, elapsed: 0.00044798851013183594
ell 36, elapsed: 0.00043487548828125
ell 35, elapsed: 0.00044989585876464844
ell 34, elapsed: 0.0004379749298095703
ell 33, elapsed: 0.00043892860412597656
ell 32, elapsed: 0.0004849433898925781
ell 31, elapsed: 0.0004429817199707031
ell 30, elapsed: 0.0004470348358154297
ell 29, elapsed: 0.0004451274871826172
ell 28, elapsed: 0.00043892860412597656
ell 27, elapsed: 0.0004489421844482422
ell 26, elapsed: 0.0004420280456542969
ell 25, elapsed: 0.0004489421844482422
ell 24, elapsed: 0.0004851818084716797
ell 23, elapsed: 0.0004429817199707031
ell 22, elapsed: 0.00044798851013183594
ell 21, elapsed: 0.0004410743713378906
ell 20, elapsed: 0.0004558563232421875
ell 19, elapsed: 0.0004420280456542969
ell 18, elapsed: 0.0004429817199707031
ell 17, elapsed: 0.00045180320739746094
ell 16, elapsed: 0.0004420280456542969
ell 15, elapsed: 0.0005137920379638672
ell 14, elapsed: 0.0004508495330810547
ell 13, elapsed: 0.00044608116149902344
ell 12, elapsed: 0.00045299530029296875
ell 11, elapsed: 0.00044608116149902344
ell 10, elapsed: 0.00045013427734375
ell 9, elapsed: 0.0004451274871826172
ell 8, elapsed: 0.000453948974609375
ell 7, elapsed: 0.0005419254302978516
ell 6, elapsed: 0.0004439353942871094
ell 5, elapsed: 0.0004458427429199219
ell 4, elapsed: 0.00043582916259765625
ell 3, elapsed: 0.0004429817199707031
ell 2, elapsed: 0.00044989585876464844
ell 1, elapsed: 0.0004420280456542969
ell 0, elapsed: 0.00045609474182128906
  1.776024 seconds (1.38 M allocations: 74.481 MiB, 2.97% gc time, 93.24% compilation time)
elapsed: 0.0006048679351806641
step:          0.339314 sec (311.14 k allocations: 16.963 MB, 6.0% gc time)
swapping:      0.00035 sec (0 allocations: 0 byte, 0.0% gc time)
calc_Mellell!: 0.131287 sec (135.739 k allocations: 7.431 MB, 0.0% gc time)
  t0 :  0.0 sec (0 allocations: 0 byte, 0.0% gc time)
  tm2 : 0.0 sec (0 allocations: 0 byte, 0.0% gc time)
  tm2s: 0.0 sec (0 allocations: 0 byte, 0.0% gc time)
  tm4 : 0.0 sec (0 allocations: 0 byte, 0.0% gc time)
  tp2 : 0.0 sec (0 allocations: 0 byte, 0.0% gc time)
  tp2s: 0.0 sec (0 allocations: 0 byte, 0.0% gc time)
  tp4 : 0.0 sec (0 allocations: 0 byte, 0.0% gc time)
calc_wtdll!:   0.800157 sec (509.623 k allocations: 28.197 MB, 0.0% gc time)
calc_wljj!:    0.002353 sec (6 allocations: 96 byte, 0.0% gc time)
mult_prefac!:  0.0 sec (0 allocations: 0 byte, 0.0% gc time)
convert:       0.0 sec (0 allocations: 0 byte, 0.0% gc time)
write:         0.003208 sec (0 allocations: 0 byte, 0.0% gc time)
test_rand_2f1: 0.0 sec (0 allocations: 0 byte, 0.0% gc time)
Closing outfile out/Ml21-cache.bin...   0.000010 seconds
  0.972965 seconds (246.36 k allocations: 14.218 MiB, 40.55% compilation time)
make_phi():   0.008552 seconds (8.18 k allocations: 237.844 KiB)
  0.215996 seconds (87.57 k allocations: 4.748 MiB, 94.07% compilation time)
tskip:       1.4e-5 sec (0 allocations: 0 byte, 0.0% gc time)
tread:       0.001992 sec (17 allocations: 2.125 KB, 0.0% gc time)
tmultphi:    0.038663 sec (21.425 k allocations: 1.287 MB, 0.0% gc time)
tbrfft:      0.003044 sec (0 allocations: 0 byte, 0.0% gc time)
tmultprefac: 0.001821 sec (0 allocations: 0 byte, 0.0% gc time)
toutfunc:    0.134935 sec (64.483 k allocations: 3.329 MB, 0.0% gc time)
Testing R=1.1 ... passed
Calculating fmax: 
  dlrec    = 4
  dlrecRg1 = -4
  q=1.1, R=1.0:	  0.001227 seconds (3.20 k allocations: 275.344 KiB)

  0.001326 seconds (3.25 k allocations: 310.312 KiB)
ℓ = 1202
Δℓ = 4
ΔℓRg1 = -4
N = 1600
q = 1.1
kmin = 1.0e-5
kmax = 100000.00000000004
χ0 = 0.023029999999999995
RR = RR.tsv
ℓmax = ℓmax.bin
f21 = f21.bin
kmin = 1.0e-5
kmax = 100000.0
dlrec    = 4
dlrecRg1 = -4
Output size: 61465536 bytes = 0.05724424123764038 GiB
Output size: 51264 bytes = 4.774332046508789e-5 GiB
Reading 'out/F21EllCache'...   0.000727 seconds (197 allocations: 84.203 KiB)
ellmax: 1202
lmaxcache: 1202
fell[:,1,1] = ComplexF64[809.6031528389767 - 1.9829558194077161e-13im, 0.0 + 0.0im]
ell 1202, elapsed: 2.09808349609375e-5
ell 1201, elapsed: 0.012962818145751953
ell 1200, elapsed: 0.01322793960571289
ell 1199, elapsed: 0.00026607513427734375
ell 1198, elapsed: 0.0002639293670654297
ell 1197, elapsed: 0.0003380775451660156
ell 1196, elapsed: 0.00030493736267089844
ell 1195, elapsed: 0.0003008842468261719
ell 1194, elapsed: 0.0003039836883544922
ell 1193, elapsed: 0.00030112266540527344
ell 1192, elapsed: 0.00030303001403808594
ell 1191, elapsed: 0.00030303001403808594
ell 1190, elapsed: 0.0003058910369873047
ell 1189, elapsed: 0.0003018379211425781
ell 1188, elapsed: 0.0003478527069091797
ell 1187, elapsed: 0.0003039836883544922
ell 1186, elapsed: 0.0003159046173095703
ell 1185, elapsed: 0.0003018379211425781
ell 1184, elapsed: 0.00030493736267089844
ell 1183, elapsed: 0.0003020763397216797
ell 1182, elapsed: 0.0003001689910888672
ell 1181, elapsed: 0.000308990478515625
ell 1180, elapsed: 0.0003008842468261719
ell 1179, elapsed: 0.0003108978271484375
ell 1178, elapsed: 0.00030803680419921875
ell 1177, elapsed: 0.00030493736267089844
ell 1176, elapsed: 0.0003490447998046875
ell 1175, elapsed: 0.00030612945556640625
ell 1174, elapsed: 0.000308990478515625
ell 1173, elapsed: 0.00030517578125
ell 1172, elapsed: 0.000308990478515625
ell 1171, elapsed: 0.000308990478515625
ell 1170, elapsed: 0.00030493736267089844
ell 1169, elapsed: 0.00031495094299316406
ell 1168, elapsed: 0.0003070831298828125
ell 1167, elapsed: 0.00030422210693359375
ell 1166, elapsed: 0.00030994415283203125
ell 1165, elapsed: 0.0002999305725097656
ell 1164, elapsed: 0.0003330707550048828
ell 1163, elapsed: 0.00031280517578125
ell 1162, elapsed: 0.0003020763397216797
ell 1161, elapsed: 0.000308990478515625
ell 1160, elapsed: 0.0003070831298828125
ell 1159, elapsed: 0.00030803680419921875
ell 1158, elapsed: 0.0003020763397216797
ell 1157, elapsed: 0.0003058910369873047
ell 1156, elapsed: 0.0003058910369873047
ell 1155, elapsed: 0.0003008842468261719
ell 1154, elapsed: 0.0003077983856201172
ell 1153, elapsed: 0.0003039836883544922
ell 1152, elapsed: 0.00030922889709472656
ell 1151, elapsed: 0.0003809928894042969
ell 1150, elapsed: 0.0003020763397216797
ell 1149, elapsed: 0.00030493736267089844
ell 1148, elapsed: 0.0003008842468261719
ell 1147, elapsed: 0.000308990478515625
ell 1146, elapsed: 0.0002999305725097656
ell 1145, elapsed: 0.0003018379211425781
ell 1144, elapsed: 0.00031304359436035156
ell 1143, elapsed: 0.0003018379211425781
ell 1142, elapsed: 0.00030684471130371094
ell 1141, elapsed: 0.00030303001403808594
ell 1140, elapsed: 0.0003018379211425781
ell 1139, elapsed: 0.0003249645233154297
ell 1138, elapsed: 0.00030303001403808594
ell 1137, elapsed: 0.00030612945556640625
ell 1136, elapsed: 0.00030303001403808594
ell 1135, elapsed: 0.0003001689910888672
ell 1134, elapsed: 0.0003070831298828125
ell 1133, elapsed: 0.0003018379211425781
ell 1132, elapsed: 0.0003139972686767578
ell 1131, elapsed: 0.00030493736267089844
ell 1130, elapsed: 0.00030493736267089844
ell 1129, elapsed: 0.0003070831298828125
ell 1128, elapsed: 0.0003027915954589844
ell 1127, elapsed: 0.00033593177795410156
ell 1126, elapsed: 0.00030803680419921875
ell 1125, elapsed: 0.0003077983856201172
ell 1124, elapsed: 0.00030612945556640625
ell 1123, elapsed: 0.0003020763397216797
ell 1122, elapsed: 0.00030493736267089844
ell 1121, elapsed: 0.0003039836883544922
ell 1120, elapsed: 0.000308990478515625
ell 1119, elapsed: 0.0003101825714111328
ell 1118, elapsed: 0.00030493736267089844
ell 1117, elapsed: 0.000308990478515625
ell 1116, elapsed: 0.00030303001403808594
ell 1115, elapsed: 0.00030493736267089844
ell 1114, elapsed: 0.0003161430358886719
ell 1113, elapsed: 0.00030517578125
ell 1112, elapsed: 0.0003101825714111328
ell 1111, elapsed: 0.0003070831298828125
ell 1110, elapsed: 0.00030112266540527344
ell 1109, elapsed: 0.00031185150146484375
ell 1108, elapsed: 0.00030422210693359375
ell 1107, elapsed: 0.00031495094299316406
ell 1106, elapsed: 0.0003070831298828125
ell 1105, elapsed: 0.0003120899200439453
ell 1104, elapsed: 0.0003039836883544922
ell 1103, elapsed: 0.00030493736267089844
ell 1102, elapsed: 0.00035190582275390625
ell 1101, elapsed: 0.0003008842468261719
ell 1100, elapsed: 0.0002970695495605469
ell 1099, elapsed: 0.00030684471130371094
ell 1098, elapsed: 0.0002999305725097656
ell 1097, elapsed: 0.00030803680419921875
ell 1096, elapsed: 0.00030303001403808594
ell 1095, elapsed: 0.0003108978271484375
ell 1094, elapsed: 0.0003039836883544922
ell 1093, elapsed: 0.0003058910369873047
ell 1092, elapsed: 0.00030803680419921875
ell 1091, elapsed: 0.00030303001403808594
ell 1090, elapsed: 0.00036406517028808594
ell 1089, elapsed: 0.00031185150146484375
ell 1088, elapsed: 0.0003070831298828125
ell 1087, elapsed: 0.0003108978271484375
ell 1086, elapsed: 0.0003058910369873047
ell 1085, elapsed: 0.00030994415283203125
ell 1084, elapsed: 0.00030612945556640625
ell 1083, elapsed: 0.0003039836883544922
ell 1082, elapsed: 0.00031185150146484375
ell 1081, elapsed: 0.00029778480529785156
ell 1080, elapsed: 0.000308990478515625
ell 1079, elapsed: 0.0003018379211425781
ell 1078, elapsed: 0.00032210350036621094
ell 1077, elapsed: 0.00031113624572753906
ell 1076, elapsed: 0.0003020763397216797
ell 1075, elapsed: 0.0003058910369873047
ell 1074, elapsed: 0.0003020763397216797
ell 1073, elapsed: 0.0002970695495605469
ell 1072, elapsed: 0.0003020763397216797
ell 1071, elapsed: 0.00030303001403808594
ell 1070, elapsed: 0.0003018379211425781
ell 1069, elapsed: 0.00029778480529785156
ell 1068, elapsed: 0.0003008842468261719
ell 1067, elapsed: 0.0002989768981933594
ell 1066, elapsed: 0.00029778480529785156
ell 1065, elapsed: 0.0003120899200439453
ell 1064, elapsed: 0.00030112266540527344
ell 1063, elapsed: 0.0002980232238769531
ell 1062, elapsed: 0.00030493736267089844
ell 1061, elapsed: 0.0003018379211425781
ell 1060, elapsed: 0.0003018379211425781
ell 1059, elapsed: 0.0002968311309814453
ell 1058, elapsed: 0.00030517578125
ell 1057, elapsed: 0.000308990478515625
ell 1056, elapsed: 0.0003020763397216797
ell 1055, elapsed: 0.00030684471130371094
ell 1054, elapsed: 0.0002999305725097656
ell 1053, elapsed: 0.00033593177795410156
ell 1052, elapsed: 0.0002989768981933594
ell 1051, elapsed: 0.0003039836883544922
ell 1050, elapsed: 0.00030803680419921875
ell 1049, elapsed: 0.00033593177795410156
ell 1048, elapsed: 0.0003409385681152344
ell 1047, elapsed: 0.0003330707550048828
ell 1046, elapsed: 0.00031685829162597656
ell 1045, elapsed: 0.0003209114074707031
ell 1044, elapsed: 0.00030422210693359375
ell 1043, elapsed: 0.0003352165222167969
ell 1042, elapsed: 0.00029397010803222656
ell 1041, elapsed: 0.00031685829162597656
ell 1040, elapsed: 0.0003199577331542969
ell 1039, elapsed: 0.0003039836883544922
ell 1038, elapsed: 0.0002999305725097656
ell 1037, elapsed: 0.0002980232238769531
ell 1036, elapsed: 0.0002961158752441406
ell 1035, elapsed: 0.000308990478515625
ell 1034, elapsed: 0.0002951622009277344
ell 1033, elapsed: 0.0003209114074707031
ell 1032, elapsed: 0.0002970695495605469
ell 1031, elapsed: 0.0002989768981933594
ell 1030, elapsed: 0.00030112266540527344
ell 1029, elapsed: 0.0003330707550048828
ell 1028, elapsed: 0.0003039836883544922
ell 1027, elapsed: 0.00030112266540527344
ell 1026, elapsed: 0.0002989768981933594
ell 1025, elapsed: 0.00029397010803222656
ell 1024, elapsed: 0.0002880096435546875
ell 1023, elapsed: 0.0003039836883544922
ell 1022, elapsed: 0.0002989768981933594
ell 1021, elapsed: 0.0002970695495605469
ell 1020, elapsed: 0.0003108978271484375
ell 1019, elapsed: 0.0002980232238769531
ell 1018, elapsed: 0.0003070831298828125
ell 1017, elapsed: 0.0002949237823486328
ell 1016, elapsed: 0.0003161430358886719
ell 1015, elapsed: 0.0003058910369873047
ell 1014, elapsed: 0.0002999305725097656
ell 1013, elapsed: 0.00030994415283203125
ell 1012, elapsed: 0.0003020763397216797
ell 1011, elapsed: 0.0002961158752441406
ell 1010, elapsed: 0.00030303001403808594
ell 1009, elapsed: 0.0002970695495605469
ell 1008, elapsed: 0.0003190040588378906
ell 1007, elapsed: 0.0002989768981933594
ell 1006, elapsed: 0.0003070831298828125
ell 1005, elapsed: 0.0003070831298828125
ell 1004, elapsed: 0.00032711029052734375
ell 1003, elapsed: 0.000308990478515625
ell 1002, elapsed: 0.0002999305725097656
ell 1001, elapsed: 0.0002999305725097656
ell 1000, elapsed: 0.0003120899200439453
ell 999, elapsed: 0.0003020763397216797
ell 998, elapsed: 0.00031495094299316406
ell 997, elapsed: 0.0002999305725097656
ell 996, elapsed: 0.0003108978271484375
ell 995, elapsed: 0.00030303001403808594
ell 994, elapsed: 0.00030493736267089844
ell 993, elapsed: 0.00030684471130371094
ell 992, elapsed: 0.0002970695495605469
ell 991, elapsed: 0.00031304359436035156
ell 990, elapsed: 0.0003039836883544922
ell 989, elapsed: 0.0003039836883544922
ell 988, elapsed: 0.000308990478515625
ell 987, elapsed: 0.0002980232238769531
ell 986, elapsed: 0.00030303001403808594
ell 985, elapsed: 0.0003020763397216797
ell 984, elapsed: 0.0002989768981933594
ell 983, elapsed: 0.00030493736267089844
ell 982, elapsed: 0.0003039836883544922
ell 981, elapsed: 0.0003139972686767578
ell 980, elapsed: 0.0003020763397216797
ell 979, elapsed: 0.00032901763916015625
ell 978, elapsed: 0.0003027915954589844
ell 977, elapsed: 0.00030684471130371094
ell 976, elapsed: 0.00030612945556640625
ell 975, elapsed: 0.00030493736267089844
ell 974, elapsed: 0.00030517578125
ell 973, elapsed: 0.0003159046173095703
ell 972, elapsed: 0.0003020763397216797
ell 971, elapsed: 0.0003070831298828125
ell 970, elapsed: 0.00030493736267089844
ell 969, elapsed: 0.00030493736267089844
ell 968, elapsed: 0.00030493736267089844
ell 967, elapsed: 0.00034308433532714844
ell 966, elapsed: 0.00030493736267089844
ell 965, elapsed: 0.00030493736267089844
ell 964, elapsed: 0.00030517578125
ell 963, elapsed: 0.00030684471130371094
ell 962, elapsed: 0.0003058910369873047
ell 961, elapsed: 0.00031113624572753906
ell 960, elapsed: 0.00030612945556640625
ell 959, elapsed: 0.0003058910369873047
ell 958, elapsed: 0.00030684471130371094
ell 957, elapsed: 0.0003020763397216797
ell 956, elapsed: 0.0003161430358886719
ell 955, elapsed: 0.0003209114074707031
ell 954, elapsed: 0.0003039836883544922
ell 953, elapsed: 0.0003077983856201172
ell 952, elapsed: 0.0003070831298828125
ell 951, elapsed: 0.0003058910369873047
ell 950, elapsed: 0.00029397010803222656
ell 949, elapsed: 0.0002989768981933594
ell 948, elapsed: 0.0003070831298828125
ell 947, elapsed: 0.0003077983856201172
ell 946, elapsed: 0.00030493736267089844
ell 945, elapsed: 0.00030112266540527344
ell 944, elapsed: 0.00030803680419921875
ell 943, elapsed: 0.0003020763397216797
ell 942, elapsed: 0.00034809112548828125
ell 941, elapsed: 0.0003199577331542969
ell 940, elapsed: 0.0003070831298828125
ell 939, elapsed: 0.000308990478515625
ell 938, elapsed: 0.0003070831298828125
ell 937, elapsed: 0.00030303001403808594
ell 936, elapsed: 0.00030803680419921875
ell 935, elapsed: 0.0002999305725097656
ell 934, elapsed: 0.00030684471130371094
ell 933, elapsed: 0.0003008842468261719
ell 932, elapsed: 0.0003039836883544922
ell 931, elapsed: 0.00030612945556640625
ell 930, elapsed: 0.0003311634063720703
ell 929, elapsed: 0.00030493736267089844
ell 928, elapsed: 0.0002989768981933594
ell 927, elapsed: 0.00030303001403808594
ell 926, elapsed: 0.00030994415283203125
ell 925, elapsed: 0.0003008842468261719
ell 924, elapsed: 0.00030684471130371094
ell 923, elapsed: 0.0003001689910888672
ell 922, elapsed: 0.0002999305725097656
ell 921, elapsed: 0.00030803680419921875
ell 920, elapsed: 0.00030493736267089844
ell 919, elapsed: 0.0003058910369873047
ell 918, elapsed: 0.00030112266540527344
ell 917, elapsed: 0.00030493736267089844
ell 916, elapsed: 0.000308990478515625
ell 915, elapsed: 0.0003008842468261719
ell 914, elapsed: 0.0003039836883544922
ell 913, elapsed: 0.0003008842468261719
ell 912, elapsed: 0.0002980232238769531
ell 911, elapsed: 0.00030517578125
ell 910, elapsed: 0.0003020763397216797
ell 909, elapsed: 0.0003058910369873047
ell 908, elapsed: 0.0003001689910888672
ell 907, elapsed: 0.0003008842468261719
ell 906, elapsed: 0.0003058910369873047
ell 905, elapsed: 0.00034308433532714844
ell 904, elapsed: 0.0003159046173095703
ell 903, elapsed: 0.0002999305725097656
ell 902, elapsed: 0.00030493736267089844
ell 901, elapsed: 0.0003039836883544922
ell 900, elapsed: 0.0003001689910888672
ell 899, elapsed: 0.00030303001403808594
ell 898, elapsed: 0.0002999305725097656
ell 897, elapsed: 0.0003018379211425781
ell 896, elapsed: 0.0002989768981933594
ell 895, elapsed: 0.0002949237823486328
ell 894, elapsed: 0.0003039836883544922
ell 893, elapsed: 0.0003631114959716797
ell 892, elapsed: 0.0003170967102050781
ell 891, elapsed: 0.00030112266540527344
ell 890, elapsed: 0.0002989768981933594
ell 889, elapsed: 0.00030493736267089844
ell 888, elapsed: 0.00029921531677246094
ell 887, elapsed: 0.0003008842468261719
ell 886, elapsed: 0.0002970695495605469
ell 885, elapsed: 0.0002970695495605469
ell 884, elapsed: 0.0003039836883544922
ell 883, elapsed: 0.0003008842468261719
ell 882, elapsed: 0.00030303001403808594
ell 881, elapsed: 0.0002980232238769531
ell 880, elapsed: 0.00032210350036621094
ell 879, elapsed: 0.00030303001403808594
ell 878, elapsed: 0.0002999305725097656
ell 877, elapsed: 0.0003020763397216797
ell 876, elapsed: 0.0002999305725097656
ell 875, elapsed: 0.0002949237823486328
ell 874, elapsed: 0.0003039836883544922
ell 873, elapsed: 0.0002970695495605469
ell 872, elapsed: 0.0003020763397216797
ell 871, elapsed: 0.0002980232238769531
ell 870, elapsed: 0.0003039836883544922
ell 869, elapsed: 0.0002968311309814453
ell 868, elapsed: 0.00033593177795410156
ell 867, elapsed: 0.00030303001403808594
ell 866, elapsed: 0.0002961158752441406
ell 865, elapsed: 0.0003058910369873047
ell 864, elapsed: 0.00030517578125
ell 863, elapsed: 0.0003008842468261719
ell 862, elapsed: 0.0003101825714111328
ell 861, elapsed: 0.0002930164337158203
ell 860, elapsed: 0.0003001689910888672
ell 859, elapsed: 0.0002961158752441406
ell 858, elapsed: 0.0002989768981933594
ell 857, elapsed: 0.00030612945556640625
ell 856, elapsed: 0.0002989768981933594
ell 855, elapsed: 0.0003349781036376953
ell 854, elapsed: 0.0003008842468261719
ell 853, elapsed: 0.00030303001403808594
ell 852, elapsed: 0.00030994415283203125
ell 851, elapsed: 0.0003001689910888672
ell 850, elapsed: 0.00030517578125
ell 849, elapsed: 0.0003020763397216797
ell 848, elapsed: 0.0002989768981933594
ell 847, elapsed: 0.0003058910369873047
ell 846, elapsed: 0.0003001689910888672
ell 845, elapsed: 0.0003159046173095703
ell 844, elapsed: 0.00030303001403808594
ell 843, elapsed: 0.0003380775451660156
ell 842, elapsed: 0.00031304359436035156
ell 841, elapsed: 0.00030493736267089844
ell 840, elapsed: 0.0003139972686767578
ell 839, elapsed: 0.00030112266540527344
ell 838, elapsed: 0.00030994415283203125
ell 837, elapsed: 0.0003039836883544922
ell 836, elapsed: 0.00030612945556640625
ell 835, elapsed: 0.0003139972686767578
ell 834, elapsed: 0.0003039836883544922
ell 833, elapsed: 0.0003020763397216797
ell 832, elapsed: 0.00030303001403808594
ell 831, elapsed: 0.000331878662109375
ell 830, elapsed: 0.0003070831298828125
ell 829, elapsed: 0.0003020763397216797
ell 828, elapsed: 0.00030803680419921875
ell 827, elapsed: 0.0003070831298828125
ell 826, elapsed: 0.0003070831298828125
ell 825, elapsed: 0.000308990478515625
ell 824, elapsed: 0.0003058910369873047
ell 823, elapsed: 0.000308990478515625
ell 822, elapsed: 0.00030493736267089844
ell 821, elapsed: 0.0002999305725097656
ell 820, elapsed: 0.000308990478515625
ell 819, elapsed: 0.00030517578125
ell 818, elapsed: 0.00033283233642578125
ell 817, elapsed: 0.00030684471130371094
ell 816, elapsed: 0.0003077983856201172
ell 815, elapsed: 0.0003039836883544922
ell 814, elapsed: 0.00031113624572753906
ell 813, elapsed: 0.00030684471130371094
ell 812, elapsed: 0.00030517578125
ell 811, elapsed: 0.00031685829162597656
ell 810, elapsed: 0.00030803680419921875
ell 809, elapsed: 0.00030803680419921875
ell 808, elapsed: 0.0003120899200439453
ell 807, elapsed: 0.00030493736267089844
ell 806, elapsed: 0.0003440380096435547
ell 805, elapsed: 0.0002961158752441406
ell 804, elapsed: 0.00029206275939941406
ell 803, elapsed: 0.0002949237823486328
ell 802, elapsed: 0.00028896331787109375
ell 801, elapsed: 0.00029397010803222656
ell 800, elapsed: 0.0003018379211425781
ell 799, elapsed: 0.0003058910369873047
ell 798, elapsed: 0.00030517578125
ell 797, elapsed: 0.0002918243408203125
ell 796, elapsed: 0.00030303001403808594
ell 795, elapsed: 0.00029778480529785156
ell 794, elapsed: 0.0003018379211425781
ell 793, elapsed: 0.00032591819763183594
ell 792, elapsed: 0.0003058910369873047
ell 791, elapsed: 0.0003070831298828125
ell 790, elapsed: 0.0002999305725097656
ell 789, elapsed: 0.00030517578125
ell 788, elapsed: 0.00030994415283203125
ell 787, elapsed: 0.00030493736267089844
ell 786, elapsed: 0.000308990478515625
ell 785, elapsed: 0.00030303001403808594
ell 784, elapsed: 0.00030112266540527344
ell 783, elapsed: 0.000308990478515625
ell 782, elapsed: 0.0003020763397216797
ell 781, elapsed: 0.0003390312194824219
ell 780, elapsed: 0.0003001689910888672
ell 779, elapsed: 0.000308990478515625
ell 778, elapsed: 0.0003058910369873047
ell 777, elapsed: 0.00030303001403808594
ell 776, elapsed: 0.00030493736267089844
ell 775, elapsed: 0.0002989768981933594
ell 774, elapsed: 0.00030803680419921875
ell 773, elapsed: 0.00030493736267089844
ell 772, elapsed: 0.00030303001403808594
ell 771, elapsed: 0.000308990478515625
ell 770, elapsed: 0.00030112266540527344
ell 769, elapsed: 0.00034999847412109375
ell 768, elapsed: 0.00030994415283203125
ell 767, elapsed: 0.0003039836883544922
ell 766, elapsed: 0.0003139972686767578
ell 765, elapsed: 0.00030803680419921875
ell 764, elapsed: 0.000308990478515625
ell 763, elapsed: 0.0003039836883544922
ell 762, elapsed: 0.0003058910369873047
ell 761, elapsed: 0.000308990478515625
ell 760, elapsed: 0.0003039836883544922
ell 759, elapsed: 0.00030994415283203125
ell 758, elapsed: 0.0003058910369873047
ell 757, elapsed: 0.0003018379211425781
ell 756, elapsed: 0.0003349781036376953
ell 755, elapsed: 0.0003027915954589844
ell 754, elapsed: 0.00030994415283203125
ell 753, elapsed: 0.0003039836883544922
ell 752, elapsed: 0.00030994415283203125
ell 751, elapsed: 0.0003020763397216797
ell 750, elapsed: 0.00030303001403808594
ell 749, elapsed: 0.000308990478515625
ell 748, elapsed: 0.00030684471130371094
ell 747, elapsed: 0.0003101825714111328
ell 746, elapsed: 0.00031495094299316406
ell 745, elapsed: 0.0003058910369873047
ell 744, elapsed: 0.0003609657287597656
ell 743, elapsed: 0.0003058910369873047
ell 742, elapsed: 0.00031304359436035156
ell 741, elapsed: 0.000308990478515625
ell 740, elapsed: 0.00030803680419921875
ell 739, elapsed: 0.000308990478515625
ell 738, elapsed: 0.00030303001403808594
ell 737, elapsed: 0.000308990478515625
ell 736, elapsed: 0.00030303001403808594
ell 735, elapsed: 0.00030517578125
ell 734, elapsed: 0.00031185150146484375
ell 733, elapsed: 0.00030517578125
ell 732, elapsed: 0.0003459453582763672
ell 731, elapsed: 0.00030517578125
ell 730, elapsed: 0.00030994415283203125
ell 729, elapsed: 0.00030803680419921875
ell 728, elapsed: 0.0003001689910888672
ell 727, elapsed: 0.00030612945556640625
ell 726, elapsed: 0.0003008842468261719
ell 725, elapsed: 0.00031280517578125
ell 724, elapsed: 0.0003020763397216797
ell 723, elapsed: 0.0003039836883544922
ell 722, elapsed: 0.0003070831298828125
ell 721, elapsed: 0.00030303001403808594
ell 720, elapsed: 0.00035190582275390625
ell 719, elapsed: 0.0003018379211425781
ell 718, elapsed: 0.0003020763397216797
ell 717, elapsed: 0.000308990478515625
ell 716, elapsed: 0.0003058910369873047
ell 715, elapsed: 0.000308990478515625
ell 714, elapsed: 0.0002999305725097656
ell 713, elapsed: 0.000308990478515625
ell 712, elapsed: 0.00030803680419921875
ell 711, elapsed: 0.0003027915954589844
ell 710, elapsed: 0.00030922889709472656
ell 709, elapsed: 0.0003020763397216797
ell 708, elapsed: 0.000331878662109375
ell 707, elapsed: 0.00030493736267089844
ell 706, elapsed: 0.00029587745666503906
ell 705, elapsed: 0.0003027915954589844
ell 704, elapsed: 0.0002989768981933594
ell 703, elapsed: 0.00030493736267089844
ell 702, elapsed: 0.0003120899200439453
ell 701, elapsed: 0.0003020763397216797
ell 700, elapsed: 0.00030612945556640625
ell 699, elapsed: 0.0003020763397216797
ell 698, elapsed: 0.00030803680419921875
ell 697, elapsed: 0.00031304359436035156
ell 696, elapsed: 0.0003018379211425781
ell 695, elapsed: 0.00033593177795410156
ell 694, elapsed: 0.00030303001403808594
ell 693, elapsed: 0.000308990478515625
ell 692, elapsed: 0.00030803680419921875
ell 691, elapsed: 0.0003018379211425781
ell 690, elapsed: 0.0003077983856201172
ell 689, elapsed: 0.00030493736267089844
ell 688, elapsed: 0.00031304359436035156
ell 687, elapsed: 0.00030303001403808594
ell 686, elapsed: 0.00030303001403808594
ell 685, elapsed: 0.00031113624572753906
ell 684, elapsed: 0.00030112266540527344
ell 683, elapsed: 0.0003478527069091797
ell 682, elapsed: 0.00030493736267089844
ell 681, elapsed: 0.0002999305725097656
ell 680, elapsed: 0.0003077983856201172
ell 679, elapsed: 0.0003008842468261719
ell 678, elapsed: 0.00030684471130371094
ell 677, elapsed: 0.0003020763397216797
ell 676, elapsed: 0.0003101825714111328
ell 675, elapsed: 0.00030684471130371094
ell 674, elapsed: 0.0002961158752441406
ell 673, elapsed: 0.00031304359436035156
ell 672, elapsed: 0.00030112266540527344
ell 671, elapsed: 0.0003249645233154297
ell 670, elapsed: 0.0003070831298828125
ell 669, elapsed: 0.00030303001403808594
ell 668, elapsed: 0.00030994415283203125
ell 667, elapsed: 0.0003058910369873047
ell 666, elapsed: 0.00030493736267089844
ell 665, elapsed: 0.0003108978271484375
ell 664, elapsed: 0.0003058910369873047
ell 663, elapsed: 0.00031113624572753906
ell 662, elapsed: 0.00030303001403808594
ell 661, elapsed: 0.0003108978271484375
ell 660, elapsed: 0.0003001689910888672
ell 659, elapsed: 0.00030493736267089844
ell 658, elapsed: 0.00034999847412109375
ell 657, elapsed: 0.0003020763397216797
ell 656, elapsed: 0.0002989768981933594
ell 655, elapsed: 0.0002989768981933594
ell 654, elapsed: 0.00030303001403808594
ell 653, elapsed: 0.00030803680419921875
ell 652, elapsed: 0.0002970695495605469
ell 651, elapsed: 0.00031304359436035156
ell 650, elapsed: 0.0003039836883544922
ell 649, elapsed: 0.00030493736267089844
ell 648, elapsed: 0.00030922889709472656
ell 647, elapsed: 0.0003039836883544922
ell 646, elapsed: 0.00034499168395996094
ell 645, elapsed: 0.00031185150146484375
ell 644, elapsed: 0.0003077983856201172
ell 643, elapsed: 0.0003139972686767578
ell 642, elapsed: 0.0002970695495605469
ell 641, elapsed: 0.0002930164337158203
ell 640, elapsed: 0.0002911090850830078
ell 639, elapsed: 0.0003020763397216797
ell 638, elapsed: 0.0003139972686767578
ell 637, elapsed: 0.000308990478515625
ell 636, elapsed: 0.0003170967102050781
ell 635, elapsed: 0.00031113624572753906
ell 634, elapsed: 0.0003631114959716797
ell 633, elapsed: 0.0003058910369873047
ell 632, elapsed: 0.0002930164337158203
ell 631, elapsed: 0.0002980232238769531
ell 630, elapsed: 0.0002999305725097656
ell 629, elapsed: 0.00031185150146484375
ell 628, elapsed: 0.0003039836883544922
ell 627, elapsed: 0.00030493736267089844
ell 626, elapsed: 0.00031280517578125
ell 625, elapsed: 0.00030493736267089844
ell 624, elapsed: 0.00031113624572753906
ell 623, elapsed: 0.0003039836883544922
ell 622, elapsed: 0.00030612945556640625
ell 621, elapsed: 0.0003418922424316406
ell 620, elapsed: 0.0003039836883544922
ell 619, elapsed: 0.0002999305725097656
ell 618, elapsed: 0.0003008842468261719
ell 617, elapsed: 0.0002951622009277344
ell 616, elapsed: 0.0003008842468261719
ell 615, elapsed: 0.0002970695495605469
ell 614, elapsed: 0.00030612945556640625
ell 613, elapsed: 0.0003039836883544922
ell 612, elapsed: 0.00030493736267089844
ell 611, elapsed: 0.0003161430358886719
ell 610, elapsed: 0.00030493736267089844
ell 609, elapsed: 0.000331878662109375
ell 608, elapsed: 0.000308990478515625
ell 607, elapsed: 0.0003020763397216797
ell 606, elapsed: 0.0003039836883544922
ell 605, elapsed: 0.0003070831298828125
ell 604, elapsed: 0.00030994415283203125
ell 603, elapsed: 0.00030303001403808594
ell 602, elapsed: 0.00031495094299316406
ell 601, elapsed: 0.00030303001403808594
ell 600, elapsed: 0.0003039836883544922
ell 599, elapsed: 0.00031495094299316406
ell 598, elapsed: 0.0003058910369873047
ell 597, elapsed: 0.0003600120544433594
ell 596, elapsed: 0.0003101825714111328
ell 595, elapsed: 0.0003039836883544922
ell 594, elapsed: 0.0003139972686767578
ell 593, elapsed: 0.0003001689910888672
ell 592, elapsed: 0.000308990478515625
ell 591, elapsed: 0.00030303001403808594
ell 590, elapsed: 0.0002999305725097656
ell 589, elapsed: 0.00031113624572753906
ell 588, elapsed: 0.0003008842468261719
ell 587, elapsed: 0.00030803680419921875
ell 586, elapsed: 0.00030303001403808594
ell 585, elapsed: 0.00034499168395996094
ell 584, elapsed: 0.00030493736267089844
ell 583, elapsed: 0.00030112266540527344
ell 582, elapsed: 0.0003008842468261719
ell 581, elapsed: 0.0003020763397216797
ell 580, elapsed: 0.0003020763397216797
ell 579, elapsed: 0.00030493736267089844
ell 578, elapsed: 0.00030303001403808594
ell 577, elapsed: 0.00030803680419921875
ell 576, elapsed: 0.0002999305725097656
ell 575, elapsed: 0.0003001689910888672
ell 574, elapsed: 0.0003039836883544922
ell 573, elapsed: 0.00030803680419921875
ell 572, elapsed: 0.00033593177795410156
ell 571, elapsed: 0.0003039836883544922
ell 570, elapsed: 0.00031304359436035156
ell 569, elapsed: 0.003428936004638672
ell 568, elapsed: 0.000308990478515625
ell 567, elapsed: 0.00030803680419921875
ell 566, elapsed: 0.00030684471130371094
ell 565, elapsed: 0.0003070831298828125
ell 564, elapsed: 0.0003070831298828125
ell 563, elapsed: 0.0003027915954589844
ell 562, elapsed: 0.0003039836883544922
ell 561, elapsed: 0.0003020763397216797
ell 560, elapsed: 0.000308990478515625
ell 559, elapsed: 0.0003039836883544922
ell 558, elapsed: 0.000308990478515625
ell 557, elapsed: 0.0003139972686767578
ell 556, elapsed: 0.0003020763397216797
ell 555, elapsed: 0.0003039836883544922
ell 554, elapsed: 0.0002968311309814453
ell 553, elapsed: 0.00031113624572753906
ell 552, elapsed: 0.0003008842468261719
ell 551, elapsed: 0.0003008842468261719
ell 550, elapsed: 0.0003199577331542969
ell 549, elapsed: 0.00030803680419921875
ell 548, elapsed: 0.0003070831298828125
ell 547, elapsed: 0.00030612945556640625
ell 546, elapsed: 0.0003020763397216797
ell 545, elapsed: 0.0004100799560546875
ell 544, elapsed: 0.00030303001403808594
ell 543, elapsed: 0.0003209114074707031
ell 542, elapsed: 0.0003001689910888672
ell 541, elapsed: 0.0003039836883544922
ell 540, elapsed: 0.0003018379211425781
ell 539, elapsed: 0.0002980232238769531
ell 538, elapsed: 0.0003161430358886719
ell 537, elapsed: 0.0002989768981933594
ell 536, elapsed: 0.00029587745666503906
ell 535, elapsed: 0.0003039836883544922
ell 534, elapsed: 0.00029778480529785156
ell 533, elapsed: 0.00034308433532714844
ell 532, elapsed: 0.0002999305725097656
ell 531, elapsed: 0.0002999305725097656
ell 530, elapsed: 0.0002949237823486328
ell 529, elapsed: 0.0003020763397216797
ell 528, elapsed: 0.0003058910369873047
ell 527, elapsed: 0.0002989768981933594
ell 526, elapsed: 0.00029921531677246094
ell 525, elapsed: 0.0003008842468261719
ell 524, elapsed: 0.0002970695495605469
ell 523, elapsed: 0.0003070831298828125
ell 522, elapsed: 0.0003001689910888672
ell 521, elapsed: 0.00030684471130371094
ell 520, elapsed: 0.0003159046173095703
ell 519, elapsed: 0.0003001689910888672
ell 518, elapsed: 0.00030303001403808594
ell 517, elapsed: 0.0002999305725097656
ell 516, elapsed: 0.0003039836883544922
ell 515, elapsed: 0.0002961158752441406
ell 514, elapsed: 0.0002980232238769531
ell 513, elapsed: 0.00030303001403808594
ell 512, elapsed: 0.0002980232238769531
ell 511, elapsed: 0.000308990478515625
ell 510, elapsed: 0.0003001689910888672
ell 509, elapsed: 0.0002999305725097656
ell 508, elapsed: 0.0003509521484375
ell 507, elapsed: 0.00030303001403808594
ell 506, elapsed: 0.00030517578125
ell 505, elapsed: 0.0003020763397216797
ell 504, elapsed: 0.00030112266540527344
ell 503, elapsed: 0.0002918243408203125
ell 502, elapsed: 0.0002951622009277344
ell 501, elapsed: 0.0003070831298828125
ell 500, elapsed: 0.0003020763397216797
ell 499, elapsed: 0.0003070831298828125
ell 498, elapsed: 0.0003039836883544922
ell 497, elapsed: 0.00030112266540527344
ell 496, elapsed: 0.00031685829162597656
ell 495, elapsed: 0.00032711029052734375
ell 494, elapsed: 0.00031495094299316406
ell 493, elapsed: 0.0003058910369873047
ell 492, elapsed: 0.0003020763397216797
ell 491, elapsed: 0.00030994415283203125
ell 490, elapsed: 0.0002999305725097656
ell 489, elapsed: 0.0003070831298828125
ell 488, elapsed: 0.0003020763397216797
ell 487, elapsed: 0.0002989768981933594
ell 486, elapsed: 0.0003070831298828125
ell 485, elapsed: 0.0003108978271484375
ell 484, elapsed: 0.0003101825714111328
ell 483, elapsed: 0.0003268718719482422
ell 482, elapsed: 0.0003108978271484375
ell 481, elapsed: 0.000308990478515625
ell 480, elapsed: 0.00030112266540527344
ell 479, elapsed: 0.0003108978271484375
ell 478, elapsed: 0.00036787986755371094
ell 477, elapsed: 0.0003151893615722656
ell 476, elapsed: 0.00031304359436035156
ell 475, elapsed: 0.00030612945556640625
ell 474, elapsed: 0.00030994415283203125
ell 473, elapsed: 0.0003108978271484375
ell 472, elapsed: 0.000308990478515625
ell 471, elapsed: 0.0003390312194824219
ell 470, elapsed: 0.00030612945556640625
ell 469, elapsed: 0.0003829002380371094
ell 468, elapsed: 0.0003559589385986328
ell 467, elapsed: 0.00031113624572753906
ell 466, elapsed: 0.00029587745666503906
ell 465, elapsed: 0.0003008842468261719
ell 464, elapsed: 0.000308990478515625
ell 463, elapsed: 0.00030422210693359375
ell 462, elapsed: 0.00030612945556640625
ell 461, elapsed: 0.00031304359436035156
ell 460, elapsed: 0.0003020763397216797
ell 459, elapsed: 0.00033593177795410156
ell 458, elapsed: 0.00030303001403808594
ell 457, elapsed: 0.00030803680419921875
ell 456, elapsed: 0.0002989768981933594
ell 455, elapsed: 0.0003020763397216797
ell 454, elapsed: 0.00030493736267089844
ell 453, elapsed: 0.0003020763397216797
ell 452, elapsed: 0.0003070831298828125
ell 451, elapsed: 0.0003230571746826172
ell 450, elapsed: 0.0003018379211425781
ell 449, elapsed: 0.0003139972686767578
ell 448, elapsed: 0.00030612945556640625
ell 447, elapsed: 0.0004279613494873047
ell 446, elapsed: 0.0003070831298828125
ell 445, elapsed: 0.00030493736267089844
ell 444, elapsed: 0.00031304359436035156
ell 443, elapsed: 0.0003070831298828125
ell 442, elapsed: 0.000308990478515625
ell 441, elapsed: 0.0003039836883544922
ell 440, elapsed: 0.000308990478515625
ell 439, elapsed: 0.0003039836883544922
ell 438, elapsed: 0.00030994415283203125
ell 437, elapsed: 0.0003120899200439453
ell 436, elapsed: 0.0003070831298828125
ell 435, elapsed: 0.0003299713134765625
ell 434, elapsed: 0.0003008842468261719
ell 433, elapsed: 0.0003020763397216797
ell 432, elapsed: 0.0003070831298828125
ell 431, elapsed: 0.0003027915954589844
ell 430, elapsed: 0.00030994415283203125
ell 429, elapsed: 0.0003058910369873047
ell 428, elapsed: 0.00030612945556640625
ell 427, elapsed: 0.0003058910369873047
ell 426, elapsed: 0.00030112266540527344
ell 425, elapsed: 0.0003077983856201172
ell 424, elapsed: 0.0003020763397216797
ell 423, elapsed: 0.000331878662109375
ell 422, elapsed: 0.0003077983856201172
ell 421, elapsed: 0.0002989768981933594
ell 420, elapsed: 0.00030803680419921875
ell 419, elapsed: 0.00030112266540527344
ell 418, elapsed: 0.0002989768981933594
ell 417, elapsed: 0.00030803680419921875
ell 416, elapsed: 0.0002980232238769531
ell 415, elapsed: 0.0003161430358886719
ell 414, elapsed: 0.00030493736267089844
ell 413, elapsed: 0.0003108978271484375
ell 412, elapsed: 0.00030303001403808594
ell 411, elapsed: 0.0002999305725097656
ell 410, elapsed: 0.0003578662872314453
ell 409, elapsed: 0.00030803680419921875
ell 408, elapsed: 0.00031280517578125
ell 407, elapsed: 0.00030517578125
ell 406, elapsed: 0.0002980232238769531
ell 405, elapsed: 0.00030303001403808594
ell 404, elapsed: 0.00030112266540527344
ell 403, elapsed: 0.00030684471130371094
ell 402, elapsed: 0.00029778480529785156
ell 401, elapsed: 0.0003001689910888672
ell 400, elapsed: 0.00030684471130371094
ell 399, elapsed: 0.0003008842468261719
ell 398, elapsed: 0.00041794776916503906
ell 397, elapsed: 0.00030303001403808594
ell 396, elapsed: 0.0002968311309814453
ell 395, elapsed: 0.00031113624572753906
ell 394, elapsed: 0.0002999305725097656
ell 393, elapsed: 0.00030493736267089844
ell 392, elapsed: 0.0002949237823486328
ell 391, elapsed: 0.00029397010803222656
ell 390, elapsed: 0.0003058910369873047
ell 389, elapsed: 0.0003001689910888672
ell 388, elapsed: 0.0003070831298828125
ell 387, elapsed: 0.0002980232238769531
ell 386, elapsed: 0.0003619194030761719
ell 385, elapsed: 0.0003020763397216797
ell 384, elapsed: 0.0002999305725097656
ell 383, elapsed: 0.00030493736267089844
ell 382, elapsed: 0.00030303001403808594
ell 381, elapsed: 0.00031304359436035156
ell 380, elapsed: 0.00030493736267089844
ell 379, elapsed: 0.00030112266540527344
ell 378, elapsed: 0.000308990478515625
ell 377, elapsed: 0.0002999305725097656
ell 376, elapsed: 0.000308990478515625
ell 375, elapsed: 0.0002949237823486328
ell 374, elapsed: 0.0002961158752441406
ell 373, elapsed: 0.00032806396484375
ell 372, elapsed: 0.0002999305725097656
ell 371, elapsed: 0.0003020763397216797
ell 370, elapsed: 0.0002989768981933594
ell 369, elapsed: 0.00029587745666503906
ell 368, elapsed: 0.0003020763397216797
ell 367, elapsed: 0.0002989768981933594
ell 366, elapsed: 0.00030493736267089844
ell 365, elapsed: 0.0002961158752441406
ell 364, elapsed: 0.00029587745666503906
ell 363, elapsed: 0.00029587745666503906
ell 362, elapsed: 0.00029397010803222656
ell 361, elapsed: 0.00031304359436035156
ell 360, elapsed: 0.0002942085266113281
ell 359, elapsed: 0.00029587745666503906
ell 358, elapsed: 0.0003581047058105469
ell 357, elapsed: 0.0003018379211425781
ell 356, elapsed: 0.00029206275939941406
ell 355, elapsed: 0.00029206275939941406
ell 354, elapsed: 0.0002911090850830078
ell 353, elapsed: 0.00029206275939941406
ell 352, elapsed: 0.0002899169921875
ell 351, elapsed: 0.00029206275939941406
ell 350, elapsed: 0.0003020763397216797
ell 349, elapsed: 0.0002970695495605469
ell 348, elapsed: 0.00039196014404296875
ell 347, elapsed: 0.0003001689910888672
ell 346, elapsed: 0.0002970695495605469
ell 345, elapsed: 0.0002961158752441406
ell 344, elapsed: 0.0002980232238769531
ell 343, elapsed: 0.0002949237823486328
ell 342, elapsed: 0.0002980232238769531
ell 341, elapsed: 0.0003020763397216797
ell 340, elapsed: 0.0002961158752441406
ell 339, elapsed: 0.00030303001403808594
ell 338, elapsed: 0.0002949237823486328
ell 337, elapsed: 0.00029587745666503906
ell 336, elapsed: 0.00033593177795410156
ell 335, elapsed: 0.0003058910369873047
ell 334, elapsed: 0.00030493736267089844
ell 333, elapsed: 0.0003001689910888672
ell 332, elapsed: 0.0002980232238769531
ell 331, elapsed: 0.00030612945556640625
ell 330, elapsed: 0.0003001689910888672
ell 329, elapsed: 0.0003070831298828125
ell 328, elapsed: 0.0002999305725097656
ell 327, elapsed: 0.0002989768981933594
ell 326, elapsed: 0.0003070831298828125
ell 325, elapsed: 0.00030517578125
ell 324, elapsed: 0.00030994415283203125
ell 323, elapsed: 0.0003459453582763672
ell 322, elapsed: 0.000308990478515625
ell 321, elapsed: 0.0003027915954589844
ell 320, elapsed: 0.00030112266540527344
ell 319, elapsed: 0.0003008842468261719
ell 318, elapsed: 0.0002989768981933594
ell 317, elapsed: 0.0003039836883544922
ell 316, elapsed: 0.0003039836883544922
ell 315, elapsed: 0.00029397010803222656
ell 314, elapsed: 0.00030684471130371094
ell 313, elapsed: 0.00030112266540527344
ell 312, elapsed: 0.0003070831298828125
ell 311, elapsed: 0.00033092498779296875
ell 310, elapsed: 0.00030303001403808594
ell 309, elapsed: 0.00030612945556640625
ell 308, elapsed: 0.0003020763397216797
ell 307, elapsed: 0.000308990478515625
ell 306, elapsed: 0.0003008842468261719
ell 305, elapsed: 0.00030612945556640625
ell 304, elapsed: 0.00030493736267089844
ell 303, elapsed: 0.0002980232238769531
ell 302, elapsed: 0.00030493736267089844
ell 301, elapsed: 0.0003039836883544922
ell 300, elapsed: 0.0002989768981933594
ell 299, elapsed: 0.00033211708068847656
ell 298, elapsed: 0.0003070831298828125
ell 297, elapsed: 0.00030493736267089844
ell 296, elapsed: 0.0003020763397216797
ell 295, elapsed: 0.0002989768981933594
ell 294, elapsed: 0.00030994415283203125
ell 293, elapsed: 0.0003070831298828125
ell 292, elapsed: 0.00030803680419921875
ell 291, elapsed: 0.0003020763397216797
ell 290, elapsed: 0.0003039836883544922
ell 289, elapsed: 0.00030612945556640625
ell 288, elapsed: 0.0003039836883544922
ell 287, elapsed: 0.000308990478515625
ell 286, elapsed: 0.00034499168395996094
ell 285, elapsed: 0.0003101825714111328
ell 284, elapsed: 0.0003008842468261719
ell 283, elapsed: 0.0003020763397216797
ell 282, elapsed: 0.00030493736267089844
ell 281, elapsed: 0.0002949237823486328
ell 280, elapsed: 0.00031495094299316406
ell 279, elapsed: 0.00031304359436035156
ell 278, elapsed: 0.0003058910369873047
ell 277, elapsed: 0.00031304359436035156
ell 276, elapsed: 0.00030612945556640625
ell 275, elapsed: 0.00030493736267089844
ell 274, elapsed: 0.0003230571746826172
ell 273, elapsed: 0.00031304359436035156
ell 272, elapsed: 0.00030994415283203125
ell 271, elapsed: 0.0003070831298828125
ell 270, elapsed: 0.0003108978271484375
ell 269, elapsed: 0.00030303001403808594
ell 268, elapsed: 0.0003020763397216797
ell 267, elapsed: 0.00030994415283203125
ell 266, elapsed: 0.0002968311309814453
ell 265, elapsed: 0.00030922889709472656
ell 264, elapsed: 0.00030112266540527344
ell 263, elapsed: 0.0003020763397216797
ell 262, elapsed: 0.00033593177795410156
ell 261, elapsed: 0.0002999305725097656
ell 260, elapsed: 0.00030994415283203125
ell 259, elapsed: 0.0003020763397216797
ell 258, elapsed: 0.00031304359436035156
ell 257, elapsed: 0.0003008842468261719
ell 256, elapsed: 0.00030517578125
ell 255, elapsed: 0.0003058910369873047
ell 254, elapsed: 0.0003001689910888672
ell 253, elapsed: 0.00030803680419921875
ell 252, elapsed: 0.0003027915954589844
ell 251, elapsed: 0.0003039836883544922
ell 250, elapsed: 0.00030922889709472656
ell 249, elapsed: 0.00032782554626464844
ell 248, elapsed: 0.0003101825714111328
ell 247, elapsed: 0.0002989768981933594
ell 246, elapsed: 0.0002980232238769531
ell 245, elapsed: 0.0003020763397216797
ell 244, elapsed: 0.00029921531677246094
ell 243, elapsed: 0.0003139972686767578
ell 242, elapsed: 0.0003008842468261719
ell 241, elapsed: 0.0002999305725097656
ell 240, elapsed: 0.0003101825714111328
ell 239, elapsed: 0.0003018379211425781
ell 238, elapsed: 0.00030803680419921875
ell 237, elapsed: 0.00032806396484375
ell 236, elapsed: 0.0003120899200439453
ell 235, elapsed: 0.00030493736267089844
ell 234, elapsed: 0.0003018379211425781
ell 233, elapsed: 0.00030994415283203125
ell 232, elapsed: 0.0003018379211425781
ell 231, elapsed: 0.00030612945556640625
ell 230, elapsed: 0.0003020763397216797
ell 229, elapsed: 0.0003008842468261719
ell 228, elapsed: 0.0003070831298828125
ell 227, elapsed: 0.00030303001403808594
ell 226, elapsed: 0.00030803680419921875
ell 225, elapsed: 0.0003020763397216797
ell 224, elapsed: 0.0003190040588378906
ell 223, elapsed: 0.0003190040588378906
ell 222, elapsed: 0.0003020763397216797
ell 221, elapsed: 0.0003161430358886719
ell 220, elapsed: 0.0002980232238769531
ell 219, elapsed: 0.00030303001403808594
ell 218, elapsed: 0.00030493736267089844
ell 217, elapsed: 0.00029778480529785156
ell 216, elapsed: 0.0003077983856201172
ell 215, elapsed: 0.0002970695495605469
ell 214, elapsed: 0.0002970695495605469
ell 213, elapsed: 0.00030303001403808594
ell 212, elapsed: 0.0003349781036376953
ell 211, elapsed: 0.0003108978271484375
ell 210, elapsed: 0.00030112266540527344
ell 209, elapsed: 0.0002989768981933594
ell 208, elapsed: 0.00030303001403808594
ell 207, elapsed: 0.0002989768981933594
ell 206, elapsed: 0.0003058910369873047
ell 205, elapsed: 0.0002989768981933594
ell 204, elapsed: 0.0002999305725097656
ell 203, elapsed: 0.00030684471130371094
ell 202, elapsed: 0.00030684471130371094
ell 201, elapsed: 0.0003139972686767578
ell 200, elapsed: 0.00035500526428222656
ell 199, elapsed: 0.0003139972686767578
ell 198, elapsed: 0.0002989768981933594
ell 197, elapsed: 0.0002980232238769531
ell 196, elapsed: 0.00030803680419921875
ell 195, elapsed: 0.0002980232238769531
ell 194, elapsed: 0.00030803680419921875
ell 193, elapsed: 0.0002999305725097656
ell 192, elapsed: 0.0002989768981933594
ell 191, elapsed: 0.00031280517578125
ell 190, elapsed: 0.00030803680419921875
ell 189, elapsed: 0.00030803680419921875
ell 188, elapsed: 0.0003020763397216797
ell 187, elapsed: 0.00031113624572753906
ell 186, elapsed: 0.0003108978271484375
ell 185, elapsed: 0.00030517578125
ell 184, elapsed: 0.0003120899200439453
ell 183, elapsed: 0.0003008842468261719
ell 182, elapsed: 0.00030112266540527344
ell 181, elapsed: 0.00030803680419921875
ell 180, elapsed: 0.0002980232238769531
ell 179, elapsed: 0.00030994415283203125
ell 178, elapsed: 0.0003070831298828125
ell 177, elapsed: 0.00030684471130371094
ell 176, elapsed: 0.000308990478515625
ell 175, elapsed: 0.0003409385681152344
ell 174, elapsed: 0.0003190040588378906
ell 173, elapsed: 0.00030303001403808594
ell 172, elapsed: 0.0003018379211425781
ell 171, elapsed: 0.0003039836883544922
ell 170, elapsed: 0.0003230571746826172
ell 169, elapsed: 0.00030612945556640625
ell 168, elapsed: 0.00030303001403808594
ell 167, elapsed: 0.0003058910369873047
ell 166, elapsed: 0.0003018379211425781
ell 165, elapsed: 0.0003001689910888672
ell 164, elapsed: 0.00030684471130371094
ell 163, elapsed: 0.00040411949157714844
ell 162, elapsed: 0.00030684471130371094
ell 161, elapsed: 0.0003039836883544922
ell 160, elapsed: 0.0002989768981933594
ell 159, elapsed: 0.00030684471130371094
ell 158, elapsed: 0.0003008842468261719
ell 157, elapsed: 0.00030994415283203125
ell 156, elapsed: 0.00030112266540527344
ell 155, elapsed: 0.00030493736267089844
ell 154, elapsed: 0.00030303001403808594
ell 153, elapsed: 0.0002989768981933594
ell 152, elapsed: 0.0003039836883544922
ell 151, elapsed: 0.00041794776916503906
ell 150, elapsed: 0.0003018379211425781
ell 149, elapsed: 0.0003020763397216797
ell 148, elapsed: 0.0002980232238769531
ell 147, elapsed: 0.00031113624572753906
ell 146, elapsed: 0.00029397010803222656
ell 145, elapsed: 0.0002970695495605469
ell 144, elapsed: 0.0003020763397216797
ell 143, elapsed: 0.00029587745666503906
ell 142, elapsed: 0.0003018379211425781
ell 141, elapsed: 0.0002989768981933594
ell 140, elapsed: 0.0003020763397216797
ell 139, elapsed: 0.0003008842468261719
ell 138, elapsed: 0.00031304359436035156
ell 137, elapsed: 0.00030493736267089844
ell 136, elapsed: 0.0002999305725097656
ell 135, elapsed: 0.0003020763397216797
ell 134, elapsed: 0.0002970695495605469
ell 133, elapsed: 0.0002989768981933594
ell 132, elapsed: 0.0003039836883544922
ell 131, elapsed: 0.00030112266540527344
ell 130, elapsed: 0.0003039836883544922
ell 129, elapsed: 0.0002980232238769531
ell 128, elapsed: 0.0002989768981933594
ell 127, elapsed: 0.00030303001403808594
ell 126, elapsed: 0.0004220008850097656
ell 125, elapsed: 0.0003058910369873047
ell 124, elapsed: 0.0002970695495605469
ell 123, elapsed: 0.0002989768981933594
ell 122, elapsed: 0.000308990478515625
ell 121, elapsed: 0.0002989768981933594
ell 120, elapsed: 0.0003020763397216797
ell 119, elapsed: 0.0002970695495605469
ell 118, elapsed: 0.00030112266540527344
ell 117, elapsed: 0.00031495094299316406
ell 116, elapsed: 0.0003058910369873047
ell 115, elapsed: 0.00030493736267089844
ell 114, elapsed: 0.00030493736267089844
ell 113, elapsed: 0.00030112266540527344
ell 112, elapsed: 0.00030994415283203125
ell 111, elapsed: 0.0003070831298828125
ell 110, elapsed: 0.0003108978271484375
ell 109, elapsed: 0.0003077983856201172
ell 108, elapsed: 0.0003800392150878906
ell 107, elapsed: 0.00031280517578125
ell 106, elapsed: 0.00030994415283203125
ell 105, elapsed: 0.00031113624572753906
ell 104, elapsed: 0.00030803680419921875
ell 103, elapsed: 0.0003139972686767578
ell 102, elapsed: 0.0003070831298828125
ell 101, elapsed: 0.0003139972686767578
ell 100, elapsed: 0.00030994415283203125
ell 99, elapsed: 0.00031185150146484375
ell 98, elapsed: 0.000308990478515625
ell 97, elapsed: 0.00030612945556640625
ell 96, elapsed: 0.00035500526428222656
ell 95, elapsed: 0.00031113624572753906
ell 94, elapsed: 0.00030303001403808594
ell 93, elapsed: 0.0003190040588378906
ell 92, elapsed: 0.0003120899200439453
ell 91, elapsed: 0.0003159046173095703
ell 90, elapsed: 0.00031876564025878906
ell 89, elapsed: 0.0003039836883544922
ell 88, elapsed: 0.0003058910369873047
ell 87, elapsed: 0.0002970695495605469
ell 86, elapsed: 0.0003020763397216797
ell 85, elapsed: 0.0003070831298828125
ell 84, elapsed: 0.0003330707550048828
ell 83, elapsed: 0.0003170967102050781
ell 82, elapsed: 0.0003008842468261719
ell 81, elapsed: 0.000308990478515625
ell 80, elapsed: 0.0002968311309814453
ell 79, elapsed: 0.0003077983856201172
ell 78, elapsed: 0.0003139972686767578
ell 77, elapsed: 0.0002980232238769531
ell 76, elapsed: 0.0003170967102050781
ell 75, elapsed: 0.00030303001403808594
ell 74, elapsed: 0.0002970695495605469
ell 73, elapsed: 0.0003058910369873047
ell 72, elapsed: 0.0003299713134765625
ell 71, elapsed: 0.0003070831298828125
ell 70, elapsed: 0.0002989768981933594
ell 69, elapsed: 0.0002980232238769531
ell 68, elapsed: 0.0003039836883544922
ell 67, elapsed: 0.0002961158752441406
ell 66, elapsed: 0.0003058910369873047
ell 65, elapsed: 0.0002961158752441406
ell 64, elapsed: 0.0002961158752441406
ell 63, elapsed: 0.0003018379211425781
ell 62, elapsed: 0.00030112266540527344
ell 61, elapsed: 0.0003008842468261719
ell 60, elapsed: 0.00030303001403808594
ell 59, elapsed: 0.00034308433532714844
ell 58, elapsed: 0.0003018379211425781
ell 57, elapsed: 0.00029397010803222656
ell 56, elapsed: 0.0003020763397216797
ell 55, elapsed: 0.00029397010803222656
ell 54, elapsed: 0.0003018379211425781
ell 53, elapsed: 0.00029397010803222656
ell 52, elapsed: 0.00029587745666503906
ell 51, elapsed: 0.00030303001403808594
ell 50, elapsed: 0.0002970695495605469
ell 49, elapsed: 0.00030994415283203125
ell 48, elapsed: 0.0002989768981933594
ell 47, elapsed: 0.0003361701965332031
ell 46, elapsed: 0.00030303001403808594
ell 45, elapsed: 0.0002989768981933594
ell 44, elapsed: 0.0003018379211425781
ell 43, elapsed: 0.00030303001403808594
ell 42, elapsed: 0.00029397010803222656
ell 41, elapsed: 0.0002999305725097656
ell 40, elapsed: 0.00029397010803222656
ell 39, elapsed: 0.0002999305725097656
ell 38, elapsed: 0.0002980232238769531
ell 37, elapsed: 0.00029397010803222656
ell 36, elapsed: 0.0003108978271484375
ell 35, elapsed: 0.00030303001403808594
ell 34, elapsed: 0.00035500526428222656
ell 33, elapsed: 0.0002980232238769531
ell 32, elapsed: 0.0002980232238769531
ell 31, elapsed: 0.00030303001403808594
ell 30, elapsed: 0.0002930164337158203
ell 29, elapsed: 0.0003008842468261719
ell 28, elapsed: 0.0002949237823486328
ell 27, elapsed: 0.00030612945556640625
ell 26, elapsed: 0.00030684471130371094
ell 25, elapsed: 0.0003020763397216797
ell 24, elapsed: 0.00030493736267089844
ell 23, elapsed: 0.0002951622009277344
ell 22, elapsed: 0.0003230571746826172
ell 21, elapsed: 0.0003108978271484375
ell 20, elapsed: 0.00029587745666503906
ell 19, elapsed: 0.0003070831298828125
ell 18, elapsed: 0.00030303001403808594
ell 17, elapsed: 0.0003020763397216797
ell 16, elapsed: 0.0002930164337158203
ell 15, elapsed: 0.00029397010803222656
ell 14, elapsed: 0.00029587745666503906
ell 13, elapsed: 0.0002961158752441406
ell 12, elapsed: 0.0002968311309814453
ell 11, elapsed: 0.0002942085266113281
ell 10, elapsed: 0.0002918243408203125
ell 9, elapsed: 0.0004260540008544922
ell 8, elapsed: 0.00029206275939941406
ell 7, elapsed: 0.0002999305725097656
ell 6, elapsed: 0.00029206275939941406
ell 5, elapsed: 0.0002930164337158203
ell 4, elapsed: 0.0002949237823486328
ell 3, elapsed: 0.00029015541076660156
ell 2, elapsed: 0.00031113624572753906
ell 1, elapsed: 0.0002951622009277344
ell 0, elapsed: 0.0002930164337158203
  0.421403 seconds (46.03 k allocations: 3.091 MiB, 6.03% compilation time)
elapsed: 0.0003638267517089844
step:          0.048164 sec (0 allocations: 0 byte, 0.0% gc time)
swapping:      0.00039 sec (0 allocations: 0 byte, 0.0% gc time)
calc_Mellell!: 0.00603 sec (0 allocations: 0 byte, 0.0% gc time)
  t0 :  0.001322 sec (0 allocations: 0 byte, 0.0% gc time)
  tm2 : 0.074093 sec (0 allocations: 0 byte, 0.0% gc time)
  tm2s: 0.00095 sec (0 allocations: 0 byte, 0.0% gc time)
  tm4 : 0.171929 sec (0 allocations: 0 byte, 0.0% gc time)
  tp2 : 0.0 sec (0 allocations: 0 byte, 0.0% gc time)
  tp2s: 0.0 sec (0 allocations: 0 byte, 0.0% gc time)
  tp4 : 0.0 sec (0 allocations: 0 byte, 0.0% gc time)
calc_wtdll!:   0.275894 sec (9.9 k allocations: 1.047 MB, 0.0% gc time)
calc_wljj!:    0.023957 sec (689 allocations: 10.766 KB, 0.0% gc time)
mult_prefac!:  0.0 sec (0 allocations: 0 byte, 0.0% gc time)
convert:       0.0 sec (0 allocations: 0 byte, 0.0% gc time)
write:         0.028167 sec (0 allocations: 0 byte, 0.0% gc time)
test_rand_2f1: 0.0 sec (0 allocations: 0 byte, 0.0% gc time)
Closing outfile out/Ml21-cache.bin...   0.000006 seconds
  0.000378 seconds (36 allocations: 27.953 KiB)
make_phi():   0.001615 seconds (8.18 k allocations: 237.844 KiB)
  0.124934 seconds (141.90 k allocations: 3.483 MiB)
tskip:       0.000653 sec (0 allocations: 0 byte, 0.0% gc time)
tread:       0.020669 sec (17 allocations: 10.641 KB, 0.0% gc time)
tmultphi:    0.010461 sec (0 allocations: 0 byte, 0.0% gc time)
tbrfft:      0.033983 sec (0 allocations: 0 byte, 0.0% gc time)
tmultprefac: 0.01961 sec (0 allocations: 0 byte, 0.0% gc time)
toutfunc:    0.036526 sec (127.507 k allocations: 2.312 MB, 0.0% gc time)
Testing R=1.0 ... passed
Calculating fmax: 
  dlrec    = 4
  dlrecRg1 = -4
  q=1.1, R=0.9:	  0.257840 seconds (105.72 k allocations: 15.273 MiB, 6.76% gc time)

  0.258023 seconds (105.78 k allocations: 15.307 MiB, 6.76% gc time)
ℓ = 1202
Δℓ = 4
ΔℓRg1 = -4
N = 1600
q = 1.1
kmin = 1.0e-5
kmax = 100000.00000000004
χ0 = 0.023029999999999995
RR = RR.tsv
ℓmax = ℓmax.bin
f21 = f21.bin
kmin = 1.0e-5
kmax = 100000.0
dlrec    = 4
dlrecRg1 = -4
Output size: 5741568 bytes = 0.005347251892089844 GiB
Output size: 51264 bytes = 4.774332046508789e-5 GiB
Reading 'out/F21EllCache'...   0.000821 seconds (197 allocations: 84.203 KiB)
ellmax: 1202
lmaxcache: 1202
fell[:,1,1] = ComplexF64[1.3482014726274674e-57 - 3.302141236118086e-73im, 1.357860004724329e-57 - 3.3257978169518355e-73im]
ell 1202, elapsed: 1.6927719116210938e-5
ell 1201, elapsed: 0.0002789497375488281
ell 1200, elapsed: 0.0003070831298828125
ell 1199, elapsed: 0.00027108192443847656
ell 1198, elapsed: 0.00026106834411621094
ell 1002, elapsed: 0.008446931838989258
ell 1001, elapsed: 0.00027298927307128906
ell 1000, elapsed: 0.00026106834411621094
ell 999, elapsed: 0.0002651214599609375
ell 998, elapsed: 0.0002639293670654297
ell 902, elapsed: 0.004333019256591797
ell 901, elapsed: 0.0002720355987548828
ell 900, elapsed: 0.00026607513427734375
ell 899, elapsed: 0.0002639293670654297
ell 898, elapsed: 0.000263214111328125
ell 802, elapsed: 0.004326820373535156
ell 801, elapsed: 0.00026607513427734375
ell 800, elapsed: 0.00026106834411621094
ell 799, elapsed: 0.00026297569274902344
ell 798, elapsed: 0.00026106834411621094
ell 702, elapsed: 0.004225015640258789
ell 701, elapsed: 0.00026106834411621094
ell 700, elapsed: 0.0002570152282714844
ell 699, elapsed: 0.0002582073211669922
ell 698, elapsed: 0.0002579689025878906
ell 602, elapsed: 0.004194974899291992
ell 601, elapsed: 0.0002620220184326172
ell 600, elapsed: 0.00025391578674316406
ell 599, elapsed: 0.0002589225769042969
ell 598, elapsed: 0.0002570152282714844
ell 502, elapsed: 0.00420689582824707
ell 501, elapsed: 0.0002651214599609375
ell 500, elapsed: 0.0002579689025878906
ell 499, elapsed: 0.0002579689025878906
ell 498, elapsed: 0.0002579689025878906
ell 402, elapsed: 0.004218101501464844
ell 401, elapsed: 0.00026607513427734375
ell 400, elapsed: 0.00026106834411621094
ell 399, elapsed: 0.0002601146697998047
ell 398, elapsed: 0.000263214111328125
ell 302, elapsed: 0.004310131072998047
ell 301, elapsed: 0.00026798248291015625
ell 300, elapsed: 0.00026297569274902344
ell 299, elapsed: 0.0002651214599609375
ell 298, elapsed: 0.0002770423889160156
ell 202, elapsed: 0.00426793098449707
ell 201, elapsed: 0.00026798248291015625
ell 200, elapsed: 0.0002589225769042969
ell 199, elapsed: 0.0002608299255371094
ell 198, elapsed: 0.00025916099548339844
ell 152, elapsed: 0.002151966094970703
ell 151, elapsed: 0.0002739429473876953
ell 150, elapsed: 0.0002620220184326172
ell 149, elapsed: 0.0002570152282714844
ell 148, elapsed: 0.0002598762512207031
ell 127, elapsed: 0.0011341571807861328
ell 126, elapsed: 0.0002579689025878906
ell 125, elapsed: 0.0002601146697998047
ell 124, elapsed: 0.0002608299255371094
ell 123, elapsed: 0.0002601146697998047
ell 114, elapsed: 0.0006339550018310547
ell 113, elapsed: 0.0002951622009277344
ell 112, elapsed: 0.0002689361572265625
ell 111, elapsed: 0.0002579689025878906
ell 110, elapsed: 0.0002598762512207031
ell 102, elapsed: 0.0006029605865478516
ell 101, elapsed: 0.0002589225769042969
ell 100, elapsed: 0.0002560615539550781
ell 99, elapsed: 0.0002570152282714844
ell 98, elapsed: 0.0002560615539550781
ell 97, elapsed: 0.0003020763397216797
ell 96, elapsed: 0.0002980232238769531
ell 95, elapsed: 0.00030493736267089844
ell 94, elapsed: 0.0002980232238769531
ell 93, elapsed: 0.0003211498260498047
ell 92, elapsed: 0.00030803680419921875
ell 91, elapsed: 0.0003058910369873047
ell 90, elapsed: 0.00030493736267089844
ell 89, elapsed: 0.00030684471130371094
ell 88, elapsed: 0.00030612945556640625
ell 87, elapsed: 0.0003020763397216797
ell 86, elapsed: 0.000308990478515625
ell 85, elapsed: 0.00032901763916015625
ell 84, elapsed: 0.0003039836883544922
ell 83, elapsed: 0.00030493736267089844
ell 82, elapsed: 0.0002999305725097656
ell 81, elapsed: 0.0003349781036376953
ell 80, elapsed: 0.00030612945556640625
ell 79, elapsed: 0.0002989768981933594
ell 78, elapsed: 0.00030517578125
ell 77, elapsed: 0.0002980232238769531
ell 76, elapsed: 0.000308990478515625
ell 75, elapsed: 0.0002989768981933594
ell 74, elapsed: 0.0003008842468261719
ell 73, elapsed: 0.0003039836883544922
ell 72, elapsed: 0.0002970695495605469
ell 71, elapsed: 0.0003070831298828125
ell 70, elapsed: 0.0003020763397216797
ell 69, elapsed: 0.0003459453582763672
ell 68, elapsed: 0.00030994415283203125
ell 67, elapsed: 0.0002989768981933594
ell 66, elapsed: 0.00030803680419921875
ell 65, elapsed: 0.0003018379211425781
ell 64, elapsed: 0.0003018379211425781
ell 63, elapsed: 0.00030803680419921875
ell 62, elapsed: 0.0003027915954589844
ell 61, elapsed: 0.0003070831298828125
ell 60, elapsed: 0.00030303001403808594
ell 59, elapsed: 0.00030303001403808594
ell 58, elapsed: 0.0003070831298828125
ell 57, elapsed: 0.0002999305725097656
ell 56, elapsed: 0.0003361701965332031
ell 55, elapsed: 0.0003108978271484375
ell 54, elapsed: 0.0003039836883544922
ell 53, elapsed: 0.00031113624572753906
ell 52, elapsed: 0.0003018379211425781
ell 51, elapsed: 0.00030517578125
ell 50, elapsed: 0.0002961158752441406
ell 49, elapsed: 0.00031185150146484375
ell 48, elapsed: 0.0003070831298828125
ell 47, elapsed: 0.00030303001403808594
ell 46, elapsed: 0.0003120899200439453
ell 45, elapsed: 0.0003058910369873047
ell 44, elapsed: 0.00032806396484375
ell 43, elapsed: 0.00031113624572753906
ell 42, elapsed: 0.0003018379211425781
ell 41, elapsed: 0.000308990478515625
ell 40, elapsed: 0.00030493736267089844
ell 39, elapsed: 0.00030994415283203125
ell 38, elapsed: 0.0002989768981933594
ell 37, elapsed: 0.000308990478515625
ell 36, elapsed: 0.00030803680419921875
ell 35, elapsed: 0.0003039836883544922
ell 34, elapsed: 0.00030517578125
ell 33, elapsed: 0.0003039836883544922
ell 32, elapsed: 0.00034689903259277344
ell 31, elapsed: 0.0003139972686767578
ell 30, elapsed: 0.0003018379211425781
ell 29, elapsed: 0.00031185150146484375
ell 28, elapsed: 0.0003039836883544922
ell 27, elapsed: 0.0002989768981933594
ell 26, elapsed: 0.00030612945556640625
ell 25, elapsed: 0.00030303001403808594
ell 24, elapsed: 0.00031185150146484375
ell 23, elapsed: 0.0003039836883544922
ell 22, elapsed: 0.0003039836883544922
ell 21, elapsed: 0.00030803680419921875
ell 20, elapsed: 0.00030517578125
ell 19, elapsed: 0.0003390312194824219
ell 18, elapsed: 0.0003039836883544922
ell 17, elapsed: 0.0003070831298828125
ell 16, elapsed: 0.0003139972686767578
ell 15, elapsed: 0.0003018379211425781
ell 14, elapsed: 0.000308990478515625
ell 13, elapsed: 0.00030112266540527344
ell 12, elapsed: 0.0003120899200439453
ell 11, elapsed: 0.000308990478515625
ell 10, elapsed: 0.00030493736267089844
ell 9, elapsed: 0.0003101825714111328
ell 8, elapsed: 0.0003058910369873047
ell 7, elapsed: 0.00035190582275390625
ell 6, elapsed: 0.000308990478515625
ell 5, elapsed: 0.0003039836883544922
ell 4, elapsed: 0.00030994415283203125
ell 3, elapsed: 0.0003018379211425781
ell 2, elapsed: 0.0003039836883544922
ell 1, elapsed: 0.00030803680419921875
ell 0, elapsed: 0.0003058910369873047
  0.095289 seconds (11.51 k allocations: 719.594 KiB)
elapsed: 0.0003838539123535156
step:          0.048409 sec (0 allocations: 0 byte, 0.0% gc time)
swapping:      0.000315 sec (0 allocations: 0 byte, 0.0% gc time)
calc_Mellell!: 0.00087 sec (0 allocations: 0 byte, 0.0% gc time)
  t0 :  0.000221 sec (0 allocations: 0 byte, 0.0% gc time)
  tm2 : 0.009946 sec (0 allocations: 0 byte, 0.0% gc time)
  tm2s: 0.000166 sec (0 allocations: 0 byte, 0.0% gc time)
  tm4 : 0.023915 sec (0 allocations: 0 byte, 0.0% gc time)
  tp2 : 0.0 sec (0 allocations: 0 byte, 0.0% gc time)
  tp2s: 0.0 sec (0 allocations: 0 byte, 0.0% gc time)
  tp4 : 0.0 sec (0 allocations: 0 byte, 0.0% gc time)
calc_wtdll!:   0.03456 sec (1.344 k allocations: 147.0 KB, 0.0% gc time)
calc_wljj!:    0.002374 sec (6 allocations: 96 byte, 0.0% gc time)
mult_prefac!:  0.0 sec (0 allocations: 0 byte, 0.0% gc time)
convert:       0.0 sec (0 allocations: 0 byte, 0.0% gc time)
write:         0.002686 sec (0 allocations: 0 byte, 0.0% gc time)
test_rand_2f1: 0.0 sec (0 allocations: 0 byte, 0.0% gc time)
Closing outfile out/Ml21-cache.bin...   0.000005 seconds
  0.000368 seconds (36 allocations: 27.953 KiB)
make_phi():   0.001634 seconds (8.18 k allocations: 237.844 KiB)
  0.011549 seconds (11.65 k allocations: 308.688 KiB)
tskip:       1.4e-5 sec (0 allocations: 0 byte, 0.0% gc time)
tread:       0.001917 sec (17 allocations: 2.125 KB, 0.0% gc time)
tmultphi:    0.00097 sec (0 allocations: 0 byte, 0.0% gc time)
tbrfft:      0.003233 sec (0 allocations: 0 byte, 0.0% gc time)
tmultprefac: 0.001787 sec (0 allocations: 0 byte, 0.0% gc time)
toutfunc:    0.003384 sec (10.304 k allocations: 196.0 KB, 0.0% gc time)
Testing R=0.9 ... passed
Calculating fmax: 
  dlrec    = 4
  dlrecRg1 = -4
  q=1.1, R=0.8:	  0.194279 seconds (103.21 k allocations: 14.840 MiB)

  0.194423 seconds (103.26 k allocations: 14.874 MiB)
ℓ = 1202
Δℓ = 4
ΔℓRg1 = -4
N = 1600
q = 1.1
kmin = 1.0e-5
kmax = 100000.00000000004
χ0 = 0.023029999999999995
RR = RR.tsv
ℓmax = ℓmax.bin
f21 = f21.bin
kmin = 1.0e-5
kmax = 100000.0
dlrec    = 4
dlrecRg1 = -4
Output size: 5741568 bytes = 0.005347251892089844 GiB
Output size: 51264 bytes = 4.774332046508789e-5 GiB
Reading 'out/F21EllCache'...   0.000770 seconds (197 allocations: 84.203 KiB)
ellmax: 1202
lmaxcache: 1202
fell[:,1,1] = ComplexF64[7.519068145690986e-120 - 1.8416405474382574e-135im, 7.541664537386155e-120 - 1.847175067190611e-135im]
ell 1202, elapsed: 1.4781951904296875e-5
ell 1201, elapsed: 0.00030803680419921875
ell 1200, elapsed: 0.0003180503845214844
ell 1199, elapsed: 0.00028586387634277344
ell 1198, elapsed: 0.0002810955047607422
ell 1002, elapsed: 0.008594036102294922
ell 1001, elapsed: 0.0002720355987548828
ell 1000, elapsed: 0.0002639293670654297
ell 999, elapsed: 0.00026488304138183594
ell 998, elapsed: 0.00027108192443847656
ell 902, elapsed: 0.00436091423034668
ell 901, elapsed: 0.0002689361572265625
ell 900, elapsed: 0.0002639293670654297
ell 899, elapsed: 0.0002651214599609375
ell 898, elapsed: 0.0002970695495605469
ell 802, elapsed: 0.004325151443481445
ell 801, elapsed: 0.00026798248291015625
ell 800, elapsed: 0.0002651214599609375
ell 799, elapsed: 0.00026297569274902344
ell 798, elapsed: 0.0002601146697998047
ell 702, elapsed: 0.004251956939697266
ell 701, elapsed: 0.00026702880859375
ell 700, elapsed: 0.0002701282501220703
ell 699, elapsed: 0.00026607513427734375
ell 698, elapsed: 0.00026297569274902344
ell 602, elapsed: 0.004308938980102539
ell 601, elapsed: 0.0002682209014892578
ell 600, elapsed: 0.00026106834411621094
ell 599, elapsed: 0.0002970695495605469
ell 598, elapsed: 0.00027298927307128906
ell 502, elapsed: 0.004302978515625
ell 501, elapsed: 0.0002689361572265625
ell 500, elapsed: 0.00026297569274902344
ell 499, elapsed: 0.00026416778564453125
ell 498, elapsed: 0.0002639293670654297
ell 402, elapsed: 0.004324913024902344
ell 401, elapsed: 0.0002701282501220703
ell 400, elapsed: 0.00026297569274902344
ell 399, elapsed: 0.0002639293670654297
ell 398, elapsed: 0.0002639293670654297
ell 302, elapsed: 0.004269838333129883
ell 301, elapsed: 0.0002789497375488281
ell 300, elapsed: 0.0002689361572265625
ell 299, elapsed: 0.00026106834411621094
ell 298, elapsed: 0.0002639293670654297
ell 202, elapsed: 0.004418134689331055
ell 201, elapsed: 0.0002639293670654297
ell 200, elapsed: 0.0002579689025878906
ell 199, elapsed: 0.0002579689025878906
ell 198, elapsed: 0.00026702880859375
ell 152, elapsed: 0.0022089481353759766
ell 151, elapsed: 0.00026106834411621094
ell 150, elapsed: 0.0002620220184326172
ell 149, elapsed: 0.0002639293670654297
ell 148, elapsed: 0.0002620220184326172
ell 127, elapsed: 0.0011510848999023438
ell 126, elapsed: 0.0002579689025878906
ell 125, elapsed: 0.0002589225769042969
ell 124, elapsed: 0.0002579689025878906
ell 123, elapsed: 0.0003139972686767578
ell 114, elapsed: 0.0006458759307861328
ell 113, elapsed: 0.00025916099548339844
ell 112, elapsed: 0.0002579689025878906
ell 111, elapsed: 0.0002570152282714844
ell 110, elapsed: 0.0002639293670654297
ell 102, elapsed: 0.0006029605865478516
ell 101, elapsed: 0.00026106834411621094
ell 100, elapsed: 0.00026297569274902344
ell 99, elapsed: 0.0002579689025878906
ell 98, elapsed: 0.0002589225769042969
ell 97, elapsed: 0.0003170967102050781
ell 96, elapsed: 0.00033783912658691406
ell 95, elapsed: 0.00031113624572753906
ell 94, elapsed: 0.0003008842468261719
ell 93, elapsed: 0.0003018379211425781
ell 92, elapsed: 0.0003180503845214844
ell 91, elapsed: 0.00030303001403808594
ell 90, elapsed: 0.00031495094299316406
ell 89, elapsed: 0.0003039836883544922
ell 88, elapsed: 0.0003039836883544922
ell 87, elapsed: 0.00030612945556640625
ell 86, elapsed: 0.0003170967102050781
ell 85, elapsed: 0.0003108978271484375
ell 84, elapsed: 0.0003600120544433594
ell 83, elapsed: 0.0003120899200439453
ell 82, elapsed: 0.00031304359436035156
ell 81, elapsed: 0.0003039836883544922
ell 80, elapsed: 0.00031495094299316406
ell 79, elapsed: 0.000308990478515625
ell 78, elapsed: 0.0003070831298828125
ell 77, elapsed: 0.0003170967102050781
ell 76, elapsed: 0.00030493736267089844
ell 75, elapsed: 0.0003228187561035156
ell 74, elapsed: 0.0003101825714111328
ell 73, elapsed: 0.0003008842468261719
ell 72, elapsed: 0.00034499168395996094
ell 71, elapsed: 0.0003170967102050781
ell 70, elapsed: 0.0003139972686767578
ell 69, elapsed: 0.00030803680419921875
ell 68, elapsed: 0.0003108978271484375
ell 67, elapsed: 0.000308990478515625
ell 66, elapsed: 0.00030517578125
ell 65, elapsed: 0.00030803680419921875
ell 64, elapsed: 0.0003039836883544922
ell 63, elapsed: 0.00030493736267089844
ell 62, elapsed: 0.00030803680419921875
ell 61, elapsed: 0.00030612945556640625
ell 60, elapsed: 0.00034999847412109375
ell 59, elapsed: 0.00030612945556640625
ell 58, elapsed: 0.0003120899200439453
ell 57, elapsed: 0.0003151893615722656
ell 56, elapsed: 0.0003058910369873047
[...]
ell 782, elapsed: 0.0010709762573242188
ell 781, elapsed: 0.00055694580078125
ell 780, elapsed: 0.0005710124969482422
ell 779, elapsed: 0.0005619525909423828
ell 778, elapsed: 0.0005750656127929688
ell 772, elapsed: 0.0010330677032470703
ell 771, elapsed: 0.0005438327789306641
ell 770, elapsed: 0.0005738735198974609
ell 769, elapsed: 0.0005629062652587891
ell 768, elapsed: 0.0005660057067871094
ell 762, elapsed: 0.0009970664978027344
ell 761, elapsed: 0.0005810260772705078
ell 760, elapsed: 0.0004820823669433594
ell 759, elapsed: 0.0005319118499755859
ell 758, elapsed: 0.0005609989166259766
ell 752, elapsed: 0.0009839534759521484
ell 751, elapsed: 0.0005500316619873047
ell 750, elapsed: 0.0005950927734375
ell 749, elapsed: 0.0005650520324707031
ell 748, elapsed: 0.0005769729614257812
ell 742, elapsed: 0.0009999275207519531
ell 741, elapsed: 0.0005340576171875
ell 740, elapsed: 0.0005559921264648438
ell 739, elapsed: 0.0005340576171875
ell 738, elapsed: 0.0005950927734375
ell 732, elapsed: 0.0009670257568359375
ell 731, elapsed: 0.0005309581756591797
ell 730, elapsed: 0.0005459785461425781
ell 729, elapsed: 0.0005488395690917969
ell 728, elapsed: 0.0005478858947753906
ell 722, elapsed: 0.0010509490966796875
ell 721, elapsed: 0.0005381107330322266
ell 720, elapsed: 0.0005440711975097656
ell 719, elapsed: 0.0005381107330322266
ell 718, elapsed: 0.0005409717559814453
ell 712, elapsed: 0.0010249614715576172
ell 711, elapsed: 0.0005359649658203125
ell 710, elapsed: 0.0005540847778320312
ell 709, elapsed: 0.0005459785461425781
ell 708, elapsed: 0.0005450248718261719
ell 702, elapsed: 0.0009968280792236328
ell 701, elapsed: 0.0005359649658203125
ell 700, elapsed: 0.0005919933319091797
ell 699, elapsed: 0.0005450248718261719
ell 698, elapsed: 0.0005400180816650391
ell 692, elapsed: 0.0009620189666748047
ell 691, elapsed: 0.0005238056182861328
ell 690, elapsed: 0.0005481243133544922
ell 689, elapsed: 0.0005819797515869141
ell 688, elapsed: 0.0005509853363037109
ell 682, elapsed: 0.0009808540344238281
ell 681, elapsed: 0.0005421638488769531
ell 680, elapsed: 0.0005490779876708984
ell 679, elapsed: 0.0005388259887695312
ell 678, elapsed: 0.0005841255187988281
ell 672, elapsed: 0.0009741783142089844
ell 671, elapsed: 0.0005390644073486328
ell 670, elapsed: 0.0005598068237304688
ell 669, elapsed: 0.0005509853363037109
ell 668, elapsed: 0.0005528926849365234
ell 662, elapsed: 0.001035928726196289
ell 661, elapsed: 0.0005440711975097656
ell 660, elapsed: 0.0005369186401367188
ell 659, elapsed: 0.0005381107330322266
ell 658, elapsed: 0.0005450248718261719
ell 652, elapsed: 0.0009808540344238281
ell 651, elapsed: 0.0005609989166259766
ell 650, elapsed: 0.0005412101745605469
ell 649, elapsed: 0.0005371570587158203
ell 648, elapsed: 0.0005490779876708984
ell 642, elapsed: 0.0009810924530029297
ell 641, elapsed: 0.0005428791046142578
ell 640, elapsed: 0.000659942626953125
ell 639, elapsed: 0.0005340576171875
ell 638, elapsed: 0.0005428791046142578
ell 632, elapsed: 0.0009729862213134766
ell 631, elapsed: 0.0005300045013427734
ell 630, elapsed: 0.0005450248718261719
ell 629, elapsed: 0.0005619525909423828
ell 628, elapsed: 0.0005540847778320312
ell 622, elapsed: 0.0009789466857910156
ell 621, elapsed: 0.0005381107330322266
ell 620, elapsed: 0.0005431175231933594
ell 619, elapsed: 0.0005400180816650391
ell 618, elapsed: 0.0006010532379150391
ell 612, elapsed: 0.001020193099975586
ell 611, elapsed: 0.0005497932434082031
ell 610, elapsed: 0.0005660057067871094
ell 609, elapsed: 0.0005369186401367188
ell 608, elapsed: 0.0005509853363037109
ell 602, elapsed: 0.0010421276092529297
ell 601, elapsed: 0.0005578994750976562
ell 600, elapsed: 0.0005621910095214844
ell 599, elapsed: 0.0005619525909423828
ell 598, elapsed: 0.0005750656127929688
ell 592, elapsed: 0.001007080078125
ell 591, elapsed: 0.0005939006805419922
ell 590, elapsed: 0.0005650520324707031
ell 589, elapsed: 0.0005500316619873047
ell 588, elapsed: 0.0005609989166259766
ell 582, elapsed: 0.0010330677032470703
ell 581, elapsed: 0.0005578994750976562
ell 580, elapsed: 0.0006339550018310547
ell 579, elapsed: 0.0005598068237304688
ell 578, elapsed: 0.0005750656127929688
ell 572, elapsed: 0.0010309219360351562
ell 571, elapsed: 0.0005490779876708984
ell 570, elapsed: 0.0005600452423095703
ell 569, elapsed: 0.0005948543548583984
ell 568, elapsed: 0.0005669593811035156
ell 562, elapsed: 0.0010058879852294922
ell 561, elapsed: 0.0005650520324707031
ell 560, elapsed: 0.0005660057067871094
ell 559, elapsed: 0.0005629062652587891
ell 558, elapsed: 0.0006170272827148438
ell 552, elapsed: 0.0009989738464355469
ell 551, elapsed: 0.00055694580078125
ell 550, elapsed: 0.000576019287109375
ell 549, elapsed: 0.0005621910095214844
ell 548, elapsed: 0.0005691051483154297
ell 542, elapsed: 0.0010099411010742188
ell 541, elapsed: 0.0005338191986083984
ell 540, elapsed: 0.0005669593811035156
ell 539, elapsed: 0.0005319118499755859
ell 538, elapsed: 0.0005397796630859375
ell 532, elapsed: 0.0010380744934082031
ell 531, elapsed: 0.0005419254302978516
ell 530, elapsed: 0.0005640983581542969
ell 529, elapsed: 0.000553131103515625
ell 528, elapsed: 0.0005419254302978516
ell 522, elapsed: 0.0009989738464355469
ell 521, elapsed: 0.0006208419799804688
ell 520, elapsed: 0.0005559921264648438
ell 519, elapsed: 0.0005419254302978516
ell 518, elapsed: 0.0005540847778320312
ell 512, elapsed: 0.000985860824584961
ell 511, elapsed: 0.0005519390106201172
ell 510, elapsed: 0.0005521774291992188
ell 509, elapsed: 0.0005459785461425781
ell 508, elapsed: 0.0005512237548828125
ell 502, elapsed: 0.0009839534759521484
ell 501, elapsed: 0.0005400180816650391
ell 500, elapsed: 0.0005609989166259766
ell 499, elapsed: 0.0005528926849365234
ell 498, elapsed: 0.0006029605865478516
ell 492, elapsed: 0.0009908676147460938
ell 491, elapsed: 0.0005388259887695312
ell 490, elapsed: 0.0005571842193603516
ell 489, elapsed: 0.0005381107330322266
ell 488, elapsed: 0.0005471706390380859
ell 482, elapsed: 0.0010128021240234375
ell 481, elapsed: 0.000537872314453125
ell 480, elapsed: 0.0005638599395751953
ell 479, elapsed: 0.0005340576171875
ell 478, elapsed: 0.0005540847778320312
ell 472, elapsed: 0.001024007797241211
ell 471, elapsed: 0.0005500316619873047
ell 470, elapsed: 0.0005550384521484375
ell 469, elapsed: 0.0005590915679931641
ell 468, elapsed: 0.0005469322204589844
ell 462, elapsed: 0.0010008811950683594
ell 461, elapsed: 0.0005948543548583984
ell 460, elapsed: 0.0005619525909423828
ell 459, elapsed: 0.0005559921264648438
ell 458, elapsed: 0.0005619525909423828
ell 452, elapsed: 0.0010068416595458984
ell 451, elapsed: 0.0005469322204589844
ell 450, elapsed: 0.0006289482116699219
ell 449, elapsed: 0.0005660057067871094
ell 448, elapsed: 0.0005769729614257812
ell 442, elapsed: 0.0010051727294921875
ell 441, elapsed: 0.0005497932434082031
ell 440, elapsed: 0.0005691051483154297
ell 439, elapsed: 0.0005910396575927734
ell 438, elapsed: 0.0005540847778320312
ell 432, elapsed: 0.0010230541229248047
ell 431, elapsed: 0.0005400180816650391
ell 430, elapsed: 0.0005519390106201172
ell 429, elapsed: 0.0005450248718261719
ell 428, elapsed: 0.0005519390106201172
ell 422, elapsed: 0.001024007797241211
ell 421, elapsed: 0.0005490779876708984
ell 420, elapsed: 0.0005540847778320312
ell 419, elapsed: 0.0005388259887695312
ell 418, elapsed: 0.0005631446838378906
ell 412, elapsed: 0.0010609626770019531
ell 411, elapsed: 0.0005450248718261719
ell 410, elapsed: 0.00055694580078125
ell 409, elapsed: 0.0005469322204589844
ell 408, elapsed: 0.00055694580078125
ell 402, elapsed: 0.0010061264038085938
ell 401, elapsed: 0.0005900859832763672
ell 400, elapsed: 0.0005588531494140625
ell 399, elapsed: 0.0005462169647216797
ell 398, elapsed: 0.0005600452423095703
ell 392, elapsed: 0.0010149478912353516
ell 391, elapsed: 0.0005459785461425781
ell 390, elapsed: 0.0005869865417480469
ell 389, elapsed: 0.0005438327789306641
ell 388, elapsed: 0.0005519390106201172
ell 382, elapsed: 0.0010111331939697266
ell 381, elapsed: 0.0005369186401367188
ell 380, elapsed: 0.0005540847778320312
ell 379, elapsed: 0.0006649494171142578
ell 378, elapsed: 0.0005650520324707031
ell 372, elapsed: 0.0010330677032470703
ell 371, elapsed: 0.0005550384521484375
ell 370, elapsed: 0.0005660057067871094
ell 369, elapsed: 0.0005698204040527344
ell 368, elapsed: 0.0006051063537597656
ell 362, elapsed: 0.0010600090026855469
ell 361, elapsed: 0.0005590915679931641
ell 360, elapsed: 0.0005540847778320312
ell 359, elapsed: 0.0005600452423095703
ell 358, elapsed: 0.0005588531494140625
ell 352, elapsed: 0.0010890960693359375
ell 351, elapsed: 0.0005528926849365234
ell 350, elapsed: 0.0005559921264648438
ell 349, elapsed: 0.0005540847778320312
ell 348, elapsed: 0.0005769729614257812
ell 342, elapsed: 0.0011289119720458984
ell 341, elapsed: 0.0005681514739990234
ell 340, elapsed: 0.0005679130554199219
ell 339, elapsed: 0.0005419254302978516
ell 338, elapsed: 0.0005528926849365234
ell 332, elapsed: 0.0010161399841308594
ell 331, elapsed: 0.0005710124969482422
ell 330, elapsed: 0.0005609989166259766
ell 329, elapsed: 0.0005590915679931641
ell 328, elapsed: 0.0005590915679931641
ell 322, elapsed: 0.0010271072387695312
ell 321, elapsed: 0.0005428791046142578
ell 320, elapsed: 0.0005948543548583984
ell 319, elapsed: 0.0005481243133544922
ell 318, elapsed: 0.0005488395690917969
ell 312, elapsed: 0.0009970664978027344
ell 311, elapsed: 0.0005350112915039062
ell 310, elapsed: 0.0005338191986083984
ell 309, elapsed: 0.0005691051483154297
ell 308, elapsed: 0.0005459785461425781
ell 302, elapsed: 0.001024007797241211
ell 301, elapsed: 0.0005390644073486328
ell 300, elapsed: 0.0005381107330322266
ell 299, elapsed: 0.0005471706390380859
ell 298, elapsed: 0.0005419254302978516
ell 292, elapsed: 0.0010559558868408203
ell 291, elapsed: 0.0005578994750976562
ell 290, elapsed: 0.0005519390106201172
ell 289, elapsed: 0.0005471706390380859
ell 288, elapsed: 0.0005390644073486328
ell 282, elapsed: 0.0010709762573242188
ell 281, elapsed: 0.0005500316619873047
ell 280, elapsed: 0.0005500316619873047
ell 279, elapsed: 0.0005419254302978516
ell 278, elapsed: 0.0005409717559814453
ell 272, elapsed: 0.0009999275207519531
ell 271, elapsed: 0.0005872249603271484
ell 270, elapsed: 0.0005469322204589844
ell 269, elapsed: 0.0005519390106201172
ell 268, elapsed: 0.0005509853363037109
ell 262, elapsed: 0.0010139942169189453
ell 261, elapsed: 0.0005548000335693359
ell 260, elapsed: 0.0005991458892822266
ell 259, elapsed: 0.0005588531494140625
ell 258, elapsed: 0.0005750656127929688
ell 252, elapsed: 0.0010101795196533203
ell 251, elapsed: 0.0005459785461425781
ell 250, elapsed: 0.0005660057067871094
ell 249, elapsed: 0.0006561279296875
ell 248, elapsed: 0.000553131103515625
ell 242, elapsed: 0.0009710788726806641
ell 241, elapsed: 0.0005509853363037109
ell 240, elapsed: 0.0005559921264648438
ell 239, elapsed: 0.0005650520324707031
ell 238, elapsed: 0.0006039142608642578
ell 232, elapsed: 0.001024007797241211
ell 231, elapsed: 0.0005500316619873047
ell 230, elapsed: 0.0005738735198974609
ell 229, elapsed: 0.0005450248718261719
ell 228, elapsed: 0.0005590915679931641
ell 222, elapsed: 0.0010328292846679688
ell 221, elapsed: 0.0005581378936767578
ell 220, elapsed: 0.0005640983581542969
ell 219, elapsed: 0.0005710124969482422
ell 218, elapsed: 0.0005519390106201172
ell 212, elapsed: 0.001024007797241211
ell 211, elapsed: 0.0005979537963867188
ell 210, elapsed: 0.0005710124969482422
ell 209, elapsed: 0.00055694580078125
ell 208, elapsed: 0.0005791187286376953
ell 202, elapsed: 0.0010581016540527344
ell 201, elapsed: 0.000576019287109375
ell 200, elapsed: 0.0006041526794433594
ell 199, elapsed: 0.0005548000335693359
ell 198, elapsed: 0.0005669593811035156
ell 192, elapsed: 0.0010669231414794922
ell 191, elapsed: 0.0005609989166259766
ell 190, elapsed: 0.00057220458984375
ell 189, elapsed: 0.0005700588226318359
ell 188, elapsed: 0.0005669593811035156
ell 182, elapsed: 0.0010459423065185547
ell 181, elapsed: 0.0005509853363037109
ell 180, elapsed: 0.0005700588226318359
ell 179, elapsed: 0.0006089210510253906
ell 178, elapsed: 0.0005919933319091797
ell 172, elapsed: 0.0010421276092529297
ell 171, elapsed: 0.0005741119384765625
ell 170, elapsed: 0.0005750656127929688
ell 169, elapsed: 0.0005719661712646484
ell 168, elapsed: 0.0006248950958251953
ell 162, elapsed: 0.0010449886322021484
ell 161, elapsed: 0.0005559921264648438
ell 160, elapsed: 0.0005729198455810547
ell 159, elapsed: 0.0005548000335693359
ell 158, elapsed: 0.0005679130554199219
ell 152, elapsed: 0.0010380744934082031
ell 151, elapsed: 0.0005600452423095703
ell 150, elapsed: 0.0005819797515869141
ell 149, elapsed: 0.0005788803100585938
ell 148, elapsed: 0.0005688667297363281
ell 142, elapsed: 0.0010831356048583984
ell 141, elapsed: 0.0005669593811035156
ell 140, elapsed: 0.0005829334259033203
ell 139, elapsed: 0.0005640983581542969
ell 138, elapsed: 0.0005888938903808594
ell 132, elapsed: 0.0010211467742919922
ell 131, elapsed: 0.0005869865417480469
ell 130, elapsed: 0.0005848407745361328
ell 129, elapsed: 0.0005779266357421875
ell 128, elapsed: 0.0005691051483154297
ell 122, elapsed: 0.0009949207305908203
ell 121, elapsed: 0.0005431175231933594
ell 120, elapsed: 0.0006000995635986328
ell 119, elapsed: 0.0005550384521484375
ell 118, elapsed: 0.0005669593811035156
ell 112, elapsed: 0.001013040542602539
ell 111, elapsed: 0.0005600452423095703
ell 110, elapsed: 0.0005822181701660156
ell 109, elapsed: 0.0007009506225585938
ell 108, elapsed: 0.0005691051483154297
ell 102, elapsed: 0.0010080337524414062
ell 101, elapsed: 0.002340078353881836
ell 100, elapsed: 0.002359151840209961
ell 99, elapsed: 0.0024089813232421875
ell 98, elapsed: 0.002348184585571289
ell 92, elapsed: 0.004615068435668945
ell 91, elapsed: 0.002384185791015625
ell 90, elapsed: 0.0024089813232421875
ell 89, elapsed: 0.0023779869079589844
ell 88, elapsed: 0.002444028854370117
ell 82, elapsed: 0.0046138763427734375
ell 81, elapsed: 0.0024328231811523438
ell 80, elapsed: 0.0023360252380371094
ell 79, elapsed: 0.002382040023803711
ell 78, elapsed: 0.0023479461669921875
ell 72, elapsed: 0.0045871734619140625
ell 71, elapsed: 0.0024840831756591797
ell 70, elapsed: 0.0023849010467529297
ell 69, elapsed: 0.0024099349975585938
ell 68, elapsed: 0.0023641586303710938
ell 62, elapsed: 0.004567861557006836
ell 61, elapsed: 0.0023660659790039062
ell 60, elapsed: 0.0023381710052490234
ell 59, elapsed: 0.0023679733276367188
ell 58, elapsed: 0.0023958683013916016
ell 52, elapsed: 0.0046617984771728516
ell 51, elapsed: 0.002370119094848633
ell 50, elapsed: 0.0023679733276367188
ell 49, elapsed: 0.002368927001953125
ell 48, elapsed: 0.0023419857025146484
ell 42, elapsed: 0.00457310676574707
ell 41, elapsed: 0.002382993698120117
ell 40, elapsed: 0.002393007278442383
ell 39, elapsed: 0.0023369789123535156
ell 38, elapsed: 0.0024139881134033203
ell 32, elapsed: 0.004561901092529297
ell 31, elapsed: 0.0024080276489257812
ell 30, elapsed: 0.0023751258850097656
ell 29, elapsed: 0.0024499893188476562
ell 28, elapsed: 0.0023589134216308594
ell 22, elapsed: 0.00450587272644043
ell 21, elapsed: 0.002283811569213867
ell 20, elapsed: 0.0023860931396484375
ell 19, elapsed: 0.0023429393768310547
ell 18, elapsed: 0.002370119094848633
ell 12, elapsed: 0.0045490264892578125
ell 11, elapsed: 0.002357959747314453
ell 10, elapsed: 0.00232696533203125
ell 9, elapsed: 0.0023260116577148438
ell 8, elapsed: 0.0023140907287597656
  0.510146 seconds (68.56 k allocations: 12.176 MiB)
elapsed: 0.002801179885864258
step:          0.045366 sec (0 allocations: 0 byte, 0.0% gc time)
swapping:      0.000436 sec (0 allocations: 0 byte, 0.0% gc time)
calc_Mellell!: 0.020071 sec (0 allocations: 0 byte, 0.0% gc time)
  t0 :  0.006945 sec (0 allocations: 0 byte, 0.0% gc time)
  tm2 : 0.050462 sec (0 allocations: 0 byte, 0.0% gc time)
  tm2s: 0.005892 sec (0 allocations: 0 byte, 0.0% gc time)
  tm4 : 0.115347 sec (0 allocations: 0 byte, 0.0% gc time)
  tp2 : 0.0 sec (0 allocations: 0 byte, 0.0% gc time)
  tp2s: 0.0 sec (0 allocations: 0 byte, 0.0% gc time)
  tp4 : 0.0 sec (0 allocations: 0 byte, 0.0% gc time)
calc_wtdll!:   0.369483 sec (48.6 k allocations: 11.096 MB, 0.0% gc time)
calc_wljj!:    0.021884 sec (69 allocations: 1.078 KB, 0.0% gc time)
mult_prefac!:  0.0 sec (0 allocations: 0 byte, 0.0% gc time)
convert:       0.0 sec (0 allocations: 0 byte, 0.0% gc time)
write:         0.024738 sec (0 allocations: 0 byte, 0.0% gc time)
test_rand_2f1: 0.0 sec (0 allocations: 0 byte, 0.0% gc time)
Closing outfile out/MlCache/MlCache.bin...   0.000007 seconds
xi, l=0, nu=0:   0.275576 seconds (602.86 k allocations: 32.972 MiB, 99.34% compilation time)
xi, l=0, nu=-2:  0.001489 seconds (114 allocations: 148.969 KiB)
Created 'out/xi.tsv'.
  q=1.1, R=0.6:	  0.413243 seconds (264.58 k allocations: 38.109 MiB, 4.47% gc time)
  q=1.1, R=0.7:	  0.461222 seconds (276.43 k allocations: 40.113 MiB, 3.11% gc time)
  q=1.1, R=0.8:	  0.460406 seconds (271.87 k allocations: 39.334 MiB, 2.17% gc time)
  q=1.1, R=0.9:	  0.548324 seconds (266.68 k allocations: 38.464 MiB, 1.07% gc time)
  q=1.1, R=0.998:	 14.312228 seconds (114.96 k allocations: 7.588 MiB)
  q=1.1, R=1.0:	  0.003110 seconds (8.20 k allocations: 704.344 KiB)

ℓ = 1000
Δℓ = 4
ΔℓRg1 = -4
N = 4096
q = 1.1
kmin = 1.0e-5
kmax = 1000.0
χ0 = 0.001
RR = RR.tsv
ℓmax = ℓmax.bin
f21 = f21.bin
kmin = 1.0e-5
kmax = 1000.0
dlrec    = 4
dlrecRg1 = -4
Output size: 1573632 bytes = 0.0014655590057373047 GiB
Output size: 786816 bytes = 0.0007327795028686523 GiB
Reading 'out/F21EllCache'...   0.001054 seconds (198 allocations: 533.078 KiB)
ellmax: 1002
lmaxcache: 1000
fell[:,1,1] = ComplexF64[1.726292812820208e-224 - 4.2281979352226965e-240im, 1.7282693092099638e-224 - 4.233038955177178e-240im]
ell 1002, elapsed: 3.504753112792969e-5
ell 1001, elapsed: 0.0005209445953369141
ell 1000, elapsed: 0.0007669925689697266
ell 999, elapsed: 0.004236936569213867
ell 998, elapsed: 0.003976106643676758
ell 44, elapsed: 0.5832681655883789
ell 43, elapsed: 0.004124879837036133
ell 42, elapsed: 0.003950834274291992
ell 41, elapsed: 0.0039060115814208984
ell 40, elapsed: 0.004029035568237305
  0.613842 seconds (4.59 k allocations: 322.266 KiB)
elapsed: 0.0050640106201171875
step:          0.58101 sec (0 allocations: 0 byte, 0.0% gc time)
swapping:      0.000439 sec (0 allocations: 0 byte, 0.0% gc time)
calc_Mellell!: 0.000691 sec (0 allocations: 0 byte, 0.0% gc time)
  t0 :  0.000448 sec (0 allocations: 0 byte, 0.0% gc time)
  tm2 : 0.007444 sec (0 allocations: 0 byte, 0.0% gc time)
  tm2s: 0.000366 sec (0 allocations: 0 byte, 0.0% gc time)
  tm4 : 0.018443 sec (0 allocations: 0 byte, 0.0% gc time)
  tp2 : 0.0 sec (0 allocations: 0 byte, 0.0% gc time)
  tp2s: 0.0 sec (0 allocations: 0 byte, 0.0% gc time)
  tp4 : 0.0 sec (0 allocations: 0 byte, 0.0% gc time)
calc_wtdll!:   0.026875 sec (480 allocations: 52.5 KB, 0.0% gc time)
calc_wljj!:    0.001014 sec (1 allocations: 16 byte, 0.0% gc time)
mult_prefac!:  0.0 sec (0 allocations: 0 byte, 0.0% gc time)
convert:       0.0 sec (0 allocations: 0 byte, 0.0% gc time)
write:         0.000609 sec (0 allocations: 0 byte, 0.0% gc time)
test_rand_2f1: 0.0 sec (0 allocations: 0 byte, 0.0% gc time)
Closing outfile out/MlCache/MlCache.bin...   0.000009 seconds
  0.367657 seconds (38 allocations: 66.859 KiB)
make_phi():   0.005877 seconds (65 allocations: 275.984 KiB)
  0.037133 seconds (11.42 k allocations: 711.960 KiB, 91.77% compilation time)
tskip:       1.0e-6 sec (0 allocations: 0 byte, 0.0% gc time)
tread:       0.000467 sec (17 allocations: 1.266 KB, 0.0% gc time)
tmultphi:    0.000189 sec (0 allocations: 0 byte, 0.0% gc time)
tbrfft:      0.000766 sec (0 allocations: 0 byte, 0.0% gc time)
tmultprefac: 0.000645 sec (0 allocations: 0 byte, 0.0% gc time)
toutfunc:    5.7e-5 sec (0 allocations: 0 byte, 0.0% gc time)
Created 'out/wl42_jj00.tsv'.
Created 'out/wl42_jj02.tsv'.
    Testing TwoFAST tests passed 
