Julia Version 1.5.0-DEV.13
Commit dfcba8768f (2020-01-06 06:02 UTC)
Platform Info:
  OS: Linux (x86_64-linux-gnu)
  CPU: Intel(R) Xeon(R) Silver 4114 CPU @ 2.20GHz
  WORD_SIZE: 64
  LIBM: libopenlibm
  LLVM: libLLVM-8.0.1 (ORCJIT, skylake)
Environment:
  JULIA_DEPOT_PATH = ::/usr/local/share/julia

 Resolving package versions...
 Installed Reexport ───────── v0.2.0
 Installed URIParser ──────── v0.4.0
 Installed MKL_jll ────────── v2019.0.117+0
 Installed FFTW_jll ───────── v3.3.9+3
 Installed AbstractFFTs ───── v0.5.0
 Installed BinaryProvider ─── v0.5.8
 Installed AbstractAlgebra ── v0.7.1
 Installed FFTW ───────────── v1.2.0
 Installed SpecialFunctions ─ v0.8.0
 Installed IntelOpenMP_jll ── v2018.0.3+0
 Installed BinDeps ────────── v1.0.0
 Installed IncGammaBeta ───── v0.1.0
 Installed TwoFAST ────────── v0.1.0
 Installed Nemo ───────────── v0.15.1
  Updating `~/.julia/environments/v1.5/Project.toml`
  [0dd23c3e] + TwoFAST v0.1.0
  Updating `~/.julia/environments/v1.5/Manifest.toml`
  [c3fe647b] + AbstractAlgebra v0.7.1
  [621f4979] + AbstractFFTs v0.5.0
  [9e28174c] + BinDeps v1.0.0
  [b99e7846] + BinaryProvider v0.5.8
  [7a1cc6ca] + FFTW v1.2.0
  [f5851436] + FFTW_jll v3.3.9+3
  [5087d2c0] + IncGammaBeta v0.1.0
  [1d5cc7b8] + IntelOpenMP_jll v2018.0.3+0
  [856f044c] + MKL_jll v2019.0.117+0
  [2edaba10] + Nemo v0.15.1
  [189a3867] + Reexport v0.2.0
  [276daf66] + SpecialFunctions v0.8.0
  [0dd23c3e] + TwoFAST v0.1.0
  [30578b45] + URIParser v0.4.0
  [2a0f44e3] + Base64 
  [ade2ca70] + Dates 
  [8bb1440f] + DelimitedFiles 
  [8ba89e20] + Distributed 
  [b77e0a4c] + InteractiveUtils 
  [76f85450] + LibGit2 
  [8f399da3] + Libdl 
  [37e2e46d] + LinearAlgebra 
  [56ddb016] + Logging 
  [d6f4376e] + Markdown 
  [a63ad114] + Mmap 
  [44cfe95a] + Pkg 
  [de0858da] + Printf 
  [3fa0cd96] + REPL 
  [9a3f8284] + Random 
  [ea8e919c] + SHA 
  [9e88b42a] + Serialization 
  [6462fe0b] + Sockets 
  [2f01184e] + SparseArrays 
  [8dfed614] + Test 
  [cf7118a7] + UUIDs 
  [4ec0a83e] + Unicode 
  Building Nemo ────────────→ `~/.julia/packages/Nemo/qzx0m/deps/build.log`
  Updating `/tmp/jl_NEQDwX/Project.toml`
 [no changes]
  Updating `/tmp/jl_NEQDwX/Manifest.toml`
 [no changes]
  Building FFTW ────────────→ `~/.julia/packages/FFTW/qqcBj/deps/build.log`
  Updating `/tmp/jl_4U6PQr/Project.toml`
 [no changes]
  Updating `/tmp/jl_4U6PQr/Manifest.toml`
 [no changes]
  Building SpecialFunctions → `~/.julia/packages/SpecialFunctions/ne2iw/deps/build.log`
  Updating `/tmp/jl_HWFfeY/Project.toml`
 [no changes]
  Updating `/tmp/jl_HWFfeY/Manifest.toml`
 [no changes]
   Testing TwoFAST
 Installed Dierckx ─ v0.4.1
  Updating `/tmp/jl_a60OqR/Project.toml`
  [39dd38d3] + Dierckx v0.4.1
  Updating `/tmp/jl_a60OqR/Manifest.toml`
  [39dd38d3] + Dierckx v0.4.1
  Building Dierckx → `~/.julia/packages/Dierckx/9SY4A/deps/build.log`
  Updating `/tmp/jl_GZY7IF/Project.toml`
 [no changes]
  Updating `/tmp/jl_GZY7IF/Manifest.toml`
 [no changes]
Running sandbox
Status `/tmp/jl_a60OqR/Project.toml`
  [39dd38d3] Dierckx v0.4.1
  [7a1cc6ca] FFTW v1.2.0
  [5087d2c0] IncGammaBeta v0.1.0
  [2edaba10] Nemo v0.15.1
  [276daf66] SpecialFunctions v0.8.0
  [0dd23c3e] TwoFAST v0.1.0
  [8bb1440f] DelimitedFiles 
  [37e2e46d] LinearAlgebra 
  [56ddb016] Logging 
  [8dfed614] Test 

Welcome to Nemo version 0.15.1

Nemo comes with absolutely no warranty whatsoever


Welcome to Nemo version 0.15.1

Nemo comes with absolutely no warranty whatsoever

Testing ξ(r), ℓ=0, ν=-1 ... passed
Testing ξ(r), ℓ=0, ν=0 ... passed
Testing ξ(r), ℓ=0, ν=1 ... passed
Testing ξ(r), ℓ=0, ν=2 ... passed
Testing ξ(r), ℓ=0, ν=3 ... passed
Testing ξ(r), ℓ=1, ν=0 ... passed
Testing ξ(r), ℓ=1, ν=1 ... passed
Testing ξ(r), ℓ=1, ν=2 ... passed
Testing ξ(r), ℓ=1, ν=3 ... passed
Testing ξ(r), ℓ=2, ν=-1 ... passed
Testing ξ(r), ℓ=2, ν=0 ... passed
Testing ξ(r), ℓ=2, ν=1 ... passed
Testing ξ(r), ℓ=2, ν=2 ... passed
Testing ξ(r), ℓ=2, ν=3 ... passed
Testing ξ(r), ℓ=3, ν=-1 ... passed
Testing ξ(r), ℓ=3, ν=0 ... passed
Testing ξ(r), ℓ=3, ν=1 ... passed
Testing ξ(r), ℓ=3, ν=2 ... passed
Testing ξ(r), ℓ=3, ν=3 ... passed
Testing ξ(r), ℓ=4, ν=-1 ... passed
Testing ξ(r), ℓ=4, ν=0 ... passed
Testing ξ(r), ℓ=4, ν=1 ... passed
Testing ξ(r), ℓ=4, ν=2 ... passed
Testing ξ(r), ℓ=4, ν=3 ... passed
Testing ξ(r) ... passed
Testing ξ′(r) ... passed
Testing ξ″(r) ... passed
Calculating fmax: 
  dlrec    = 4
  dlrecRg1 = -4
  q=1.1, R=1.1:	  5.560902 seconds (1.20 M allocations: 67.954 MiB, 0.95% gc time)

  5.600672 seconds (1.22 M allocations: 69.064 MiB, 0.95% gc time)
ℓ = 1202
Δℓ = 4
ΔℓRg1 = -4
N = 1600
q = 1.1
kmin = 1.0e-5
kmax = 100000.00000000004
χ0 = 0.023029999999999995
RR = RR.tsv
ℓmax = ℓmax.bin
f21 = f21.bin
kmin = 1.0e-5
kmax = 100000.0
dlrec    = 4
dlrecRg1 = -4
Output size: 5741568 bytes = 0.005347251892089844 GiB
Output size: 51264 bytes = 4.774332046508789e-5 GiB
Reading 'out/F21EllCache'...   0.532980 seconds (318.67 k allocations: 16.381 MiB)
ellmax: 1202
lmaxcache: 1202
fell[:,1,1] = Complex{Float64}[3.9583795592771634e-52 - 9.695233714158177e-68im, 3.990121772925759e-52 - 9.772979714843386e-68im]
ell 1202, elapsed: 9.393692016601562e-5
ell 1201, elapsed: 2.1800270080566406
ell 1200, elapsed: 0.0005140304565429688
ell 1199, elapsed: 0.0004820823669433594
ell 1198, elapsed: 0.00047707557678222656
ell 1002, elapsed: 0.009246110916137695
ell 1001, elapsed: 0.0005030632019042969
ell 1000, elapsed: 0.0005819797515869141
ell 999, elapsed: 0.0005660057067871094
ell 998, elapsed: 0.0005419254302978516
ell 902, elapsed: 0.004867076873779297
ell 901, elapsed: 0.0005528926849365234
ell 900, elapsed: 0.0005488395690917969
ell 899, elapsed: 0.0006639957427978516
ell 898, elapsed: 0.0005810260772705078
ell 802, elapsed: 0.0050661563873291016
ell 801, elapsed: 0.0006310939788818359
ell 800, elapsed: 0.0005869865417480469
ell 799, elapsed: 0.0005860328674316406
ell 798, elapsed: 0.0005800724029541016
ell 702, elapsed: 0.004893064498901367
ell 701, elapsed: 0.0005831718444824219
ell 700, elapsed: 0.0005350112915039062
ell 699, elapsed: 0.0006451606750488281
ell 698, elapsed: 0.0005459785461425781
ell 602, elapsed: 0.00501704216003418
ell 601, elapsed: 0.0005571842193603516
ell 600, elapsed: 0.0005409717559814453
ell 599, elapsed: 0.0005350112915039062
ell 598, elapsed: 0.0005230903625488281
ell 502, elapsed: 0.004843950271606445
ell 501, elapsed: 0.0005640983581542969
ell 500, elapsed: 0.0005350112915039062
ell 499, elapsed: 0.0005381107330322266
ell 498, elapsed: 0.0005471706390380859
ell 402, elapsed: 0.0049779415130615234
ell 401, elapsed: 0.0005519390106201172
ell 400, elapsed: 0.0005590915679931641
ell 399, elapsed: 0.0005309581756591797
ell 398, elapsed: 0.0005099773406982422
ell 302, elapsed: 0.004888057708740234
ell 301, elapsed: 0.0005829334259033203
ell 300, elapsed: 0.0005929470062255859
ell 299, elapsed: 0.0005271434783935547
ell 298, elapsed: 0.0005168914794921875
ell 202, elapsed: 0.005059957504272461
ell 201, elapsed: 0.000576019287109375
ell 200, elapsed: 0.0005941390991210938
ell 199, elapsed: 0.0005609989166259766
ell 198, elapsed: 0.0005478858947753906
ell 152, elapsed: 0.002568960189819336
ell 151, elapsed: 0.0005381107330322266
ell 150, elapsed: 0.0005700588226318359
ell 149, elapsed: 0.0005490779876708984
ell 148, elapsed: 0.0005190372467041016
ell 127, elapsed: 0.001566171646118164
ell 126, elapsed: 0.0005159378051757812
ell 125, elapsed: 0.0005278587341308594
ell 124, elapsed: 0.0005471706390380859
ell 123, elapsed: 0.000514984130859375
ell 114, elapsed: 0.0009140968322753906
ell 113, elapsed: 0.0005540847778320312
ell 112, elapsed: 0.0005640983581542969
ell 111, elapsed: 0.0005619525909423828
ell 110, elapsed: 0.0005640983581542969
ell 102, elapsed: 0.0010449886322021484
ell 101, elapsed: 0.0005691051483154297
ell 100, elapsed: 0.0005779266357421875
ell 99, elapsed: 0.0005700588226318359
ell 98, elapsed: 0.0005629062652587891
ell 97, elapsed: 0.0006101131439208984
ell 96, elapsed: 0.0007269382476806641
ell 95, elapsed: 0.0006051063537597656
ell 94, elapsed: 0.0007028579711914062
ell 93, elapsed: 0.0006039142608642578
ell 92, elapsed: 0.0006940364837646484
ell 91, elapsed: 0.0005731582641601562
ell 90, elapsed: 0.0005960464477539062
ell 89, elapsed: 0.0005040168762207031
ell 88, elapsed: 0.0005919933319091797
ell 87, elapsed: 0.0005099773406982422
ell 86, elapsed: 0.0006010532379150391
ell 85, elapsed: 0.0005679130554199219
ell 84, elapsed: 0.0006649494171142578
ell 83, elapsed: 0.0005700588226318359
ell 82, elapsed: 0.0006401538848876953
ell 81, elapsed: 0.0005779266357421875
ell 80, elapsed: 0.0008158683776855469
ell 79, elapsed: 0.0006649494171142578
ell 78, elapsed: 0.0007469654083251953
ell 77, elapsed: 0.0006589889526367188
ell 76, elapsed: 0.000762939453125
ell 75, elapsed: 0.0006561279296875
ell 74, elapsed: 0.0007469654083251953
ell 73, elapsed: 0.0006649494171142578
ell 72, elapsed: 0.00074005126953125
ell 71, elapsed: 0.000720977783203125
ell 70, elapsed: 0.0007390975952148438
ell 69, elapsed: 0.0006680488586425781
ell 68, elapsed: 0.0007469654083251953
ell 67, elapsed: 0.0006649494171142578
ell 66, elapsed: 0.0007410049438476562
ell 65, elapsed: 0.0006618499755859375
ell 64, elapsed: 0.0007359981536865234
ell 63, elapsed: 0.0006511211395263672
ell 62, elapsed: 0.0007588863372802734
ell 61, elapsed: 0.0006539821624755859
ell 60, elapsed: 0.0007369518280029297
ell 59, elapsed: 0.0006539821624755859
ell 58, elapsed: 0.0007560253143310547
ell 57, elapsed: 0.0006530284881591797
ell 56, elapsed: 0.0007419586181640625
ell 55, elapsed: 0.0006508827209472656
ell 54, elapsed: 0.0007469654083251953
ell 53, elapsed: 0.0006439685821533203
ell 52, elapsed: 0.0007281303405761719
ell 51, elapsed: 0.0006639957427978516
ell 50, elapsed: 0.0007359981536865234
ell 49, elapsed: 0.0006470680236816406
ell 48, elapsed: 0.0007350444793701172
ell 47, elapsed: 0.0006570816040039062
ell 46, elapsed: 0.0007419586181640625
ell 45, elapsed: 0.0006489753723144531
ell 44, elapsed: 0.0007390975952148438
ell 43, elapsed: 0.0006949901580810547
ell 42, elapsed: 0.0007889270782470703
ell 41, elapsed: 0.0006999969482421875
ell 40, elapsed: 0.0007798671722412109
ell 39, elapsed: 0.0006940364837646484
ell 38, elapsed: 0.0007810592651367188
ell 37, elapsed: 0.0006940364837646484
ell 36, elapsed: 0.0010089874267578125
ell 35, elapsed: 0.0008220672607421875
ell 34, elapsed: 0.00086212158203125
ell 33, elapsed: 0.0007719993591308594
ell 32, elapsed: 0.0008649826049804688
ell 31, elapsed: 0.0007739067077636719
ell 30, elapsed: 0.0008509159088134766
ell 29, elapsed: 0.0007739067077636719
ell 28, elapsed: 0.0008552074432373047
ell 27, elapsed: 0.0007688999176025391
ell 26, elapsed: 0.0008630752563476562
ell 25, elapsed: 0.0007779598236083984
ell 24, elapsed: 0.0008530616760253906
ell 23, elapsed: 0.0007688999176025391
ell 22, elapsed: 0.0008578300476074219
ell 21, elapsed: 0.0007681846618652344
ell 20, elapsed: 0.0008490085601806641
ell 19, elapsed: 0.000762939453125
ell 18, elapsed: 0.0008759498596191406
ell 17, elapsed: 0.0007750988006591797
ell 16, elapsed: 0.0008640289306640625
ell 15, elapsed: 0.0007808208465576172
ell 14, elapsed: 0.0008728504180908203
ell 13, elapsed: 0.0007700920104980469
ell 12, elapsed: 0.0008718967437744141
ell 11, elapsed: 0.00078582763671875
ell 10, elapsed: 0.0007848739624023438
ell 9, elapsed: 0.0006990432739257812
ell 8, elapsed: 0.0007879734039306641
ell 7, elapsed: 0.0006968975067138672
ell 6, elapsed: 0.0007958412170410156
ell 5, elapsed: 0.0007059574127197266
ell 4, elapsed: 0.0008039474487304688
ell 3, elapsed: 0.0007071495056152344
ell 2, elapsed: 0.0007989406585693359
ell 1, elapsed: 0.0007078647613525391
ell 0, elapsed: 0.0009019374847412109
  3.070328 seconds (1.75 M allocations: 85.479 MiB, 0.82% gc time)
elapsed: 0.0012450218200683594
step:          0.732602 sec (402.572 k allocations: 20.281 MB, 0.0% gc time)
swapping:      0.000591 sec (0 allocations: 0 byte, 0.0% gc time)
calc_Mellell!: 0.486469 sec (296.399 k allocations: 14.958 MB, 0.0% gc time)
  t0 :  0.0 sec (0 allocations: 0 byte, 0.0% gc time)
  tm2 : 0.0 sec (0 allocations: 0 byte, 0.0% gc time)
  tm2s: 0.0 sec (0 allocations: 0 byte, 0.0% gc time)
  tm4 : 0.0 sec (0 allocations: 0 byte, 0.0% gc time)
  tp2 : 0.0 sec (0 allocations: 0 byte, 0.0% gc time)
  tp2s: 0.0 sec (0 allocations: 0 byte, 0.0% gc time)
  tp4 : 0.0 sec (0 allocations: 0 byte, 0.0% gc time)
calc_wtdll!:   1.084848 sec (525.863 k allocations: 26.376 MB, 2.33% gc time)
calc_wljj!:    0.00343 sec (6 allocations: 96 byte, 0.0% gc time)
mult_prefac!:  0.0 sec (0 allocations: 0 byte, 0.0% gc time)
convert:       0.0 sec (0 allocations: 0 byte, 0.0% gc time)
write:         0.005735 sec (0 allocations: 0 byte, 0.0% gc time)
test_rand_2f1: 0.0 sec (0 allocations: 0 byte, 0.0% gc time)
Closing outfile out/Ml21-cache.bin...   0.000123 seconds
  1.030666 seconds (8.66 k allocations: 420.969 KiB)
make_phi():   0.013554 seconds (8.20 k allocations: 238.016 KiB)
  0.225180 seconds (121.69 k allocations: 5.902 MiB)
tskip:       2.4e-5 sec (0 allocations: 0 byte, 0.0% gc time)
tread:       0.002459 sec (19 allocations: 2.172 KB, 0.0% gc time)
tmultphi:    0.044835 sec (26.022 k allocations: 1.338 MB, 0.0% gc time)
tbrfft:      0.004432 sec (896 allocations: 42.0 KB, 0.0% gc time)
tmultprefac: 0.003858 sec (0 allocations: 0 byte, 0.0% gc time)
toutfunc:    0.169534 sec (94.104 k allocations: 4.451 MB, 0.0% gc time)
Testing R=1.1 ... passed
Calculating fmax: 
  dlrec    = 4
  dlrecRg1 = -4
  q=1.1, R=1.0:	  0.001740 seconds (4.00 k allocations: 300.375 KiB)

  0.003701 seconds (4.04 k allocations: 335.062 KiB)
ℓ = 1202
Δℓ = 4
ΔℓRg1 = -4
N = 1600
q = 1.1
kmin = 1.0e-5
kmax = 100000.00000000004
χ0 = 0.023029999999999995
RR = RR.tsv
ℓmax = ℓmax.bin
f21 = f21.bin
kmin = 1.0e-5
kmax = 100000.0
dlrec    = 4
dlrecRg1 = -4
Output size: 61465536 bytes = 0.05724424123764038 GiB
Output size: 51264 bytes = 4.774332046508789e-5 GiB
Reading 'out/F21EllCache'...   0.041359 seconds (267 allocations: 84.656 KiB, 96.45% gc time)
ellmax: 1202
lmaxcache: 1202
fell[:,1,1] = Complex{Float64}[809.6031528389767 - 1.9829558194077161e-13im, 0.0 + 0.0im]
ell 1202, elapsed: 0.00010609626770019531
ell 1201, elapsed: 0.016537904739379883
ell 1200, elapsed: 0.0004930496215820312
ell 1199, elapsed: 0.0005400180816650391
ell 1198, elapsed: 0.0004820823669433594
ell 1197, elapsed: 0.0005488395690917969
ell 1196, elapsed: 0.0005350112915039062
ell 1195, elapsed: 0.0006008148193359375
ell 1194, elapsed: 0.00047588348388671875
ell 1193, elapsed: 0.000576019287109375
ell 1192, elapsed: 0.0005428791046142578
ell 1191, elapsed: 0.0005970001220703125
ell 1190, elapsed: 0.0007119178771972656
ell 1189, elapsed: 0.0005218982696533203
ell 1188, elapsed: 0.0004131793975830078
ell 1187, elapsed: 0.0005021095275878906
ell 1186, elapsed: 0.0004608631134033203
ell 1185, elapsed: 0.0005779266357421875
ell 1184, elapsed: 0.0004971027374267578
ell 1183, elapsed: 0.0005898475646972656
ell 1182, elapsed: 0.00048804283142089844
ell 1181, elapsed: 0.0008089542388916016
ell 1180, elapsed: 0.0006928443908691406
ell 1179, elapsed: 0.0005958080291748047
ell 1178, elapsed: 0.00048804283142089844
ell 1177, elapsed: 0.0005619525909423828
ell 1176, elapsed: 0.0004858970642089844
ell 1175, elapsed: 0.0006070137023925781
ell 1174, elapsed: 0.0006990432739257812
ell 1173, elapsed: 0.0005099773406982422
ell 1172, elapsed: 0.0004131793975830078
ell 1171, elapsed: 0.0005028247833251953
ell 1170, elapsed: 0.000408172607421875
ell 1169, elapsed: 0.00049591064453125
ell 1168, elapsed: 0.00042510032653808594
ell 1167, elapsed: 0.0004949569702148438
ell 1166, elapsed: 0.0004181861877441406
ell 1165, elapsed: 0.0005059242248535156
ell 1164, elapsed: 0.0004131793975830078
ell 1163, elapsed: 0.0005009174346923828
ell 1162, elapsed: 0.00042510032653808594
ell 1161, elapsed: 0.0007259845733642578
ell 1160, elapsed: 0.00043487548828125
ell 1159, elapsed: 0.0005609989166259766
ell 1158, elapsed: 0.0005180835723876953
ell 1157, elapsed: 0.0005748271942138672
ell 1156, elapsed: 0.000492095947265625
ell 1155, elapsed: 0.000598907470703125
ell 1154, elapsed: 0.0007240772247314453
ell 1153, elapsed: 0.0005729198455810547
ell 1152, elapsed: 0.0004699230194091797
ell 1151, elapsed: 0.0005691051483154297
ell 1150, elapsed: 0.0004818439483642578
ell 1149, elapsed: 0.0005512237548828125
ell 1148, elapsed: 0.00045299530029296875
ell 1147, elapsed: 0.0005490779876708984
ell 1146, elapsed: 0.0004551410675048828
ell 1145, elapsed: 0.0005362033843994141
ell 1144, elapsed: 0.00041604042053222656
ell 1143, elapsed: 0.0005099773406982422
ell 1142, elapsed: 0.0004150867462158203
ell 1141, elapsed: 0.00049591064453125
ell 1140, elapsed: 0.0004150867462158203
ell 1139, elapsed: 0.0006709098815917969
ell 1138, elapsed: 0.000431060791015625
ell 1137, elapsed: 0.0005090236663818359
ell 1136, elapsed: 0.00045299530029296875
ell 1135, elapsed: 0.0005018711090087891
ell 1134, elapsed: 0.00041604042053222656
ell 1133, elapsed: 0.0005059242248535156
ell 1132, elapsed: 0.00043702125549316406
ell 1131, elapsed: 0.0004951953887939453
ell 1130, elapsed: 0.0004258155822753906
ell 1129, elapsed: 0.0005068778991699219
ell 1128, elapsed: 0.0004069805145263672
ell 1127, elapsed: 0.0005052089691162109
ell 1126, elapsed: 0.00041294097900390625
ell 1125, elapsed: 0.0005021095275878906
ell 1124, elapsed: 0.0004069805145263672
ell 1123, elapsed: 0.0005011558532714844
ell 1122, elapsed: 0.0004239082336425781
ell 1121, elapsed: 0.0004951953887939453
ell 1120, elapsed: 0.00041294097900390625
ell 1119, elapsed: 0.0005040168762207031
ell 1118, elapsed: 0.0004069805145263672
ell 1117, elapsed: 0.0004949569702148438
ell 1116, elapsed: 0.00041103363037109375
ell 1115, elapsed: 0.0004990100860595703
ell 1114, elapsed: 0.0004050731658935547
ell 1113, elapsed: 0.0004940032958984375
ell 1112, elapsed: 0.00041103363037109375
ell 1111, elapsed: 0.0004940032958984375
ell 1110, elapsed: 0.0004100799560546875
ell 1109, elapsed: 0.0004990100860595703
ell 1108, elapsed: 0.0004131793975830078
ell 1107, elapsed: 0.000514984130859375
ell 1106, elapsed: 0.00040984153747558594
ell 1105, elapsed: 0.0004949569702148438
ell 1104, elapsed: 0.0004138946533203125
ell 1103, elapsed: 0.0006020069122314453
ell 1102, elapsed: 0.00047588348388671875
ell 1101, elapsed: 0.0005860328674316406
ell 1100, elapsed: 0.0004749298095703125
ell 1099, elapsed: 0.0005640983581542969
ell 1098, elapsed: 0.0004909038543701172
ell 1097, elapsed: 0.0005650520324707031
ell 1096, elapsed: 0.0004680156707763672
ell 1095, elapsed: 0.0005638599395751953
ell 1094, elapsed: 0.000453948974609375
ell 1093, elapsed: 0.0005450248718261719
ell 1092, elapsed: 0.0004620552062988281
ell 1091, elapsed: 0.0005700588226318359
ell 1090, elapsed: 0.00047588348388671875
ell 1089, elapsed: 0.0005700588226318359
ell 1088, elapsed: 0.0005080699920654297
ell 1087, elapsed: 0.0005710124969482422
ell 1086, elapsed: 0.00046896934509277344
ell 1085, elapsed: 0.0005588531494140625
ell 1084, elapsed: 0.0004780292510986328
ell 1083, elapsed: 0.0005509853363037109
ell 1082, elapsed: 0.00047087669372558594
ell 1081, elapsed: 0.0005650520324707031
ell 1080, elapsed: 0.00047588348388671875
ell 1079, elapsed: 0.0008218288421630859
ell 1078, elapsed: 0.00049591064453125
ell 1077, elapsed: 0.0005700588226318359
ell 1076, elapsed: 0.00045800209045410156
ell 1075, elapsed: 0.0005700588226318359
ell 1074, elapsed: 0.0004949569702148438
ell 1073, elapsed: 0.0005590915679931641
ell 1072, elapsed: 0.0004589557647705078
ell 1071, elapsed: 0.0005490779876708984
ell 1070, elapsed: 0.0004799365997314453
ell 1069, elapsed: 0.0005710124969482422
ell 1068, elapsed: 0.00045990943908691406
ell 1067, elapsed: 0.0005731582641601562
ell 1066, elapsed: 0.0004589557647705078
ell 1065, elapsed: 0.0005688667297363281
ell 1064, elapsed: 0.0004601478576660156
ell 1063, elapsed: 0.0005710124969482422
ell 1062, elapsed: 0.00047588348388671875
ell 1061, elapsed: 0.0005509853363037109
ell 1060, elapsed: 0.0004680156707763672
ell 1059, elapsed: 0.0005459785461425781
ell 1058, elapsed: 0.0005321502685546875
ell 1057, elapsed: 0.0005500316619873047
ell 1056, elapsed: 0.0004699230194091797
ell 1055, elapsed: 0.0005500316619873047
ell 1054, elapsed: 0.00048089027404785156
ell 1053, elapsed: 0.0005769729614257812
ell 1052, elapsed: 0.0004699230194091797
ell 1051, elapsed: 0.0005691051483154297
ell 1050, elapsed: 0.0004718303680419922
ell 1049, elapsed: 0.0005729198455810547
ell 1048, elapsed: 0.0004870891571044922
ell 1047, elapsed: 0.0005698204040527344
ell 1046, elapsed: 0.00047206878662109375
ell 1045, elapsed: 0.0005578994750976562
ell 1044, elapsed: 0.00047588348388671875
ell 1043, elapsed: 0.0005888938903808594
ell 1042, elapsed: 0.0004558563232421875
ell 1041, elapsed: 0.0005669593811035156
ell 1040, elapsed: 0.000492095947265625
ell 1039, elapsed: 0.0005779266357421875
ell 1038, elapsed: 0.000492095947265625
ell 1037, elapsed: 0.0005800724029541016
ell 1036, elapsed: 0.00048613548278808594
ell 1035, elapsed: 0.0005691051483154297
ell 1034, elapsed: 0.00047397613525390625
ell 1033, elapsed: 0.0005469322204589844
ell 1032, elapsed: 0.00045990943908691406
ell 1031, elapsed: 0.0005500316619873047
ell 1030, elapsed: 0.00047087669372558594
ell 1029, elapsed: 0.0005800724029541016
ell 1028, elapsed: 0.0004911422729492188
ell 1027, elapsed: 0.0005700588226318359
ell 1026, elapsed: 0.00045180320739746094
ell 1025, elapsed: 0.0005500316619873047
ell 1024, elapsed: 0.0004589557647705078
ell 1023, elapsed: 0.0005609989166259766
ell 1022, elapsed: 0.0004658699035644531
ell 1021, elapsed: 0.0005650520324707031
ell 1020, elapsed: 0.0004849433898925781
ell 1019, elapsed: 0.0005578994750976562
ell 1018, elapsed: 0.0004849433898925781
ell 1017, elapsed: 0.0005669593811035156
ell 1016, elapsed: 0.0004820823669433594
ell 1015, elapsed: 0.0005590915679931641
ell 1014, elapsed: 0.00045490264892578125
ell 1013, elapsed: 0.0005629062652587891
ell 1012, elapsed: 0.0004839897155761719
ell 1011, elapsed: 0.0005779266357421875
ell 1010, elapsed: 0.00045299530029296875
ell 1009, elapsed: 0.0005669593811035156
ell 1008, elapsed: 0.0004589557647705078
ell 1007, elapsed: 0.0005648136138916016
ell 1006, elapsed: 0.0004508495330810547
ell 1005, elapsed: 0.0005447864532470703
ell 1004, elapsed: 0.00047588348388671875
ell 1003, elapsed: 0.0005431175231933594
ell 1002, elapsed: 0.00047397613525390625
ell 1001, elapsed: 0.0005478858947753906
ell 1000, elapsed: 0.0004661083221435547
ell 999, elapsed: 0.0005409717559814453
ell 998, elapsed: 0.0004711151123046875
ell 997, elapsed: 0.0005681514739990234
ell 996, elapsed: 0.0004849433898925781
ell 995, elapsed: 0.0005729198455810547
ell 994, elapsed: 0.0004940032958984375
ell 993, elapsed: 0.0005609989166259766
ell 992, elapsed: 0.00046706199645996094
ell 991, elapsed: 0.00055694580078125
ell 990, elapsed: 0.0004570484161376953
ell 989, elapsed: 0.0005669593811035156
ell 988, elapsed: 0.0004699230194091797
ell 987, elapsed: 0.0005660057067871094
ell 986, elapsed: 0.0004699230194091797
ell 985, elapsed: 0.0005438327789306641
ell 984, elapsed: 0.0004820823669433594
ell 983, elapsed: 0.0004949569702148438
ell 982, elapsed: 0.0004260540008544922
ell 981, elapsed: 0.0004940032958984375
ell 980, elapsed: 0.00041604042053222656
ell 979, elapsed: 0.0004999637603759766
ell 978, elapsed: 0.0004169940948486328
ell 977, elapsed: 0.0005011558532714844
ell 976, elapsed: 0.00041294097900390625
ell 975, elapsed: 0.0005011558532714844
ell 974, elapsed: 0.0004169940948486328
ell 973, elapsed: 0.0005030632019042969
ell 972, elapsed: 0.00041103363037109375
ell 971, elapsed: 0.0004940032958984375
ell 970, elapsed: 0.00041103363037109375
ell 969, elapsed: 0.000514984130859375
ell 968, elapsed: 0.0004181861877441406
ell 967, elapsed: 0.0004940032958984375
ell 966, elapsed: 0.0004150867462158203
ell 965, elapsed: 0.0005030632019042969
ell 964, elapsed: 0.0004119873046875
ell 963, elapsed: 0.0005030632019042969
ell 962, elapsed: 0.00041604042053222656
ell 961, elapsed: 0.0005021095275878906
ell 960, elapsed: 0.00041294097900390625
ell 959, elapsed: 0.0004990100860595703
ell 958, elapsed: 0.0004220008850097656
ell 957, elapsed: 0.0004949569702148438
ell 956, elapsed: 0.0004100799560546875
ell 955, elapsed: 0.0004990100860595703
ell 954, elapsed: 0.0004100799560546875
ell 953, elapsed: 0.0005049705505371094
ell 952, elapsed: 0.00040793418884277344
ell 951, elapsed: 0.0004949569702148438
ell 950, elapsed: 0.0004131793975830078
ell 949, elapsed: 0.0004949569702148438
ell 948, elapsed: 0.00041294097900390625
ell 947, elapsed: 0.0004930496215820312
ell 946, elapsed: 0.00041413307189941406
ell 945, elapsed: 0.0005080699920654297
ell 944, elapsed: 0.00041604042053222656
ell 943, elapsed: 0.0004990100860595703
ell 942, elapsed: 0.0003879070281982422
ell 941, elapsed: 0.0004801750183105469
ell 940, elapsed: 0.0003838539123535156
ell 939, elapsed: 0.0004661083221435547
ell 938, elapsed: 0.00038909912109375
ell 937, elapsed: 0.0004928112030029297
ell 936, elapsed: 0.0003879070281982422
ell 935, elapsed: 0.0004761219024658203
ell 934, elapsed: 0.00039005279541015625
ell 933, elapsed: 0.00047707557678222656
ell 932, elapsed: 0.00039005279541015625
ell 931, elapsed: 0.0004780292510986328
ell 930, elapsed: 0.000392913818359375
ell 929, elapsed: 0.0004820823669433594
ell 928, elapsed: 0.00038909912109375
ell 927, elapsed: 0.00047087669372558594
ell 926, elapsed: 0.00038504600524902344
ell 925, elapsed: 0.00047087669372558594
ell 924, elapsed: 0.00038695335388183594
ell 923, elapsed: 0.0004730224609375
ell 922, elapsed: 0.00039386749267578125
ell 921, elapsed: 0.00047516822814941406
ell 920, elapsed: 0.0004019737243652344
ell 919, elapsed: 0.0004680156707763672
ell 918, elapsed: 0.0003879070281982422
ell 917, elapsed: 0.00046706199645996094
ell 916, elapsed: 0.00038814544677734375
ell 915, elapsed: 0.0004799365997314453
ell 914, elapsed: 0.00039196014404296875
ell 913, elapsed: 0.00047898292541503906
ell 912, elapsed: 0.00038886070251464844
ell 911, elapsed: 0.0004799365997314453
ell 910, elapsed: 0.0003941059112548828
ell 909, elapsed: 0.0004780292510986328
ell 908, elapsed: 0.000392913818359375
ell 907, elapsed: 0.0004749298095703125
ell 906, elapsed: 0.00039005279541015625
ell 905, elapsed: 0.00047397613525390625
ell 904, elapsed: 0.00039577484130859375
ell 903, elapsed: 0.0004899501800537109
ell 902, elapsed: 0.0003859996795654297
ell 901, elapsed: 0.00046896934509277344
ell 900, elapsed: 0.00039005279541015625
ell 899, elapsed: 0.0004839897155761719
ell 898, elapsed: 0.000392913818359375
ell 897, elapsed: 0.0004699230194091797
ell 896, elapsed: 0.00038909912109375
ell 895, elapsed: 0.0004839897155761719
ell 894, elapsed: 0.00040602684020996094
ell 893, elapsed: 0.0004799365997314453
ell 892, elapsed: 0.00038695335388183594
ell 891, elapsed: 0.00047087669372558594
ell 890, elapsed: 0.0003848075866699219
ell 889, elapsed: 0.00047588348388671875
ell 888, elapsed: 0.00038909912109375
ell 887, elapsed: 0.0004661083221435547
ell 886, elapsed: 0.00041103363037109375
ell 885, elapsed: 0.0004730224609375
ell 884, elapsed: 0.00038814544677734375
ell 883, elapsed: 0.0004668235778808594
ell 882, elapsed: 0.00038504600524902344
ell 881, elapsed: 0.00046896934509277344
ell 880, elapsed: 0.0003859996795654297
ell 879, elapsed: 0.0006959438323974609
ell 878, elapsed: 0.0004019737243652344
ell 877, elapsed: 0.0004711151123046875
ell 876, elapsed: 0.0003879070281982422
ell 875, elapsed: 0.0004780292510986328
ell 874, elapsed: 0.0003898143768310547
ell 873, elapsed: 0.00047898292541503906
ell 872, elapsed: 0.00038814544677734375
ell 871, elapsed: 0.0004749298095703125
ell 870, elapsed: 0.0003910064697265625
ell 869, elapsed: 0.0005011558532714844
ell 868, elapsed: 0.00038695335388183594
ell 867, elapsed: 0.00047397613525390625
ell 866, elapsed: 0.0003910064697265625
ell 865, elapsed: 0.0004680156707763672
ell 864, elapsed: 0.0003979206085205078
ell 863, elapsed: 0.00047397613525390625
ell 862, elapsed: 0.0003840923309326172
ell 861, elapsed: 0.0004699230194091797
ell 860, elapsed: 0.00038695335388183594
ell 859, elapsed: 0.00047397613525390625
ell 858, elapsed: 0.0003840923309326172
ell 857, elapsed: 0.0004711151123046875
ell 856, elapsed: 0.00038695335388183594
ell 855, elapsed: 0.00047087669372558594
ell 854, elapsed: 0.0004940032958984375
ell 853, elapsed: 0.0006079673767089844
ell 852, elapsed: 0.0026459693908691406
ell 851, elapsed: 0.0004889965057373047
ell 850, elapsed: 0.00038909912109375
ell 849, elapsed: 0.0004899501800537109
ell 848, elapsed: 0.0005481243133544922
ell 847, elapsed: 0.0005459785461425781
ell 846, elapsed: 0.00038886070251464844
ell 845, elapsed: 0.00047397613525390625
ell 844, elapsed: 0.0003848075866699219
ell 843, elapsed: 0.0004792213439941406
ell 842, elapsed: 0.0009598731994628906
ell 841, elapsed: 0.0004830360412597656
ell 840, elapsed: 0.0003941059112548828
ell 839, elapsed: 0.0004949569702148438
ell 838, elapsed: 0.0003871917724609375
ell 837, elapsed: 0.0004749298095703125
ell 836, elapsed: 0.0003879070281982422
ell 835, elapsed: 0.00047206878662109375
ell 834, elapsed: 0.00038814544677734375
ell 833, elapsed: 0.00048804283142089844
ell 832, elapsed: 0.00039005279541015625
ell 831, elapsed: 0.0004730224609375
ell 830, elapsed: 0.0003898143768310547
ell 829, elapsed: 0.000476837158203125
ell 828, elapsed: 0.00038886070251464844
ell 827, elapsed: 0.0004730224609375
ell 826, elapsed: 0.0003921985626220703
ell 825, elapsed: 0.0004870891571044922
ell 824, elapsed: 0.0003859996795654297
ell 823, elapsed: 0.0004849433898925781
ell 822, elapsed: 0.0003910064697265625
ell 821, elapsed: 0.00047898292541503906
ell 820, elapsed: 0.00038695335388183594
ell 819, elapsed: 0.0004699230194091797
ell 818, elapsed: 0.00039005279541015625
ell 817, elapsed: 0.0004818439483642578
ell 816, elapsed: 0.0005199909210205078
ell 815, elapsed: 0.0006051063537597656
ell 814, elapsed: 0.00038695335388183594
ell 813, elapsed: 0.0004818439483642578
ell 812, elapsed: 0.0003859996795654297
ell 811, elapsed: 0.0004730224609375
ell 810, elapsed: 0.0003840923309326172
ell 809, elapsed: 0.0004730224609375
ell 808, elapsed: 0.0004029273986816406
ell 807, elapsed: 0.00047898292541503906
ell 806, elapsed: 0.0003910064697265625
ell 805, elapsed: 0.0004699230194091797
ell 804, elapsed: 0.0003941059112548828
ell 803, elapsed: 0.00047898292541503906
ell 802, elapsed: 0.00039386749267578125
ell 801, elapsed: 0.0004711151123046875
ell 800, elapsed: 0.00038504600524902344
ell 799, elapsed: 0.0008990764617919922
ell 798, elapsed: 0.00038886070251464844
ell 797, elapsed: 0.00047397613525390625
ell 796, elapsed: 0.00039696693420410156
ell 795, elapsed: 0.0004761219024658203
ell 794, elapsed: 0.00038909912109375
ell 793, elapsed: 0.0004730224609375
ell 792, elapsed: 0.0008559226989746094
ell 791, elapsed: 0.0004749298095703125
ell 790, elapsed: 0.0003859996795654297
ell 789, elapsed: 0.00047779083251953125
ell 788, elapsed: 0.0003859996795654297
ell 787, elapsed: 0.00047397613525390625
ell 786, elapsed: 0.0003829002380371094
ell 785, elapsed: 0.00047206878662109375
ell 784, elapsed: 0.0009291172027587891
ell 783, elapsed: 0.00047016143798828125
ell 782, elapsed: 0.00038504600524902344
ell 781, elapsed: 0.00046896934509277344
ell 780, elapsed: 0.0003859996795654297
ell 779, elapsed: 0.00047206878662109375
ell 778, elapsed: 0.0003819465637207031
ell 777, elapsed: 0.0009999275207519531
ell 776, elapsed: 0.0003948211669921875
ell 775, elapsed: 0.00047588348388671875
ell 774, elapsed: 0.0003829002380371094
ell 773, elapsed: 0.0004649162292480469
ell 772, elapsed: 0.00038695335388183594
ell 771, elapsed: 0.00047206878662109375
ell 770, elapsed: 0.00038695335388183594
ell 769, elapsed: 0.0010039806365966797
ell 768, elapsed: 0.00039196014404296875
ell 767, elapsed: 0.00047087669372558594
ell 766, elapsed: 0.0003809928894042969
ell 765, elapsed: 0.0004730224609375
ell 764, elapsed: 0.00038504600524902344
ell 763, elapsed: 0.0004699230194091797
ell 762, elapsed: 0.0003790855407714844
ell 761, elapsed: 0.0004780292510986328
ell 760, elapsed: 0.0003879070281982422
ell 759, elapsed: 0.0004649162292480469
ell 758, elapsed: 0.0003840923309326172
ell 757, elapsed: 0.0004742145538330078
ell 756, elapsed: 0.0003848075866699219
ell 755, elapsed: 0.0004711151123046875
ell 754, elapsed: 0.0009088516235351562
ell 753, elapsed: 0.00047397613525390625
ell 752, elapsed: 0.0003829002380371094
ell 751, elapsed: 0.00046515464782714844
ell 750, elapsed: 0.00038909912109375
ell 749, elapsed: 0.0004620552062988281
ell 748, elapsed: 0.00039196014404296875
ell 747, elapsed: 0.00047206878662109375
ell 746, elapsed: 0.000392913818359375
ell 745, elapsed: 0.00047087669372558594
ell 744, elapsed: 0.00039196014404296875
ell 743, elapsed: 0.00047516822814941406
ell 742, elapsed: 0.0003829002380371094
ell 741, elapsed: 0.00045990943908691406
ell 740, elapsed: 0.0003848075866699219
ell 739, elapsed: 0.000990152359008789
ell 738, elapsed: 0.0003848075866699219
ell 737, elapsed: 0.0004699230194091797
ell 736, elapsed: 0.00038814544677734375
ell 735, elapsed: 0.0006542205810546875
ell 734, elapsed: 0.0004379749298095703
ell 733, elapsed: 0.0004718303680419922
ell 732, elapsed: 0.0009090900421142578
ell 731, elapsed: 0.00046896934509277344
ell 730, elapsed: 0.0003829002380371094
ell 729, elapsed: 0.0004711151123046875
ell 728, elapsed: 0.0003829002380371094
ell 727, elapsed: 0.00047397613525390625
ell 726, elapsed: 0.0003848075866699219
ell 725, elapsed: 0.0004742145538330078
ell 724, elapsed: 0.0009140968322753906
ell 723, elapsed: 0.000476837158203125
ell 722, elapsed: 0.0003960132598876953
ell 721, elapsed: 0.00047206878662109375
ell 720, elapsed: 0.0003819465637207031
ell 719, elapsed: 0.0004611015319824219
ell 718, elapsed: 0.0003859996795654297
ell 717, elapsed: 0.0009949207305908203
ell 716, elapsed: 0.0003819465637207031
ell 715, elapsed: 0.0004699230194091797
ell 714, elapsed: 0.0003921985626220703
ell 713, elapsed: 0.00046896934509277344
ell 712, elapsed: 0.0003838539123535156
ell 711, elapsed: 0.0004699230194091797
ell 710, elapsed: 0.0003829002380371094
ell 709, elapsed: 0.0009999275207519531
ell 708, elapsed: 0.0003879070281982422
ell 707, elapsed: 0.00048089027404785156
ell 706, elapsed: 0.00038313865661621094
ell 705, elapsed: 0.0004711151123046875
ell 704, elapsed: 0.0003809928894042969
ell 703, elapsed: 0.00047206878662109375
ell 702, elapsed: 0.0009119510650634766
ell 701, elapsed: 0.00047707557678222656
ell 700, elapsed: 0.00038504600524902344
ell 699, elapsed: 0.0004649162292480469
ell 698, elapsed: 0.0003821849822998047
ell 697, elapsed: 0.0004699230194091797
ell 696, elapsed: 0.00038313865661621094
ell 695, elapsed: 0.0004718303680419922
ell 694, elapsed: 0.0009379386901855469
ell 693, elapsed: 0.0004749298095703125
ell 692, elapsed: 0.0003819465637207031
ell 691, elapsed: 0.0004718303680419922
ell 690, elapsed: 0.0003821849822998047
ell 689, elapsed: 0.0004711151123046875
ell 688, elapsed: 0.00038504600524902344
ell 687, elapsed: 0.0010089874267578125
ell 686, elapsed: 0.0003838539123535156
ell 685, elapsed: 0.000469207763671875
ell 684, elapsed: 0.0003821849822998047
ell 683, elapsed: 0.00046896934509277344
ell 682, elapsed: 0.00038886070251464844
ell 681, elapsed: 0.00047087669372558594
ell 680, elapsed: 0.0003819465637207031
ell 679, elapsed: 0.0005700588226318359
ell 678, elapsed: 0.00038504600524902344
ell 677, elapsed: 0.0004649162292480469
ell 676, elapsed: 0.0003809928894042969
ell 675, elapsed: 0.0004639625549316406
ell 674, elapsed: 0.0003809928894042969
ell 673, elapsed: 0.0004730224609375
ell 672, elapsed: 0.0003840923309326172
ell 671, elapsed: 0.0005550384521484375
ell 670, elapsed: 0.0003840923309326172
ell 669, elapsed: 0.00047588348388671875
ell 668, elapsed: 0.00038695335388183594
ell 667, elapsed: 0.00046706199645996094
ell 666, elapsed: 0.00038504600524902344
ell 665, elapsed: 0.00047087669372558594
ell 664, elapsed: 0.0003819465637207031
ell 663, elapsed: 0.00047707557678222656
ell 662, elapsed: 0.0004589557647705078
ell 661, elapsed: 0.0004761219024658203
ell 660, elapsed: 0.0003859996795654297
ell 659, elapsed: 0.0004699230194091797
ell 658, elapsed: 0.0003809928894042969
ell 657, elapsed: 0.0004680156707763672
ell 656, elapsed: 0.0003819465637207031
ell 655, elapsed: 0.0004658699035644531
ell 654, elapsed: 0.00047206878662109375
ell 653, elapsed: 0.0004718303680419922
ell 652, elapsed: 0.00038695335388183594
ell 651, elapsed: 0.0004749298095703125
ell 650, elapsed: 0.0003859996795654297
ell 649, elapsed: 0.00047588348388671875
ell 648, elapsed: 0.00038504600524902344
ell 647, elapsed: 0.00047397613525390625
ell 646, elapsed: 0.0003848075866699219
ell 645, elapsed: 0.0005381107330322266
ell 644, elapsed: 0.00038909912109375
ell 643, elapsed: 0.0004780292510986328
ell 642, elapsed: 0.00038313865661621094
ell 641, elapsed: 0.0004699230194091797
ell 640, elapsed: 0.0003859996795654297
ell 639, elapsed: 0.00047898292541503906
ell 638, elapsed: 0.0003821849822998047
ell 637, elapsed: 0.0005490779876708984
ell 636, elapsed: 0.0003859996795654297
ell 635, elapsed: 0.0004699230194091797
ell 634, elapsed: 0.0003879070281982422
ell 633, elapsed: 0.0004680156707763672
ell 632, elapsed: 0.0003859996795654297
ell 631, elapsed: 0.00046896934509277344
ell 630, elapsed: 0.0003821849822998047
ell 629, elapsed: 0.00047206878662109375
ell 628, elapsed: 0.0004591941833496094
ell 627, elapsed: 0.0004868507385253906
ell 626, elapsed: 0.0003819465637207031
ell 625, elapsed: 0.00047206878662109375
ell 624, elapsed: 0.0003819465637207031
ell 623, elapsed: 0.0004680156707763672
ell 622, elapsed: 0.00038814544677734375
ell 621, elapsed: 0.0004699230194091797
ell 620, elapsed: 0.00049591064453125
ell 619, elapsed: 0.0004730224609375
ell 618, elapsed: 0.0003809928894042969
ell 617, elapsed: 0.0004661083221435547
ell 616, elapsed: 0.0003819465637207031
ell 615, elapsed: 0.0004680156707763672
ell 614, elapsed: 0.0003838539123535156
ell 613, elapsed: 0.00046896934509277344
ell 612, elapsed: 0.00038695335388183594
ell 611, elapsed: 0.0005750656127929688
ell 610, elapsed: 0.00038886070251464844
ell 609, elapsed: 0.00047397613525390625
ell 608, elapsed: 0.00039005279541015625
ell 607, elapsed: 0.0004761219024658203
ell 606, elapsed: 0.0003829002380371094
ell 605, elapsed: 0.00047516822814941406
ell 604, elapsed: 0.00039005279541015625
ell 603, elapsed: 0.0004949569702148438
ell 602, elapsed: 0.0003819465637207031
ell 601, elapsed: 0.00046896934509277344
ell 600, elapsed: 0.0003838539123535156
ell 599, elapsed: 0.00046896934509277344
ell 598, elapsed: 0.00039315223693847656
ell 597, elapsed: 0.00047588348388671875
ell 596, elapsed: 0.0003859996795654297
ell 595, elapsed: 0.0004730224609375
ell 594, elapsed: 0.00041294097900390625
ell 593, elapsed: 0.00047707557678222656
ell 592, elapsed: 0.00038313865661621094
ell 591, elapsed: 0.0004699230194091797
ell 590, elapsed: 0.0003859996795654297
ell 589, elapsed: 0.0004749298095703125
ell 588, elapsed: 0.00038504600524902344
ell 587, elapsed: 0.0004711151123046875
ell 586, elapsed: 0.0003840923309326172
ell 585, elapsed: 0.0005388259887695312
ell 584, elapsed: 0.0003829002380371094
ell 583, elapsed: 0.0004680156707763672
ell 582, elapsed: 0.0003859996795654297
ell 581, elapsed: 0.0004699230194091797
ell 580, elapsed: 0.0003809928894042969
ell 579, elapsed: 0.00047397613525390625
ell 578, elapsed: 0.0003859996795654297
ell 577, elapsed: 0.00049591064453125
ell 576, elapsed: 0.0003879070281982422
ell 575, elapsed: 0.0004711151123046875
ell 574, elapsed: 0.0003879070281982422
ell 573, elapsed: 0.0004780292510986328
ell 572, elapsed: 0.0003821849822998047
ell 571, elapsed: 0.0004801750183105469
ell 570, elapsed: 0.0003910064697265625
ell 569, elapsed: 0.00047707557678222656
ell 568, elapsed: 0.0003979206085205078
ell 567, elapsed: 0.00046706199645996094
ell 566, elapsed: 0.0003840923309326172
ell 565, elapsed: 0.0004699230194091797
ell 564, elapsed: 0.0003821849822998047
ell 563, elapsed: 0.0004711151123046875
ell 562, elapsed: 0.00038504600524902344
ell 561, elapsed: 0.00047206878662109375
ell 560, elapsed: 0.0004050731658935547
ell 559, elapsed: 0.0004699230194091797
ell 558, elapsed: 0.00039315223693847656
ell 557, elapsed: 0.00047087669372558594
ell 556, elapsed: 0.00038695335388183594
ell 555, elapsed: 0.0004780292510986328
ell 554, elapsed: 0.0003829002380371094
ell 553, elapsed: 0.00046706199645996094
ell 552, elapsed: 0.00039315223693847656
ell 551, elapsed: 0.0006151199340820312
ell 550, elapsed: 0.0004949569702148438
ell 549, elapsed: 0.0004668235778808594
ell 548, elapsed: 0.0003821849822998047
ell 547, elapsed: 0.0004658699035644531
ell 546, elapsed: 0.0003819465637207031
ell 545, elapsed: 0.0004699230194091797
ell 544, elapsed: 0.0003800392150878906
ell 543, elapsed: 0.0004870891571044922
ell 542, elapsed: 0.0003879070281982422
ell 541, elapsed: 0.0004799365997314453
ell 540, elapsed: 0.00038695335388183594
ell 539, elapsed: 0.00047397613525390625
ell 538, elapsed: 0.0003809928894042969
ell 537, elapsed: 0.0004639625549316406
ell 536, elapsed: 0.00038814544677734375
ell 535, elapsed: 0.00047898292541503906
ell 534, elapsed: 0.00039315223693847656
ell 533, elapsed: 0.0004749298095703125
ell 532, elapsed: 0.0005049705505371094
ell 531, elapsed: 0.0006010532379150391
ell 530, elapsed: 0.0003809928894042969
ell 529, elapsed: 0.00047206878662109375
ell 528, elapsed: 0.00048613548278808594
ell 527, elapsed: 0.0006399154663085938
ell 526, elapsed: 0.00038504600524902344
ell 525, elapsed: 0.0006678104400634766
ell 524, elapsed: 0.0004329681396484375
ell 523, elapsed: 0.00047206878662109375
ell 522, elapsed: 0.0003840923309326172
ell 521, elapsed: 0.00047397613525390625
ell 520, elapsed: 0.0003848075866699219
ell 519, elapsed: 0.0004949569702148438
ell 518, elapsed: 0.0003960132598876953
ell 517, elapsed: 0.0004749298095703125
ell 516, elapsed: 0.0003840923309326172
ell 515, elapsed: 0.00047516822814941406
ell 514, elapsed: 0.0003879070281982422
ell 513, elapsed: 0.00047707557678222656
ell 512, elapsed: 0.0003910064697265625
ell 511, elapsed: 0.0004830360412597656
ell 510, elapsed: 0.00041294097900390625
ell 509, elapsed: 0.0004849433898925781
ell 508, elapsed: 0.0003840923309326172
ell 507, elapsed: 0.0004680156707763672
ell 506, elapsed: 0.0003829002380371094
ell 505, elapsed: 0.00046896934509277344
ell 504, elapsed: 0.0003819465637207031
ell 503, elapsed: 0.00047278404235839844
ell 502, elapsed: 0.000408172607421875
ell 501, elapsed: 0.0004811286926269531
ell 500, elapsed: 0.0003879070281982422
ell 499, elapsed: 0.00047707557678222656
ell 498, elapsed: 0.0003829002380371094
ell 497, elapsed: 0.0004818439483642578
ell 496, elapsed: 0.00038814544677734375
ell 495, elapsed: 0.0004730224609375
ell 494, elapsed: 0.00038814544677734375
ell 493, elapsed: 0.0004909038543701172
ell 492, elapsed: 0.0003960132598876953
ell 491, elapsed: 0.0004799365997314453
ell 490, elapsed: 0.0003871917724609375
ell 489, elapsed: 0.00047016143798828125
ell 488, elapsed: 0.00038504600524902344
ell 487, elapsed: 0.0004761219024658203
ell 486, elapsed: 0.0005500316619873047
ell 485, elapsed: 0.0005848407745361328
ell 484, elapsed: 0.0003879070281982422
ell 483, elapsed: 0.0004730224609375
ell 482, elapsed: 0.00039005279541015625
ell 481, elapsed: 0.00047206878662109375
ell 480, elapsed: 0.0005369186401367188
ell 479, elapsed: 0.0005619525909423828
ell 478, elapsed: 0.00038695335388183594
ell 477, elapsed: 0.0004940032958984375
ell 476, elapsed: 0.0003921985626220703
ell 475, elapsed: 0.00047779083251953125
ell 474, elapsed: 0.0003948211669921875
ell 473, elapsed: 0.0004658699035644531
ell 472, elapsed: 0.0003859996795654297
ell 471, elapsed: 0.00047707557678222656
ell 470, elapsed: 0.0003829002380371094
ell 469, elapsed: 0.0004899501800537109
ell 468, elapsed: 0.0003871917724609375
ell 467, elapsed: 0.0004749298095703125
ell 466, elapsed: 0.0003819465637207031
ell 465, elapsed: 0.0006608963012695312
ell 464, elapsed: 0.00043082237243652344
ell 463, elapsed: 0.0004642009735107422
ell 462, elapsed: 0.0003829002380371094
ell 461, elapsed: 0.0004849433898925781
ell 460, elapsed: 0.00039196014404296875
ell 459, elapsed: 0.00047397613525390625
ell 458, elapsed: 0.00038504600524902344
ell 457, elapsed: 0.0004730224609375
ell 456, elapsed: 0.0003879070281982422
ell 455, elapsed: 0.0004730224609375
ell 454, elapsed: 0.00038909912109375
ell 453, elapsed: 0.0004680156707763672
ell 452, elapsed: 0.00040602684020996094
ell 451, elapsed: 0.0004730224609375
ell 450, elapsed: 0.00039315223693847656
ell 449, elapsed: 0.00046706199645996094
ell 448, elapsed: 0.0003829002380371094
ell 447, elapsed: 0.00046706199645996094
ell 446, elapsed: 0.0003838539123535156
ell 445, elapsed: 0.0004711151123046875
ell 444, elapsed: 0.00038504600524902344
ell 443, elapsed: 0.0004990100860595703
ell 442, elapsed: 0.0023910999298095703
ell 441, elapsed: 0.0006699562072753906
ell 440, elapsed: 0.00045800209045410156
ell 439, elapsed: 0.0004949569702148438
ell 438, elapsed: 0.0005350112915039062
ell 437, elapsed: 0.0005831718444824219
ell 436, elapsed: 0.0003960132598876953
ell 435, elapsed: 0.00047397613525390625
ell 434, elapsed: 0.000514984130859375
ell 433, elapsed: 0.0006020069122314453
ell 432, elapsed: 0.00041103363037109375
ell 431, elapsed: 0.00048279762268066406
ell 430, elapsed: 0.00038886070251464844
ell 429, elapsed: 0.00047397613525390625
ell 428, elapsed: 0.000392913818359375
ell 427, elapsed: 0.0004820823669433594
ell 426, elapsed: 0.00039196014404296875
ell 425, elapsed: 0.0004649162292480469
ell 424, elapsed: 0.0004220008850097656
ell 423, elapsed: 0.0004680156707763672
ell 422, elapsed: 0.00038695335388183594
ell 421, elapsed: 0.00046706199645996094
ell 420, elapsed: 0.0003809928894042969
ell 419, elapsed: 0.00047206878662109375
ell 418, elapsed: 0.0003859996795654297
ell 417, elapsed: 0.0004730224609375
ell 416, elapsed: 0.0004208087921142578
ell 415, elapsed: 0.0015120506286621094
ell 414, elapsed: 0.0006220340728759766
ell 413, elapsed: 0.0006351470947265625
ell 412, elapsed: 0.0004260540008544922
ell 411, elapsed: 0.0005660057067871094
ell 410, elapsed: 0.00043702125549316406
ell 409, elapsed: 0.0005118846893310547
ell 408, elapsed: 0.0004248619079589844
ell 407, elapsed: 0.0005550384521484375
ell 406, elapsed: 0.0004520416259765625
ell 405, elapsed: 0.0005061626434326172
ell 404, elapsed: 0.00045299530029296875
ell 403, elapsed: 0.0006070137023925781
ell 402, elapsed: 0.00038909912109375
ell 401, elapsed: 0.00046896934509277344
ell 400, elapsed: 0.0003819465637207031
ell 399, elapsed: 0.0004661083221435547
ell 398, elapsed: 0.0003829002380371094
ell 397, elapsed: 0.00047016143798828125
ell 396, elapsed: 0.0003838539123535156
ell 395, elapsed: 0.0004699230194091797
ell 394, elapsed: 0.0003991127014160156
ell 393, elapsed: 0.00047397613525390625
ell 392, elapsed: 0.0003829002380371094
ell 391, elapsed: 0.00047016143798828125
ell 390, elapsed: 0.0003859996795654297
ell 389, elapsed: 0.000469207763671875
ell 388, elapsed: 0.0003821849822998047
ell 387, elapsed: 0.0004680156707763672
ell 386, elapsed: 0.0003829002380371094
ell 385, elapsed: 0.0004799365997314453
ell 384, elapsed: 0.00038313865661621094
ell 383, elapsed: 0.0004642009735107422
ell 382, elapsed: 0.0003809928894042969
ell 381, elapsed: 0.0004711151123046875
ell 380, elapsed: 0.0003829002380371094
ell 379, elapsed: 0.0004680156707763672
ell 378, elapsed: 0.00039505958557128906
ell 377, elapsed: 0.000476837158203125
ell 376, elapsed: 0.0005159378051757812
ell 375, elapsed: 0.0006010532379150391
ell 374, elapsed: 0.00045490264892578125
ell 373, elapsed: 0.0005528926849365234
ell 372, elapsed: 0.000415802001953125
ell 371, elapsed: 0.0005180835723876953
ell 370, elapsed: 0.0004639625549316406
ell 369, elapsed: 0.0005631446838378906
ell 368, elapsed: 0.0003790855407714844
ell 367, elapsed: 0.0004658699035644531
ell 366, elapsed: 0.0003879070281982422
ell 365, elapsed: 0.0004661083221435547
ell 364, elapsed: 0.0003809928894042969
ell 363, elapsed: 0.0004649162292480469
ell 362, elapsed: 0.0003800392150878906
ell 361, elapsed: 0.00048089027404785156
ell 360, elapsed: 0.0003719329833984375
ell 359, elapsed: 0.0004379749298095703
ell 358, elapsed: 0.00035691261291503906
ell 357, elapsed: 0.0004298686981201172
ell 356, elapsed: 0.00035691261291503906
ell 355, elapsed: 0.0004239082336425781
ell 354, elapsed: 0.0003581047058105469
ell 353, elapsed: 0.0004260540008544922
ell 352, elapsed: 0.0003540515899658203
ell 351, elapsed: 0.0005609989166259766
ell 350, elapsed: 0.0004410743713378906
ell 349, elapsed: 0.0006160736083984375
ell 348, elapsed: 0.00043511390686035156
ell 347, elapsed: 0.0005440711975097656
ell 346, elapsed: 0.0005331039428710938
ell 345, elapsed: 0.0005650520324707031
ell 344, elapsed: 0.0004589557647705078
ell 343, elapsed: 0.0004668235778808594
ell 342, elapsed: 0.0003809928894042969
ell 341, elapsed: 0.00045990943908691406
ell 340, elapsed: 0.00038886070251464844
ell 339, elapsed: 0.0006649494171142578
ell 338, elapsed: 0.0005159378051757812
ell 337, elapsed: 0.00047206878662109375
ell 336, elapsed: 0.00039505958557128906
ell 335, elapsed: 0.0004699230194091797
ell 334, elapsed: 0.0003829002380371094
ell 333, elapsed: 0.0004620552062988281
ell 332, elapsed: 0.0003821849822998047
ell 331, elapsed: 0.0004639625549316406
ell 330, elapsed: 0.0003800392150878906
ell 329, elapsed: 0.0004649162292480469
ell 328, elapsed: 0.00037789344787597656
ell 327, elapsed: 0.0005390644073486328
ell 326, elapsed: 0.00038504600524902344
ell 325, elapsed: 0.00047588348388671875
ell 324, elapsed: 0.00037980079650878906
ell 323, elapsed: 0.0004620552062988281
ell 322, elapsed: 0.00038695335388183594
ell 321, elapsed: 0.00047898292541503906
ell 320, elapsed: 0.00038695335388183594
ell 319, elapsed: 0.0006189346313476562
ell 318, elapsed: 0.0006320476531982422
ell 317, elapsed: 0.0006351470947265625
ell 316, elapsed: 0.00043702125549316406
ell 315, elapsed: 0.0005700588226318359
ell 314, elapsed: 0.00042510032653808594
ell 313, elapsed: 0.00049591064453125
ell 312, elapsed: 0.0004279613494873047
ell 311, elapsed: 0.0004649162292480469
ell 310, elapsed: 0.0003809928894042969
ell 309, elapsed: 0.0004639625549316406
ell 308, elapsed: 0.0004448890686035156
ell 307, elapsed: 0.0006430149078369141
ell 306, elapsed: 0.00038695335388183594
ell 305, elapsed: 0.0004630088806152344
ell 304, elapsed: 0.0004279613494873047
ell 303, elapsed: 0.00046515464782714844
ell 302, elapsed: 0.00037980079650878906
ell 301, elapsed: 0.0004630088806152344
ell 300, elapsed: 0.0003769397735595703
ell 299, elapsed: 0.0004589557647705078
ell 298, elapsed: 0.00039196014404296875
ell 297, elapsed: 0.0004749298095703125
ell 296, elapsed: 0.0003821849822998047
ell 295, elapsed: 0.0004780292510986328
ell 294, elapsed: 0.0003809928894042969
ell 293, elapsed: 0.00046181678771972656
ell 292, elapsed: 0.0003859996795654297
ell 291, elapsed: 0.0004649162292480469
ell 290, elapsed: 0.0003819465637207031
ell 289, elapsed: 0.0004680156707763672
ell 288, elapsed: 0.0003829002380371094
ell 287, elapsed: 0.00046896934509277344
ell 286, elapsed: 0.00039696693420410156
ell 285, elapsed: 0.00046706199645996094
ell 284, elapsed: 0.0003809928894042969
ell 283, elapsed: 0.0004718303680419922
ell 282, elapsed: 0.0003840923309326172
ell 281, elapsed: 0.0004749298095703125
ell 280, elapsed: 0.00038695335388183594
ell 279, elapsed: 0.0004718303680419922
ell 278, elapsed: 0.0004069805145263672
ell 277, elapsed: 0.00047516822814941406
ell 276, elapsed: 0.00038695335388183594
ell 275, elapsed: 0.0004749298095703125
ell 274, elapsed: 0.0003879070281982422
ell 273, elapsed: 0.00047588348388671875
ell 272, elapsed: 0.00038504600524902344
ell 271, elapsed: 0.0004799365997314453
ell 270, elapsed: 0.00038814544677734375
ell 269, elapsed: 0.0004961490631103516
ell 268, elapsed: 0.0003859996795654297
ell 267, elapsed: 0.0004627704620361328
ell 266, elapsed: 0.0005409717559814453
ell 265, elapsed: 0.0006279945373535156
ell 264, elapsed: 0.0003840923309326172
ell 263, elapsed: 0.00047588348388671875
ell 262, elapsed: 0.0005588531494140625
ell 261, elapsed: 0.0005590915679931641
ell 260, elapsed: 0.00038695335388183594
ell 259, elapsed: 0.00047898292541503906
ell 258, elapsed: 0.0005431175231933594
ell 257, elapsed: 0.0005810260772705078
ell 256, elapsed: 0.00039196014404296875
ell 255, elapsed: 0.0004730224609375
ell 254, elapsed: 0.0005590915679931641
ell 253, elapsed: 0.0005471706390380859
ell 252, elapsed: 0.00041604042053222656
ell 251, elapsed: 0.00046706199645996094
ell 250, elapsed: 0.00041604042053222656
ell 249, elapsed: 0.0004799365997314453
ell 248, elapsed: 0.0003771781921386719
ell 247, elapsed: 0.0004570484161376953
ell 246, elapsed: 0.0004069805145263672
ell 245, elapsed: 0.0005791187286376953
ell 244, elapsed: 0.0005290508270263672
ell 243, elapsed: 0.00045990943908691406
ell 242, elapsed: 0.0003769397735595703
ell 241, elapsed: 0.0004661083221435547
ell 240, elapsed: 0.0003809928894042969
ell 239, elapsed: 0.00046896934509277344
ell 238, elapsed: 0.0003819465637207031
ell 237, elapsed: 0.00047898292541503906
ell 236, elapsed: 0.0003800392150878906
ell 235, elapsed: 0.00045990943908691406
ell 234, elapsed: 0.0003809928894042969
ell 233, elapsed: 0.0004601478576660156
ell 232, elapsed: 0.0003809928894042969
ell 231, elapsed: 0.0004661083221435547
ell 230, elapsed: 0.0003800392150878906
ell 229, elapsed: 0.0004911422729492188
ell 228, elapsed: 0.0003809928894042969
ell 227, elapsed: 0.0004649162292480469
ell 226, elapsed: 0.0003800392150878906
ell 225, elapsed: 0.00045800209045410156
ell 224, elapsed: 0.0003790855407714844
ell 223, elapsed: 0.00045800209045410156
ell 222, elapsed: 0.00037980079650878906
ell 221, elapsed: 0.0004589557647705078
ell 220, elapsed: 0.00039315223693847656
ell 219, elapsed: 0.0004680156707763672
ell 218, elapsed: 0.0003819465637207031
ell 217, elapsed: 0.00046896934509277344
ell 216, elapsed: 0.0003819465637207031
ell 215, elapsed: 0.00046896934509277344
ell 214, elapsed: 0.0003829002380371094
ell 213, elapsed: 0.0004730224609375
ell 212, elapsed: 0.0003838539123535156
ell 211, elapsed: 0.0004780292510986328
ell 210, elapsed: 0.0003800392150878906
ell 209, elapsed: 0.00046706199645996094
ell 208, elapsed: 0.00037980079650878906
ell 207, elapsed: 0.00046706199645996094
ell 206, elapsed: 0.0003809928894042969
ell 205, elapsed: 0.0004658699035644531
ell 204, elapsed: 0.00038313865661621094
ell 203, elapsed: 0.0004570484161376953
ell 202, elapsed: 0.00039196014404296875
ell 201, elapsed: 0.000469207763671875
ell 200, elapsed: 0.00038313865661621094
ell 199, elapsed: 0.0004680156707763672
ell 198, elapsed: 0.0003819465637207031
ell 197, elapsed: 0.0004639625549316406
ell 196, elapsed: 0.00038695335388183594
ell 195, elapsed: 0.00047087669372558594
ell 194, elapsed: 0.00038313865661621094
ell 193, elapsed: 0.0004611015319824219
ell 192, elapsed: 0.0003809928894042969
ell 191, elapsed: 0.0004661083221435547
ell 190, elapsed: 0.00038504600524902344
ell 189, elapsed: 0.0004680156707763672
ell 188, elapsed: 0.0003829002380371094
ell 187, elapsed: 0.0004630088806152344
ell 186, elapsed: 0.00037980079650878906
ell 185, elapsed: 0.00047898292541503906
ell 184, elapsed: 0.0003790855407714844
ell 183, elapsed: 0.0004630088806152344
ell 182, elapsed: 0.0004680156707763672
ell 181, elapsed: 0.000720977783203125
ell 180, elapsed: 0.0005910396575927734
ell 179, elapsed: 0.0004730224609375
ell 178, elapsed: 0.00037789344787597656
ell 177, elapsed: 0.0004820823669433594
ell 176, elapsed: 0.00038886070251464844
ell 175, elapsed: 0.00047206878662109375
ell 174, elapsed: 0.00038695335388183594
ell 173, elapsed: 0.0004649162292480469
ell 172, elapsed: 0.0003840923309326172
ell 171, elapsed: 0.00046515464782714844
ell 170, elapsed: 0.0003840923309326172
ell 169, elapsed: 0.0004849433898925781
ell 168, elapsed: 0.0003840923309326172
ell 167, elapsed: 0.00046896934509277344
ell 166, elapsed: 0.0003840923309326172
ell 165, elapsed: 0.00046706199645996094
ell 164, elapsed: 0.0003838539123535156
ell 163, elapsed: 0.0004661083221435547
ell 162, elapsed: 0.0004100799560546875
ell 161, elapsed: 0.0007250308990478516
ell 160, elapsed: 0.0005838871002197266
ell 159, elapsed: 0.0004749298095703125
ell 158, elapsed: 0.0003838539123535156
ell 157, elapsed: 0.0004661083221435547
ell 156, elapsed: 0.0003848075866699219
ell 155, elapsed: 0.00046706199645996094
ell 154, elapsed: 0.00038695335388183594
ell 153, elapsed: 0.0004630088806152344
ell 152, elapsed: 0.0003941059112548828
ell 151, elapsed: 0.0004630088806152344
ell 150, elapsed: 0.0003829002380371094
ell 149, elapsed: 0.0004639625549316406
ell 148, elapsed: 0.0003809928894042969
ell 147, elapsed: 0.0004639625549316406
ell 146, elapsed: 0.00038123130798339844
ell 145, elapsed: 0.00046515464782714844
ell 144, elapsed: 0.0003788471221923828
ell 143, elapsed: 0.0004868507385253906
ell 142, elapsed: 0.0004520416259765625
ell 141, elapsed: 0.0006542205810546875
ell 140, elapsed: 0.00039196014404296875
ell 139, elapsed: 0.00046896934509277344
ell 138, elapsed: 0.00038886070251464844
ell 137, elapsed: 0.0004749298095703125
ell 136, elapsed: 0.00038504600524902344
ell 135, elapsed: 0.0006911754608154297
ell 134, elapsed: 0.0004279613494873047
ell 133, elapsed: 0.00047016143798828125
ell 132, elapsed: 0.0005249977111816406
ell 131, elapsed: 0.0006010532379150391
ell 130, elapsed: 0.0003848075866699219
ell 129, elapsed: 0.00047206878662109375
ell 128, elapsed: 0.0004000663757324219
ell 127, elapsed: 0.00047397613525390625
ell 126, elapsed: 0.00038504600524902344
ell 125, elapsed: 0.00047898292541503906
ell 124, elapsed: 0.0003859996795654297
ell 123, elapsed: 0.000476837158203125
ell 122, elapsed: 0.00038695335388183594
ell 121, elapsed: 0.0004801750183105469
ell 120, elapsed: 0.00038814544677734375
ell 119, elapsed: 0.0004990100860595703
ell 118, elapsed: 0.00038313865661621094
ell 117, elapsed: 0.0004658699035644531
ell 116, elapsed: 0.0003809928894042969
ell 115, elapsed: 0.0004649162292480469
ell 114, elapsed: 0.0003819465637207031
ell 113, elapsed: 0.0004680156707763672
ell 112, elapsed: 0.0005249977111816406
ell 111, elapsed: 0.0006000995635986328
ell 110, elapsed: 0.00038909912109375
ell 109, elapsed: 0.00047588348388671875
ell 108, elapsed: 0.0003921985626220703
ell 107, elapsed: 0.0004718303680419922
ell 106, elapsed: 0.00038504600524902344
ell 105, elapsed: 0.00047516822814941406
ell 104, elapsed: 0.0005509853363037109
ell 103, elapsed: 0.0005619525909423828
ell 102, elapsed: 0.0003800392150878906
ell 101, elapsed: 0.00047206878662109375
ell 100, elapsed: 0.0003809928894042969
ell 99, elapsed: 0.0004649162292480469
ell 98, elapsed: 0.0003859996795654297
ell 97, elapsed: 0.0004749298095703125
ell 96, elapsed: 0.0003788471221923828
ell 95, elapsed: 0.0006740093231201172
ell 94, elapsed: 0.0005371570587158203
ell 93, elapsed: 0.000720977783203125
ell 92, elapsed: 0.0005340576171875
ell 91, elapsed: 0.0004718303680419922
ell 90, elapsed: 0.0003790855407714844
ell 89, elapsed: 0.0004699230194091797
ell 88, elapsed: 0.0003829002380371094
ell 87, elapsed: 0.0004909038543701172
ell 86, elapsed: 0.0003819465637207031
ell 85, elapsed: 0.0004601478576660156
ell 84, elapsed: 0.0003809928894042969
ell 83, elapsed: 0.0004661083221435547
ell 82, elapsed: 0.0003809928894042969
ell 81, elapsed: 0.00047087669372558594
ell 80, elapsed: 0.0003819465637207031
ell 79, elapsed: 0.00048613548278808594
ell 78, elapsed: 0.0003829002380371094
ell 77, elapsed: 0.00046896934509277344
ell 76, elapsed: 0.0003829002380371094
ell 75, elapsed: 0.0004639625549316406
ell 74, elapsed: 0.0003859996795654297
ell 73, elapsed: 0.0006899833679199219
ell 72, elapsed: 0.0006120204925537109
ell 71, elapsed: 0.0005300045013427734
ell 70, elapsed: 0.0003809928894042969
ell 69, elapsed: 0.0004661083221435547
ell 68, elapsed: 0.0003840923309326172
ell 67, elapsed: 0.0004718303680419922
ell 66, elapsed: 0.00038123130798339844
ell 65, elapsed: 0.0004591941833496094
ell 64, elapsed: 0.00038313865661621094
ell 63, elapsed: 0.00046706199645996094
ell 62, elapsed: 0.00044989585876464844
ell 61, elapsed: 0.0004718303680419922
ell 60, elapsed: 0.0003898143768310547
ell 59, elapsed: 0.00047397613525390625
ell 58, elapsed: 0.0003879070281982422
ell 57, elapsed: 0.0004730224609375
ell 56, elapsed: 0.00038886070251464844
ell 55, elapsed: 0.00055694580078125
ell 54, elapsed: 0.000553131103515625
ell 53, elapsed: 0.0004911422729492188
ell 52, elapsed: 0.00038886070251464844
ell 51, elapsed: 0.00047707557678222656
ell 50, elapsed: 0.00038886070251464844
ell 49, elapsed: 0.00047397613525390625
ell 48, elapsed: 0.00039005279541015625
ell 47, elapsed: 0.0004749298095703125
ell 46, elapsed: 0.00045299530029296875
ell 45, elapsed: 0.00047707557678222656
ell 44, elapsed: 0.0003879070281982422
ell 43, elapsed: 0.00046706199645996094
ell 42, elapsed: 0.0003859996795654297
ell 41, elapsed: 0.00047206878662109375
ell 40, elapsed: 0.0003910064697265625
ell 39, elapsed: 0.0004839897155761719
ell 38, elapsed: 0.00039505958557128906
ell 37, elapsed: 0.0005278587341308594
ell 36, elapsed: 0.00038695335388183594
ell 35, elapsed: 0.00046896934509277344
ell 34, elapsed: 0.0003879070281982422
ell 33, elapsed: 0.00048089027404785156
ell 32, elapsed: 0.000392913818359375
ell 31, elapsed: 0.0004909038543701172
ell 30, elapsed: 0.00038909912109375
ell 29, elapsed: 0.0005359649658203125
ell 28, elapsed: 0.00039696693420410156
ell 27, elapsed: 0.0004839897155761719
ell 26, elapsed: 0.0003991127014160156
ell 25, elapsed: 0.0004849433898925781
ell 24, elapsed: 0.0003910064697265625
ell 23, elapsed: 0.0004749298095703125
ell 22, elapsed: 0.0003879070281982422
ell 21, elapsed: 0.0004668235778808594
ell 20, elapsed: 0.0004398822784423828
ell 19, elapsed: 0.000476837158203125
ell 18, elapsed: 0.00039196014404296875
ell 17, elapsed: 0.00047087669372558594
ell 16, elapsed: 0.0003910064697265625
ell 15, elapsed: 0.00047206878662109375
ell 14, elapsed: 0.0004279613494873047
ell 13, elapsed: 0.0005018711090087891
ell 12, elapsed: 0.00041294097900390625
ell 11, elapsed: 0.0004780292510986328
ell 10, elapsed: 0.0005269050598144531
ell 9, elapsed: 0.0005939006805419922
ell 8, elapsed: 0.00039505958557128906
ell 7, elapsed: 0.0004849433898925781
ell 6, elapsed: 0.0003960132598876953
ell 5, elapsed: 0.0004889965057373047
ell 4, elapsed: 0.0004131793975830078
ell 3, elapsed: 0.0004839897155761719
ell 2, elapsed: 0.0004029273986816406
ell 1, elapsed: 0.00047898292541503906
ell 0, elapsed: 0.0004019737243652344
  0.656346 seconds (41.19 k allocations: 2.939 MiB)
elapsed: 0.0005769729614257812
step:          0.063053 sec (0 allocations: 0 byte, 0.0% gc time)
swapping:      0.000867 sec (0 allocations: 0 byte, 0.0% gc time)
calc_Mellell!: 0.01013 sec (0 allocations: 0 byte, 0.0% gc time)
  t0 :  0.002888 sec (0 allocations: 0 byte, 0.0% gc time)
  tm2 : 0.097551 sec (0 allocations: 0 byte, 0.0% gc time)
  tm2s: 0.001799 sec (0 allocations: 0 byte, 0.0% gc time)
  tm4 : 0.243439 sec (0 allocations: 0 byte, 0.0% gc time)
  tp2 : 0.0 sec (0 allocations: 0 byte, 0.0% gc time)
  tp2s: 0.0 sec (0 allocations: 0 byte, 0.0% gc time)
  tp4 : 0.0 sec (0 allocations: 0 byte, 0.0% gc time)
calc_wtdll!:   0.366005 sec (9.87 k allocations: 1.043 MB, 0.0% gc time)
calc_wljj!:    0.038287 sec (689 allocations: 10.766 KB, 0.0% gc time)
mult_prefac!:  0.0 sec (0 allocations: 0 byte, 0.0% gc time)
convert:       0.0 sec (0 allocations: 0 byte, 0.0% gc time)
write:         0.057233 sec (0 allocations: 0 byte, 0.0% gc time)
test_rand_2f1: 0.0 sec (0 allocations: 0 byte, 0.0% gc time)
Closing outfile out/Ml21-cache.bin...   0.020536 seconds
  0.000525 seconds (52 allocations: 28.297 KiB)
make_phi():   0.002563 seconds (8.20 k allocations: 238.016 KiB)
  0.183077 seconds (146.69 k allocations: 3.629 MiB)
tskip:       0.000926 sec (0 allocations: 0 byte, 0.0% gc time)
tread:       0.024379 sec (19 allocations: 10.688 KB, 0.0% gc time)
tmultphi:    0.013284 sec (0 allocations: 0 byte, 0.0% gc time)
tbrfft:      0.046538 sec (9.592 k allocations: 449.625 KB, 0.0% gc time)
tmultprefac: 0.040895 sec (0 allocations: 0 byte, 0.0% gc time)
toutfunc:    0.054993 sec (129.905 k allocations: 2.421 MB, 0.0% gc time)
Testing R=1.0 ... passed
Calculating fmax: 
  dlrec    = 4
  dlrecRg1 = -4
  q=1.1, R=0.9:	  0.458868 seconds (116.47 k allocations: 15.614 MiB)

  0.459118 seconds (116.50 k allocations: 15.647 MiB)
ℓ = 1202
Δℓ = 4
ΔℓRg1 = -4
N = 1600
q = 1.1
kmin = 1.0e-5
kmax = 100000.00000000004
χ0 = 0.023029999999999995
RR = RR.tsv
ℓmax = ℓmax.bin
f21 = f21.bin
kmin = 1.0e-5
kmax = 100000.0
dlrec    = 4
dlrecRg1 = -4
Output size: 5741568 bytes = 0.005347251892089844 GiB
Output size: 51264 bytes = 4.774332046508789e-5 GiB
Reading 'out/F21EllCache'...   0.001153 seconds (267 allocations: 84.656 KiB)
ellmax: 1202
lmaxcache: 1202
fell[:,1,1] = Complex{Float64}[1.3482014726274674e-57 - 3.302141236118086e-73im, 1.357860004724329e-57 - 3.3257978169518355e-73im]
ell 1202, elapsed: 2.3126602172851562e-5
ell 1201, elapsed: 0.0005300045013427734
ell 1200, elapsed: 0.0004818439483642578
ell 1199, elapsed: 0.0004761219024658203
ell 1198, elapsed: 0.00047516822814941406
ell 1002, elapsed: 0.00941610336303711
ell 1001, elapsed: 0.0004508495330810547
ell 1000, elapsed: 0.0004398822784423828
ell 999, elapsed: 0.00043511390686035156
ell 998, elapsed: 0.0004329681396484375
ell 902, elapsed: 0.004971027374267578
ell 901, elapsed: 0.0007028579711914062
ell 900, elapsed: 0.00045800209045410156
ell 899, elapsed: 0.0004169940948486328
ell 898, elapsed: 0.00043010711669921875
ell 802, elapsed: 0.004951953887939453
ell 801, elapsed: 0.0004849433898925781
ell 800, elapsed: 0.00047898292541503906
ell 799, elapsed: 0.0004558563232421875
ell 798, elapsed: 0.0004379749298095703
ell 702, elapsed: 0.004953861236572266
ell 701, elapsed: 0.00048089027404785156
ell 700, elapsed: 0.00044989585876464844
ell 699, elapsed: 0.00043201446533203125
ell 698, elapsed: 0.0004620552062988281
ell 602, elapsed: 0.005063056945800781
ell 601, elapsed: 0.00048613548278808594
ell 600, elapsed: 0.0004329681396484375
ell 599, elapsed: 0.00044798851013183594
ell 598, elapsed: 0.0004439353942871094
ell 502, elapsed: 0.004806041717529297
ell 501, elapsed: 0.0004799365997314453
ell 500, elapsed: 0.00045418739318847656
ell 499, elapsed: 0.0004329681396484375
ell 498, elapsed: 0.0006380081176757812
ell 402, elapsed: 0.004979848861694336
ell 401, elapsed: 0.0004608631134033203
ell 400, elapsed: 0.0004611015319824219
ell 399, elapsed: 0.0004360675811767578
ell 398, elapsed: 0.0003998279571533203
ell 302, elapsed: 0.0047969818115234375
ell 301, elapsed: 0.00047206878662109375
ell 300, elapsed: 0.0004191398620605469
ell 299, elapsed: 0.000453948974609375
ell 298, elapsed: 0.0004601478576660156
ell 202, elapsed: 0.005113840103149414
ell 201, elapsed: 0.0004229545593261719
ell 200, elapsed: 0.0004448890686035156
ell 199, elapsed: 0.00044417381286621094
ell 198, elapsed: 0.000431060791015625
ell 152, elapsed: 0.002568960189819336
ell 151, elapsed: 0.0004570484161376953
ell 150, elapsed: 0.0004458427429199219
ell 149, elapsed: 0.00042700767517089844
ell 148, elapsed: 0.0005619525909423828
ell 127, elapsed: 0.0015799999237060547
ell 126, elapsed: 0.0004649162292480469
ell 125, elapsed: 0.0005350112915039062
ell 124, elapsed: 0.0004470348358154297
ell 123, elapsed: 0.00035691261291503906
ell 114, elapsed: 0.0008809566497802734
ell 113, elapsed: 0.0004329681396484375
ell 112, elapsed: 0.00043010711669921875
ell 111, elapsed: 0.0004291534423828125
ell 110, elapsed: 0.0003769397735595703
ell 102, elapsed: 0.0009100437164306641
ell 101, elapsed: 0.0003600120544433594
ell 100, elapsed: 0.0003509521484375
ell 99, elapsed: 0.00035309791564941406
ell 98, elapsed: 0.00035190582275390625
ell 97, elapsed: 0.0004968643188476562
ell 96, elapsed: 0.0006289482116699219
ell 95, elapsed: 0.00039386749267578125
ell 94, elapsed: 0.0004949569702148438
ell 93, elapsed: 0.0003898143768310547
ell 92, elapsed: 0.0005841255187988281
ell 91, elapsed: 0.0006158351898193359
ell 90, elapsed: 0.0006499290466308594
ell 89, elapsed: 0.0005741119384765625
ell 88, elapsed: 0.0006051063537597656
ell 87, elapsed: 0.0005099773406982422
ell 86, elapsed: 0.0006051063537597656
ell 85, elapsed: 0.0005340576171875
ell 84, elapsed: 0.0006170272827148438
ell 83, elapsed: 0.0005269050598144531
ell 82, elapsed: 0.0006198883056640625
ell 81, elapsed: 0.0005280971527099609
ell 80, elapsed: 0.0006160736083984375
ell 79, elapsed: 0.0005288124084472656
ell 78, elapsed: 0.0006339550018310547
ell 77, elapsed: 0.0005168914794921875
ell 76, elapsed: 0.0006239414215087891
ell 75, elapsed: 0.0005269050598144531
ell 74, elapsed: 0.0006170272827148438
ell 73, elapsed: 0.0005888938903808594
ell 72, elapsed: 0.000598907470703125
ell 71, elapsed: 0.000514984130859375
ell 70, elapsed: 0.0006060600280761719
ell 69, elapsed: 0.0005190372467041016
ell 68, elapsed: 0.0006239414215087891
ell 67, elapsed: 0.0005218982696533203
ell 66, elapsed: 0.0006058216094970703
ell 65, elapsed: 0.0005168914794921875
ell 64, elapsed: 0.0006279945373535156
ell 63, elapsed: 0.0005481243133544922
ell 62, elapsed: 0.0006048679351806641
ell 61, elapsed: 0.0005409717559814453
ell 60, elapsed: 0.0006198883056640625
ell 59, elapsed: 0.000514984130859375
ell 58, elapsed: 0.0006308555603027344
ell 57, elapsed: 0.0006830692291259766
ell 56, elapsed: 0.0005559921264648438
ell 55, elapsed: 0.0004620552062988281
ell 54, elapsed: 0.0005519390106201172
ell 53, elapsed: 0.0005450248718261719
ell 52, elapsed: 0.0006120204925537109
ell 51, elapsed: 0.0005228519439697266
ell 50, elapsed: 0.0006189346313476562
ell 49, elapsed: 0.0005161762237548828
ell 48, elapsed: 0.0006351470947265625
ell 47, elapsed: 0.0005140304565429688
ell 46, elapsed: 0.00061798095703125
ell 45, elapsed: 0.0005288124084472656
ell 44, elapsed: 0.0006010532379150391
ell 43, elapsed: 0.0005199909210205078
ell 42, elapsed: 0.0008661746978759766
ell 41, elapsed: 0.0005331039428710938
ell 40, elapsed: 0.0006108283996582031
ell 39, elapsed: 0.0005240440368652344
ell 38, elapsed: 0.0006451606750488281
ell 37, elapsed: 0.0005240440368652344
ell 36, elapsed: 0.0006148815155029297
ell 35, elapsed: 0.0005180835723876953
ell 34, elapsed: 0.0006060600280761719
ell 33, elapsed: 0.0005128383636474609
ell 32, elapsed: 0.0006160736083984375
ell 31, elapsed: 0.0005099773406982422
ell 30, elapsed: 0.0008928775787353516
ell 29, elapsed: 0.0005271434783935547
ell 28, elapsed: 0.0006320476531982422
ell 27, elapsed: 0.0004649162292480469
ell 26, elapsed: 0.0006139278411865234
ell 25, elapsed: 0.0005202293395996094
ell 24, elapsed: 0.0006070137023925781
ell 23, elapsed: 0.0005121231079101562
ell 22, elapsed: 0.0006070137023925781
ell 21, elapsed: 0.0005347728729248047
ell 20, elapsed: 0.0006158351898193359
ell 19, elapsed: 0.0006310939788818359
ell 18, elapsed: 0.0006711483001708984
ell 17, elapsed: 0.0004668235778808594
ell 16, elapsed: 0.0006058216094970703
ell 15, elapsed: 0.0005180835723876953
ell 14, elapsed: 0.0006079673767089844
ell 13, elapsed: 0.0005490779876708984
ell 12, elapsed: 0.0007388591766357422
ell 11, elapsed: 0.0005109310150146484
ell 10, elapsed: 0.0005519390106201172
ell 9, elapsed: 0.0005171298980712891
ell 8, elapsed: 0.0007128715515136719
ell 7, elapsed: 0.0005259513854980469
ell 6, elapsed: 0.0005559921264648438
ell 5, elapsed: 0.0005159378051757812
ell 4, elapsed: 0.0005631446838378906
ell 3, elapsed: 0.0005280971527099609
ell 2, elapsed: 0.0005559921264648438
ell 1, elapsed: 0.0005280971527099609
ell 0, elapsed: 0.0005490779876708984
  0.172020 seconds (10.83 k allocations: 697.938 KiB)
elapsed: 0.0014309883117675781
step:          0.054159 sec (0 allocations: 0 byte, 0.0% gc time)
swapping:      0.000561 sec (0 allocations: 0 byte, 0.0% gc time)
calc_Mellell!: 0.001633 sec (0 allocations: 0 byte, 0.0% gc time)
  t0 :  0.000464 sec (0 allocations: 0 byte, 0.0% gc time)
  tm2 : 0.013774 sec (0 allocations: 0 byte, 0.0% gc time)
  tm2s: 0.000344 sec (0 allocations: 0 byte, 0.0% gc time)
  tm4 : 0.033642 sec (0 allocations: 0 byte, 0.0% gc time)
  tp2 : 0.0 sec (0 allocations: 0 byte, 0.0% gc time)
  tp2s: 0.0 sec (0 allocations: 0 byte, 0.0% gc time)
  tp4 : 0.0 sec (0 allocations: 0 byte, 0.0% gc time)
calc_wtdll!:   0.048996 sec (1.344 k allocations: 147.0 KB, 0.0% gc time)
calc_wljj!:    0.003725 sec (6 allocations: 96 byte, 0.0% gc time)
mult_prefac!:  0.0 sec (0 allocations: 0 byte, 0.0% gc time)
convert:       0.0 sec (0 allocations: 0 byte, 0.0% gc time)
write:         0.005618 sec (0 allocations: 0 byte, 0.0% gc time)
test_rand_2f1: 0.0 sec (0 allocations: 0 byte, 0.0% gc time)
Closing outfile out/Ml21-cache.bin...   0.003724 seconds
  0.000262 seconds (52 allocations: 28.297 KiB)
make_phi():   0.002825 seconds (8.20 k allocations: 238.016 KiB)
  0.017260 seconds (12.10 k allocations: 322.000 KiB)
tskip:       2.4e-5 sec (0 allocations: 0 byte, 0.0% gc time)
tread:       0.002425 sec (19 allocations: 2.172 KB, 0.0% gc time)
tmultphi:    0.001272 sec (0 allocations: 0 byte, 0.0% gc time)
tbrfft:      0.004386 sec (896 allocations: 42.0 KB, 0.0% gc time)
tmultprefac: 0.003939 sec (0 allocations: 0 byte, 0.0% gc time)
toutfunc:    0.005197 sec (10.528 k allocations: 206.5 KB, 0.0% gc time)
Testing R=0.9 ... passed
Calculating fmax: 
  dlrec    = 4
  dlrecRg1 = -4
  q=1.1, R=0.8:	  0.365439 seconds (113.61 k allocations: 15.166 MiB)

  0.366274 seconds (113.65 k allocations: 15.200 MiB)
ℓ = 1202
Δℓ = 4
ΔℓRg1 = -4
N = 1600
q = 1.1
kmin = 1.0e-5
kmax = 100000.00000000004
χ0 = 0.023029999999999995
RR = RR.tsv
ℓmax = ℓmax.bin
f21 = f21.bin
kmin = 1.0e-5
kmax = 100000.0
dlrec    = 4
dlrecRg1 = -4
Output size: 5741568 bytes = 0.005347251892089844 GiB
Output size: 51264 bytes = 4.774332046508789e-5 GiB
Reading 'out/F21EllCache'...   0.001078 seconds (267 allocations: 84.656 KiB)
ellmax: 1202
lmaxcache: 1202
fell[:,1,1] = Complex{Float64}[7.519068145690986e-120 - 1.8416405474382574e-135im, 7.541664537386155e-120 - 1.847175067190611e-135im]
ell 1202, elapsed: 0.00017499923706054688
ell 1201, elapsed: 0.0006251335144042969
ell 1200, elapsed: 0.0005841255187988281
ell 1199, elapsed: 0.0005779266357421875
ell 1198, elapsed: 0.0005741119384765625
ell 1002, elapsed: 0.009894847869873047
ell 1001, elapsed: 0.0005548000335693359
ell 1000, elapsed: 0.0005321502685546875
ell 999, elapsed: 0.0005440711975097656
ell 998, elapsed: 0.0005209445953369141
ell 902, elapsed: 0.00550389289855957
ell 901, elapsed: 0.0005710124969482422
ell 900, elapsed: 0.0005419254302978516
ell 899, elapsed: 0.0005390644073486328
ell 898, elapsed: 0.0003650188446044922
ell 802, elapsed: 0.005357980728149414
ell 801, elapsed: 0.00037384033203125
ell 800, elapsed: 0.0003490447998046875
ell 799, elapsed: 0.0003600120544433594
ell 798, elapsed: 0.00047707557678222656
ell 702, elapsed: 0.0053060054779052734
ell 701, elapsed: 0.0006518363952636719
ell 700, elapsed: 0.0003600120544433594
ell 699, elapsed: 0.0004138946533203125
ell 698, elapsed: 0.00041794776916503906
ell 602, elapsed: 0.004897117614746094
ell 601, elapsed: 0.0003809928894042969
ell 600, elapsed: 0.00035691261291503906
ell 599, elapsed: 0.00036978721618652344
ell 598, elapsed: 0.0004799365997314453
ell 502, elapsed: 0.004850864410400391
ell 501, elapsed: 0.0003838539123535156
ell 500, elapsed: 0.0003559589385986328
ell 499, elapsed: 0.0003509521484375
ell 498, elapsed: 0.00035309791564941406
ell 402, elapsed: 0.005146980285644531
ell 401, elapsed: 0.00038695335388183594
ell 400, elapsed: 0.0003578662872314453
ell 399, elapsed: 0.0003561973571777344
ell 398, elapsed: 0.00035190582275390625
ell 302, elapsed: 0.005038022994995117
ell 301, elapsed: 0.0003790855407714844
ell 300, elapsed: 0.0003559589385986328
ell 299, elapsed: 0.00048089027404785156
ell 298, elapsed: 0.00034999847412109375
ell 202, elapsed: 0.0053098201751708984
ell 201, elapsed: 0.00037097930908203125
ell 200, elapsed: 0.00035309791564941406
ell 199, elapsed: 0.0003571510314941406
ell 198, elapsed: 0.0003440380096435547
ell 152, elapsed: 0.0028231143951416016
ell 151, elapsed: 0.0003821849822998047
ell 150, elapsed: 0.0003609657287597656
ell 149, elapsed: 0.0003521442413330078
ell 148, elapsed: 0.00035500526428222656
ell 127, elapsed: 0.001753091812133789
ell 126, elapsed: 0.0003571510314941406
ell 125, elapsed: 0.0003619194030761719
ell 124, elapsed: 0.0003478527069091797
ell 123, elapsed: 0.00034689903259277344
ell 114, elapsed: 0.0009291172027587891
ell 113, elapsed: 0.00035500526428222656
ell 112, elapsed: 0.0003540515899658203
ell 111, elapsed: 0.00034689903259277344
ell 110, elapsed: 0.00034999847412109375
ell 102, elapsed: 0.0008699893951416016
ell 101, elapsed: 0.00034999847412109375
ell 100, elapsed: 0.0003559589385986328
ell 99, elapsed: 0.0004169940948486328
ell 98, elapsed: 0.0006661415100097656
ell 97, elapsed: 0.0004019737243652344
ell 96, elapsed: 0.0004911422729492188
ell 95, elapsed: 0.0003941059112548828
ell 94, elapsed: 0.0004839897155761719
ell 93, elapsed: 0.00038814544677734375
ell 92, elapsed: 0.00047898292541503906
ell 91, elapsed: 0.0003829002380371094
ell 90, elapsed: 0.0006058216094970703
ell 89, elapsed: 0.0003829002380371094
ell 88, elapsed: 0.0004780292510986328
ell 87, elapsed: 0.00039196014404296875
ell 86, elapsed: 0.00047397613525390625
ell 85, elapsed: 0.0003898143768310547
ell 84, elapsed: 0.00047898292541503906
ell 83, elapsed: 0.00039196014404296875
ell 82, elapsed: 0.0006051063537597656
ell 81, elapsed: 0.0003859996795654297
ell 80, elapsed: 0.00047397613525390625
ell 79, elapsed: 0.0003960132598876953
ell 78, elapsed: 0.00047016143798828125
ell 77, elapsed: 0.000392913818359375
ell 76, elapsed: 0.00047278404235839844
ell 75, elapsed: 0.0003859996795654297
ell 74, elapsed: 0.00047397613525390625
ell 73, elapsed: 0.000392913818359375
ell 72, elapsed: 0.0004761219024658203
ell 71, elapsed: 0.0003921985626220703
ell 70, elapsed: 0.00047588348388671875
ell 69, elapsed: 0.0003981590270996094
ell 68, elapsed: 0.00046896934509277344
ell 67, elapsed: 0.0003840923309326172
ell 66, elapsed: 0.000476837158203125
ell 65, elapsed: 0.0005118846893310547
ell 64, elapsed: 0.0004811286926269531
ell 63, elapsed: 0.00038695335388183594
ell 62, elapsed: 0.0004780292510986328
ell 61, elapsed: 0.00039315223693847656
ell 60, elapsed: 0.0004799365997314453
ell 59, elapsed: 0.00038504600524902344
ell 58, elapsed: 0.0004851818084716797
ell 57, elapsed: 0.0005190372467041016
ell 56, elapsed: 0.0004839897155761719
ell 55, elapsed: 0.00038313865661621094
ell 54, elapsed: 0.0004658699035644531
ell 53, elapsed: 0.00039005279541015625
ell 52, elapsed: 0.0004780292510986328
ell 51, elapsed: 0.000392913818359375
ell 50, elapsed: 0.0004711151123046875
ell 49, elapsed: 0.0003859996795654297
ell 48, elapsed: 0.0006890296936035156
ell 47, elapsed: 0.00039505958557128906
ell 46, elapsed: 0.0004780292510986328
ell 45, elapsed: 0.0003960132598876953
ell 44, elapsed: 0.0004749298095703125
ell 43, elapsed: 0.00039196014404296875
ell 42, elapsed: 0.0004711151123046875
ell 41, elapsed: 0.0003910064697265625
ell 40, elapsed: 0.00067901611328125
ell 39, elapsed: 0.0003948211669921875
ell 38, elapsed: 0.0004830360412597656
ell 37, elapsed: 0.00039696693420410156
ell 36, elapsed: 0.0004780292510986328
ell 35, elapsed: 0.0003910064697265625
ell 34, elapsed: 0.00047707557678222656
ell 33, elapsed: 0.00038504600524902344
ell 32, elapsed: 0.0006010532379150391
ell 31, elapsed: 0.00038909912109375
ell 30, elapsed: 0.00047206878662109375
ell 29, elapsed: 0.00038504600524902344
ell 28, elapsed: 0.00047087669372558594
ell 27, elapsed: 0.00039887428283691406
ell 26, elapsed: 0.0004749298095703125
ell 25, elapsed: 0.00038886070251464844
ell 24, elapsed: 0.0006701946258544922
ell 23, elapsed: 0.00038909912109375
ell 22, elapsed: 0.00047779083251953125
ell 21, elapsed: 0.0003879070281982422
ell 20, elapsed: 0.00046706199645996094
ell 19, elapsed: 0.00039315223693847656
[...]
ell 782, elapsed: 0.0014920234680175781
ell 781, elapsed: 0.0007669925689697266
ell 780, elapsed: 0.0007710456848144531
ell 779, elapsed: 0.0007789134979248047
ell 778, elapsed: 0.0008020401000976562
ell 772, elapsed: 0.001631021499633789
ell 771, elapsed: 0.0007519721984863281
ell 770, elapsed: 0.0008139610290527344
ell 769, elapsed: 0.0008192062377929688
ell 768, elapsed: 0.0022940635681152344
ell 762, elapsed: 0.0014731884002685547
ell 761, elapsed: 0.0008151531219482422
ell 760, elapsed: 0.0008041858673095703
ell 759, elapsed: 0.0007779598236083984
ell 758, elapsed: 0.0007908344268798828
ell 752, elapsed: 0.0015189647674560547
ell 751, elapsed: 0.0007929801940917969
ell 750, elapsed: 0.0007979869842529297
ell 749, elapsed: 0.0008029937744140625
ell 748, elapsed: 0.0008018016815185547
ell 742, elapsed: 0.0015170574188232422
ell 741, elapsed: 0.0008301734924316406
ell 740, elapsed: 0.0008060932159423828
ell 739, elapsed: 0.0008220672607421875
ell 738, elapsed: 0.0008170604705810547
ell 732, elapsed: 0.00150299072265625
ell 731, elapsed: 0.0008130073547363281
ell 730, elapsed: 0.0008769035339355469
ell 729, elapsed: 0.0008108615875244141
ell 728, elapsed: 0.0008089542388916016
ell 722, elapsed: 0.0015590190887451172
ell 721, elapsed: 0.0008871555328369141
ell 720, elapsed: 0.0008189678192138672
ell 719, elapsed: 0.0008089542388916016
ell 718, elapsed: 0.0008230209350585938
ell 712, elapsed: 0.00156402587890625
ell 711, elapsed: 0.0008158683776855469
ell 710, elapsed: 0.0008161067962646484
ell 709, elapsed: 0.0008089542388916016
ell 708, elapsed: 0.0008149147033691406
ell 702, elapsed: 0.0015552043914794922
ell 701, elapsed: 0.0008120536804199219
ell 700, elapsed: 0.0008180141448974609
ell 699, elapsed: 0.0008139610290527344
ell 698, elapsed: 0.0008280277252197266
ell 692, elapsed: 0.0015392303466796875
ell 691, elapsed: 0.0008199214935302734
ell 690, elapsed: 0.0008301734924316406
ell 689, elapsed: 0.0008139610290527344
ell 688, elapsed: 0.0008141994476318359
ell 682, elapsed: 0.0015709400177001953
ell 681, elapsed: 0.0008320808410644531
ell 680, elapsed: 0.0008208751678466797
ell 679, elapsed: 0.0008108615875244141
ell 678, elapsed: 0.000823974609375
ell 672, elapsed: 0.0015752315521240234
ell 671, elapsed: 0.0008080005645751953
ell 670, elapsed: 0.0008089542388916016
ell 669, elapsed: 0.0008161067962646484
ell 668, elapsed: 0.0008089542388916016
ell 662, elapsed: 0.0016260147094726562
ell 661, elapsed: 0.0008101463317871094
ell 660, elapsed: 0.0008130073547363281
ell 659, elapsed: 0.0008070468902587891
ell 658, elapsed: 0.0009090900421142578
ell 652, elapsed: 0.0015439987182617188
ell 651, elapsed: 0.0008120536804199219
ell 650, elapsed: 0.0009069442749023438
ell 649, elapsed: 0.0008091926574707031
ell 648, elapsed: 0.0008101463317871094
ell 642, elapsed: 0.0015289783477783203
ell 641, elapsed: 0.0010221004486083984
ell 640, elapsed: 0.0007791519165039062
ell 639, elapsed: 0.0007941722869873047
ell 638, elapsed: 0.0008189678192138672
ell 632, elapsed: 0.0016789436340332031
ell 631, elapsed: 0.0008099079132080078
ell 630, elapsed: 0.0008130073547363281
ell 629, elapsed: 0.0007760524749755859
ell 628, elapsed: 0.0007951259613037109
ell 622, elapsed: 0.0015959739685058594
ell 621, elapsed: 0.0008070468902587891
ell 620, elapsed: 0.0008029937744140625
ell 619, elapsed: 0.0008251667022705078
ell 618, elapsed: 0.0008540153503417969
ell 612, elapsed: 0.0015590190887451172
ell 611, elapsed: 0.0008058547973632812
ell 610, elapsed: 0.0008299350738525391
ell 609, elapsed: 0.0008018016815185547
ell 608, elapsed: 0.0008099079132080078
ell 602, elapsed: 0.001542806625366211
ell 601, elapsed: 0.0008258819580078125
ell 600, elapsed: 0.0008130073547363281
ell 599, elapsed: 0.0008070468902587891
ell 598, elapsed: 0.0008130073547363281
ell 592, elapsed: 0.0016498565673828125
ell 591, elapsed: 0.000820159912109375
ell 590, elapsed: 0.0008220672607421875
ell 589, elapsed: 0.0008127689361572266
ell 588, elapsed: 0.0008199214935302734
ell 582, elapsed: 0.0015501976013183594
ell 581, elapsed: 0.0008070468902587891
ell 580, elapsed: 0.0008130073547363281
ell 579, elapsed: 0.0008208751678466797
ell 578, elapsed: 0.0008230209350585938
ell 572, elapsed: 0.0015590190887451172
ell 571, elapsed: 0.0008161067962646484
ell 570, elapsed: 0.0008687973022460938
ell 569, elapsed: 0.0008151531219482422
ell 568, elapsed: 0.0008151531219482422
ell 562, elapsed: 0.0015609264373779297
ell 561, elapsed: 0.0009031295776367188
ell 560, elapsed: 0.0008139610290527344
ell 559, elapsed: 0.0008099079132080078
ell 558, elapsed: 0.0008130073547363281
ell 552, elapsed: 0.001653909683227539
ell 551, elapsed: 0.0008199214935302734
ell 550, elapsed: 0.0008170604705810547
ell 549, elapsed: 0.0008020401000976562
ell 548, elapsed: 0.0009009838104248047
ell 542, elapsed: 0.0015180110931396484
ell 541, elapsed: 0.0008070468902587891
ell 540, elapsed: 0.0008130073547363281
ell 539, elapsed: 0.0008890628814697266
ell 538, elapsed: 0.0008051395416259766
ell 532, elapsed: 0.0015289783477783203
ell 531, elapsed: 0.0008029937744140625
ell 530, elapsed: 0.0008859634399414062
ell 529, elapsed: 0.0008070468902587891
ell 528, elapsed: 0.0008111000061035156
ell 522, elapsed: 0.0015211105346679688
ell 521, elapsed: 0.0009899139404296875
ell 520, elapsed: 0.0008120536804199219
ell 519, elapsed: 0.0008101463317871094
ell 518, elapsed: 0.0008089542388916016
ell 512, elapsed: 0.0018630027770996094
ell 511, elapsed: 0.0008139610290527344
ell 510, elapsed: 0.0008320808410644531
ell 509, elapsed: 0.00074005126953125
ell 508, elapsed: 0.0008189678192138672
ell 502, elapsed: 0.0017299652099609375
ell 501, elapsed: 0.0008299350738525391
ell 500, elapsed: 0.0008149147033691406
ell 499, elapsed: 0.0009119510650634766
ell 498, elapsed: 0.0008320808410644531
ell 492, elapsed: 0.0015628337860107422
ell 491, elapsed: 0.0009069442749023438
ell 490, elapsed: 0.0008220672607421875
ell 489, elapsed: 0.0008170604705810547
ell 488, elapsed: 0.0008251667022705078
ell 482, elapsed: 0.0016720294952392578
ell 481, elapsed: 0.000820159912109375
ell 480, elapsed: 0.0008220672607421875
ell 479, elapsed: 0.0008170604705810547
ell 478, elapsed: 0.000823974609375
ell 472, elapsed: 0.0016760826110839844
ell 471, elapsed: 0.0008192062377929688
ell 470, elapsed: 0.0008211135864257812
ell 469, elapsed: 0.000926971435546875
ell 468, elapsed: 0.0008230209350585938
ell 462, elapsed: 0.001596212387084961
ell 461, elapsed: 0.0008029937744140625
ell 460, elapsed: 0.0009138584136962891
ell 459, elapsed: 0.0008161067962646484
ell 458, elapsed: 0.0008041858673095703
ell 452, elapsed: 0.0014870166778564453
ell 451, elapsed: 0.0008900165557861328
ell 450, elapsed: 0.0008370876312255859
ell 449, elapsed: 0.0008080005645751953
ell 448, elapsed: 0.0008060932159423828
ell 442, elapsed: 0.001661062240600586
ell 441, elapsed: 0.0008089542388916016
ell 440, elapsed: 0.0008130073547363281
ell 439, elapsed: 0.0008139610290527344
ell 438, elapsed: 0.0009131431579589844
ell 432, elapsed: 0.001583099365234375
ell 431, elapsed: 0.0008080005645751953
ell 430, elapsed: 0.0008170604705810547
ell 429, elapsed: 0.0008940696716308594
ell 428, elapsed: 0.0008130073547363281
ell 422, elapsed: 0.0015900135040283203
ell 421, elapsed: 0.0008211135864257812
ell 420, elapsed: 0.0009090900421142578
ell 419, elapsed: 0.0008180141448974609
ell 418, elapsed: 0.0008168220520019531
ell 412, elapsed: 0.001650094985961914
ell 411, elapsed: 0.0008189678192138672
ell 410, elapsed: 0.0008158683776855469
ell 409, elapsed: 0.0008149147033691406
ell 408, elapsed: 0.0008149147033691406
ell 402, elapsed: 0.0016751289367675781
ell 401, elapsed: 0.0008149147033691406
ell 400, elapsed: 0.0008120536804199219
ell 399, elapsed: 0.0008130073547363281
ell 398, elapsed: 0.0009069442749023438
ell 392, elapsed: 0.0015587806701660156
ell 391, elapsed: 0.0008039474487304688
ell 390, elapsed: 0.0008919239044189453
ell 389, elapsed: 0.0008089542388916016
ell 388, elapsed: 0.0008051395416259766
ell 382, elapsed: 0.0015540122985839844
ell 381, elapsed: 0.0009138584136962891
ell 380, elapsed: 0.0008192062377929688
ell 379, elapsed: 0.0008242130279541016
ell 378, elapsed: 0.0008230209350585938
ell 372, elapsed: 0.001767873764038086
ell 371, elapsed: 0.0008168220520019531
ell 370, elapsed: 0.0008111000061035156
ell 369, elapsed: 0.0008130073547363281
ell 368, elapsed: 0.0009050369262695312
ell 362, elapsed: 0.0015711784362792969
ell 361, elapsed: 0.0008051395416259766
ell 360, elapsed: 0.0008139610290527344
ell 359, elapsed: 0.0008969306945800781
ell 358, elapsed: 0.0008120536804199219
ell 352, elapsed: 0.0015709400177001953
ell 351, elapsed: 0.0008149147033691406
ell 350, elapsed: 0.0009088516235351562
ell 349, elapsed: 0.0008139610290527344
ell 348, elapsed: 0.0008161067962646484
ell 342, elapsed: 0.0015931129455566406
ell 341, elapsed: 0.0008928775787353516
ell 340, elapsed: 0.0008199214935302734
ell 339, elapsed: 0.0008141994476318359
ell 338, elapsed: 0.0008161067962646484
ell 332, elapsed: 0.0016498565673828125
ell 331, elapsed: 0.0008170604705810547
ell 330, elapsed: 0.0008151531219482422
ell 329, elapsed: 0.0008158683776855469
ell 328, elapsed: 0.0009281635284423828
ell 322, elapsed: 0.0015938282012939453
ell 321, elapsed: 0.0008208751678466797
ell 320, elapsed: 0.0008058547973632812
ell 319, elapsed: 0.000885009765625
ell 318, elapsed: 0.0008180141448974609
ell 312, elapsed: 0.0015649795532226562
ell 311, elapsed: 0.0008370876312255859
ell 310, elapsed: 0.0008099079132080078
ell 309, elapsed: 0.0008170604705810547
ell 308, elapsed: 0.0008120536804199219
ell 302, elapsed: 0.0015759468078613281
ell 301, elapsed: 0.0008220672607421875
ell 300, elapsed: 0.0008099079132080078
ell 299, elapsed: 0.0008168220520019531
ell 298, elapsed: 0.0008149147033691406
ell 292, elapsed: 0.0016160011291503906
ell 291, elapsed: 0.0008168220520019531
ell 290, elapsed: 0.0008099079132080078
ell 289, elapsed: 0.0008111000061035156
ell 288, elapsed: 0.0008461475372314453
ell 282, elapsed: 0.0015969276428222656
ell 281, elapsed: 0.0008099079132080078
ell 280, elapsed: 0.0008280277252197266
ell 279, elapsed: 0.0008192062377929688
ell 278, elapsed: 0.0008120536804199219
ell 272, elapsed: 0.0015819072723388672
ell 271, elapsed: 0.0008280277252197266
ell 270, elapsed: 0.0008099079132080078
ell 269, elapsed: 0.0008080005645751953
ell 268, elapsed: 0.0008130073547363281
ell 262, elapsed: 0.001603841781616211
ell 261, elapsed: 0.0008170604705810547
ell 260, elapsed: 0.0008151531219482422
ell 259, elapsed: 0.0008039474487304688
ell 258, elapsed: 0.0008299350738525391
ell 252, elapsed: 0.0015311241149902344
ell 251, elapsed: 0.0008139610290527344
ell 250, elapsed: 0.0008139610290527344
ell 249, elapsed: 0.0007989406585693359
ell 248, elapsed: 0.0008509159088134766
ell 242, elapsed: 0.0015108585357666016
ell 241, elapsed: 0.0007679462432861328
ell 240, elapsed: 0.0007829666137695312
ell 239, elapsed: 0.0007669925689697266
ell 238, elapsed: 0.0007660388946533203
ell 232, elapsed: 0.001383066177368164
ell 231, elapsed: 0.0008070468902587891
ell 230, elapsed: 0.0008308887481689453
ell 229, elapsed: 0.0007848739624023438
ell 228, elapsed: 0.0007970333099365234
ell 222, elapsed: 0.0015158653259277344
ell 221, elapsed: 0.0008289813995361328
ell 220, elapsed: 0.0008080005645751953
ell 219, elapsed: 0.0008130073547363281
ell 218, elapsed: 0.0008170604705810547
ell 212, elapsed: 0.0016410350799560547
ell 211, elapsed: 0.0008099079132080078
ell 210, elapsed: 0.0008130073547363281
ell 209, elapsed: 0.0008070468902587891
ell 208, elapsed: 0.0009059906005859375
ell 202, elapsed: 0.0015680789947509766
ell 201, elapsed: 0.0008099079132080078
ell 200, elapsed: 0.0008089542388916016
ell 199, elapsed: 0.0008809566497802734
ell 198, elapsed: 0.0008120536804199219
ell 192, elapsed: 0.0015540122985839844
ell 191, elapsed: 0.0008130073547363281
ell 190, elapsed: 0.0008718967437744141
ell 189, elapsed: 0.0008141994476318359
ell 188, elapsed: 0.0008139610290527344
ell 182, elapsed: 0.0015778541564941406
ell 181, elapsed: 0.0008411407470703125
ell 180, elapsed: 0.0008208751678466797
ell 179, elapsed: 0.0008149147033691406
ell 178, elapsed: 0.0008149147033691406
ell 172, elapsed: 0.0016169548034667969
ell 171, elapsed: 0.0008161067962646484
ell 170, elapsed: 0.0008130073547363281
ell 169, elapsed: 0.0008108615875244141
ell 168, elapsed: 0.0009119510650634766
ell 162, elapsed: 0.0015659332275390625
ell 161, elapsed: 0.0008111000061035156
ell 160, elapsed: 0.0008130073547363281
ell 159, elapsed: 0.0008978843688964844
ell 158, elapsed: 0.0008080005645751953
ell 152, elapsed: 0.001550912857055664
ell 151, elapsed: 0.0008080005645751953
ell 150, elapsed: 0.0008919239044189453
ell 149, elapsed: 0.0008058547973632812
ell 148, elapsed: 0.0008130073547363281
ell 142, elapsed: 0.0016481876373291016
ell 141, elapsed: 0.0008170604705810547
ell 140, elapsed: 0.0008130073547363281
ell 139, elapsed: 0.0008118152618408203
ell 138, elapsed: 0.0008120536804199219
ell 132, elapsed: 0.0018780231475830078
ell 131, elapsed: 0.0008261203765869141
ell 130, elapsed: 0.0008208751678466797
ell 129, elapsed: 0.00109100341796875
ell 128, elapsed: 0.0008211135864257812
ell 122, elapsed: 0.0015709400177001953
ell 121, elapsed: 0.0008220672607421875
ell 120, elapsed: 0.0009210109710693359
ell 119, elapsed: 0.0008108615875244141
ell 118, elapsed: 0.0008099079132080078
ell 112, elapsed: 0.0015671253204345703
ell 111, elapsed: 0.0009000301361083984
ell 110, elapsed: 0.0008099079132080078
ell 109, elapsed: 0.0008170604705810547
ell 108, elapsed: 0.0008149147033691406
ell 102, elapsed: 0.0016620159149169922
ell 101, elapsed: 0.003253936767578125
ell 100, elapsed: 0.0031540393829345703
ell 99, elapsed: 0.003256082534790039
ell 98, elapsed: 0.003242969512939453
ell 92, elapsed: 0.005919933319091797
ell 91, elapsed: 0.0031490325927734375
ell 90, elapsed: 0.003217935562133789
ell 89, elapsed: 0.0034580230712890625
ell 88, elapsed: 0.003201007843017578
ell 82, elapsed: 0.005905866622924805
ell 81, elapsed: 0.0034618377685546875
ell 80, elapsed: 0.003484010696411133
ell 79, elapsed: 0.003206968307495117
ell 78, elapsed: 0.004021883010864258
ell 72, elapsed: 0.00580286979675293
ell 71, elapsed: 0.0031828880310058594
ell 70, elapsed: 0.0032129287719726562
ell 69, elapsed: 0.0032160282135009766
ell 68, elapsed: 0.003226041793823242
ell 62, elapsed: 0.005848884582519531
ell 61, elapsed: 0.003165006637573242
ell 60, elapsed: 0.0032129287719726562
ell 59, elapsed: 0.0032198429107666016
ell 58, elapsed: 0.003181934356689453
ell 52, elapsed: 0.0062639713287353516
ell 51, elapsed: 0.003261089324951172
ell 50, elapsed: 0.003289937973022461
ell 49, elapsed: 0.003181934356689453
ell 48, elapsed: 0.003353118896484375
ell 42, elapsed: 0.0059051513671875
ell 41, elapsed: 0.003233194351196289
ell 40, elapsed: 0.0031921863555908203
ell 39, elapsed: 0.0033500194549560547
ell 38, elapsed: 0.0032210350036621094
ell 32, elapsed: 0.005956888198852539
ell 31, elapsed: 0.003162860870361328
ell 30, elapsed: 0.0033740997314453125
ell 29, elapsed: 0.0033409595489501953
ell 28, elapsed: 0.0032579898834228516
ell 22, elapsed: 0.005978822708129883
ell 21, elapsed: 0.0031647682189941406
ell 20, elapsed: 0.003429889678955078
ell 19, elapsed: 0.0033779144287109375
ell 18, elapsed: 0.003287076950073242
ell 12, elapsed: 0.006023883819580078
ell 11, elapsed: 0.003194093704223633
ell 10, elapsed: 0.0032510757446289062
ell 9, elapsed: 0.003454923629760742
ell 8, elapsed: 0.0034999847412109375
  0.747754 seconds (66.75 k allocations: 12.139 MiB)
elapsed: 0.004231929779052734
step:          0.06751 sec (0 allocations: 0 byte, 0.0% gc time)
swapping:      0.000723 sec (0 allocations: 0 byte, 0.0% gc time)
calc_Mellell!: 0.039016 sec (0 allocations: 0 byte, 0.0% gc time)
  t0 :  0.011239 sec (0 allocations: 0 byte, 0.0% gc time)
  tm2 : 0.072531 sec (0 allocations: 0 byte, 0.0% gc time)
  tm2s: 0.008397 sec (0 allocations: 0 byte, 0.0% gc time)
  tm4 : 0.182707 sec (0 allocations: 0 byte, 0.0% gc time)
  tp2 : 0.0 sec (0 allocations: 0 byte, 0.0% gc time)
  tp2s: 0.0 sec (0 allocations: 0 byte, 0.0% gc time)
  tp4 : 0.0 sec (0 allocations: 0 byte, 0.0% gc time)
calc_wtdll!:   0.531362 sec (49.2 k allocations: 11.133 MB, 0.0% gc time)
calc_wljj!:    0.038899 sec (69 allocations: 1.078 KB, 0.0% gc time)
mult_prefac!:  0.0 sec (0 allocations: 0 byte, 0.0% gc time)
convert:       0.0 sec (0 allocations: 0 byte, 0.0% gc time)
write:         0.03454 sec (0 allocations: 0 byte, 0.0% gc time)
test_rand_2f1: 0.0 sec (0 allocations: 0 byte, 0.0% gc time)
Closing outfile out/MlCache/MlCache.bin...   0.000008 seconds
xi, l=0, nu=0:   0.392657 seconds (551.85 k allocations: 26.842 MiB, 3.42% gc time)
xi, l=0, nu=-2:  0.002365 seconds (144 allocations: 149.562 KiB)
Created 'out/xi.tsv'.
  q=1.1, R=0.6:	  0.775075 seconds (291.08 k allocations: 38.895 MiB, 1.63% gc time)
  q=1.1, R=0.7:	  0.857999 seconds (304.75 k allocations: 40.996 MiB, 1.26% gc time)
  q=1.1, R=0.8:	  0.964716 seconds (299.14 k allocations: 40.132 MiB, 0.78% gc time)
  q=1.1, R=0.9:	  1.054564 seconds (293.57 k allocations: 39.286 MiB, 0.73% gc time)
  q=1.1, R=0.998:	 22.538752 seconds (10.67 M allocations: 823.453 MiB, 0.28% gc time)
  q=1.1, R=1.0:	  0.004304 seconds (10.24 k allocations: 768.375 KiB)

ℓ = 1000
Δℓ = 4
ΔℓRg1 = -4
N = 4096
q = 1.1
kmin = 1.0e-5
kmax = 1000.0
χ0 = 0.001
RR = RR.tsv
ℓmax = ℓmax.bin
f21 = f21.bin
kmin = 1.0e-5
kmax = 1000.0
dlrec    = 4
dlrecRg1 = -4
Output size: 1573632 bytes = 0.0014655590057373047 GiB
Output size: 786816 bytes = 0.0007327795028686523 GiB
Reading 'out/F21EllCache'...   0.001519 seconds (268 allocations: 533.531 KiB)
ellmax: 1002
lmaxcache: 1000
fell[:,1,1] = Complex{Float64}[1.7262928128202118e-224 - 4.2281979352226944e-240im, 1.7282693092099662e-224 - 4.233038955177176e-240im]
ell 1002, elapsed: 2.002716064453125e-5
ell 1001, elapsed: 0.001361846923828125
ell 1000, elapsed: 0.0013170242309570312
ell 999, elapsed: 0.005950927734375
ell 998, elapsed: 0.005702018737792969
ell 44, elapsed: 0.6546211242675781
ell 43, elapsed: 0.00572514533996582
ell 42, elapsed: 0.0055370330810546875
ell 41, elapsed: 0.005506038665771484
ell 40, elapsed: 0.0055501461029052734
  0.698303 seconds (4.55 k allocations: 320.359 KiB)
elapsed: 0.006869077682495117
step:          0.6516 sec (0 allocations: 0 byte, 0.0% gc time)
swapping:      0.000468 sec (0 allocations: 0 byte, 0.0% gc time)
calc_Mellell!: 0.001416 sec (0 allocations: 0 byte, 0.0% gc time)
  t0 :  0.000828 sec (0 allocations: 0 byte, 0.0% gc time)
  tm2 : 0.009806 sec (0 allocations: 0 byte, 0.0% gc time)
  tm2s: 0.000703 sec (0 allocations: 0 byte, 0.0% gc time)
  tm4 : 0.027972 sec (0 allocations: 0 byte, 0.0% gc time)
  tp2 : 0.0 sec (0 allocations: 0 byte, 0.0% gc time)
  tp2s: 0.0 sec (0 allocations: 0 byte, 0.0% gc time)
  tp4 : 0.0 sec (0 allocations: 0 byte, 0.0% gc time)
calc_wtdll!:   0.039515 sec (480 allocations: 52.5 KB, 0.0% gc time)
calc_wljj!:    0.001466 sec (1 allocations: 16 byte, 0.0% gc time)
mult_prefac!:  0.0 sec (0 allocations: 0 byte, 0.0% gc time)
convert:       0.0 sec (0 allocations: 0 byte, 0.0% gc time)
write:         0.001023 sec (0 allocations: 0 byte, 0.0% gc time)
test_rand_2f1: 0.0 sec (0 allocations: 0 byte, 0.0% gc time)
Closing outfile out/MlCache/MlCache.bin...   0.000996 seconds
  0.621149 seconds (54 allocations: 67.203 KiB)
make_phi():   0.011303 seconds (80 allocations: 276.297 KiB)
  0.004632 seconds (108 allocations: 5.812 KiB)
tskip:       1.0e-6 sec (0 allocations: 0 byte, 0.0% gc time)
tread:       0.000821 sec (19 allocations: 1.312 KB, 0.0% gc time)
tmultphi:    0.000507 sec (0 allocations: 0 byte, 0.0% gc time)
tbrfft:      0.001646 sec (96 allocations: 4.5 KB, 0.0% gc time)
tmultprefac: 0.001505 sec (0 allocations: 0 byte, 0.0% gc time)
toutfunc:    0.000285 sec (0 allocations: 0 byte, 0.0% gc time)
Created 'out/wl42_jj00.tsv'.
Created 'out/wl42_jj02.tsv'.
   Testing TwoFAST tests passed 
