Julia Version 1.4.0-DEV.564
Commit 1d8d9c1793 (2019-12-06 23:22 UTC)
Platform Info:
  OS: Linux (x86_64-linux-gnu)
  CPU: Intel(R) Xeon(R) Silver 4114 CPU @ 2.20GHz
  WORD_SIZE: 64
  LIBM: libopenlibm
  LLVM: libLLVM-8.0.1 (ORCJIT, skylake)

   Cloning default registries into `~/.julia`
   Cloning registry from "https://github.com/JuliaRegistries/General.git"
[?25l    Fetching: [>                                        ]  0.0 %    Fetching: [=============>                           ]  30.4 %    Fetching: [===========================>             ]  65.7 %[2K[?25h     Added registry `General` to `~/.julia/registries/General`
 Resolving package versions...
 Installed Conda ──────────── v1.3.0
 Installed Parsers ────────── v0.3.10
 Installed FFTW ───────────── v1.1.0
 Installed SpecialFunctions ─ v0.8.0
 Installed BinaryProvider ─── v0.5.8
 Installed AbstractAlgebra ── v0.7.1
 Installed TwoFAST ────────── v0.1.0
 Installed Nemo ───────────── v0.15.1
 Installed Reexport ───────── v0.2.0
 Installed IncGammaBeta ───── v0.1.0
 Installed VersionParsing ─── v1.1.3
 Installed JSON ───────────── v0.21.0
 Installed URIParser ──────── v0.4.0
 Installed Compat ─────────── v2.2.0
 Installed AbstractFFTs ───── v0.5.0
 Installed BinDeps ────────── v1.0.0
  Updating `~/.julia/environments/v1.4/Project.toml`
  [0dd23c3e] + TwoFAST v0.1.0
  Updating `~/.julia/environments/v1.4/Manifest.toml`
  [c3fe647b] + AbstractAlgebra v0.7.1
  [621f4979] + AbstractFFTs v0.5.0
  [9e28174c] + BinDeps v1.0.0
  [b99e7846] + BinaryProvider v0.5.8
  [34da2185] + Compat v2.2.0
  [8f4d0f93] + Conda v1.3.0
  [7a1cc6ca] + FFTW v1.1.0
  [5087d2c0] + IncGammaBeta v0.1.0
  [682c06a0] + JSON v0.21.0
  [2edaba10] + Nemo v0.15.1
  [69de0a69] + Parsers v0.3.10
  [189a3867] + Reexport v0.2.0
  [276daf66] + SpecialFunctions v0.8.0
  [0dd23c3e] + TwoFAST v0.1.0
  [30578b45] + URIParser v0.4.0
  [81def892] + VersionParsing v1.1.3
  [2a0f44e3] + Base64 
  [ade2ca70] + Dates 
  [8bb1440f] + DelimitedFiles 
  [8ba89e20] + Distributed 
  [b77e0a4c] + InteractiveUtils 
  [76f85450] + LibGit2 
  [8f399da3] + Libdl 
  [37e2e46d] + LinearAlgebra 
  [56ddb016] + Logging 
  [d6f4376e] + Markdown 
  [a63ad114] + Mmap 
  [44cfe95a] + Pkg 
  [de0858da] + Printf 
  [3fa0cd96] + REPL 
  [9a3f8284] + Random 
  [ea8e919c] + SHA 
  [9e88b42a] + Serialization 
  [1a1011a3] + SharedArrays 
  [6462fe0b] + Sockets 
  [2f01184e] + SparseArrays 
  [10745b16] + Statistics 
  [8dfed614] + Test 
  [cf7118a7] + UUIDs 
  [4ec0a83e] + Unicode 
  Building SpecialFunctions → `~/.julia/packages/SpecialFunctions/ne2iw/deps/build.log`
  Building Nemo ────────────→ `~/.julia/packages/Nemo/qzx0m/deps/build.log`
  Building Conda ───────────→ `~/.julia/packages/Conda/kLXeC/deps/build.log`
  Building FFTW ────────────→ `~/.julia/packages/FFTW/loJ3F/deps/build.log`
   Testing TwoFAST
 Resolving package versions...

gzip: stdin: not in gzip format
tar: Child returned status 1
tar: Error is not recoverable: exiting now
┌ Warning: failed to extract archive downloaded from https://github.com/kbarbary/Dierckx.jl.git
└ @ Pkg.Operations /workspace/srcdir/julia/usr/share/julia/stdlib/v1.4/Pkg/src/Operations.jl:481
   Cloning [39dd38d3-220a-591b-8e3c-4c3a8c710a94] Dierckx from https://github.com/kbarbary/Dierckx.jl.git
[?25l    Fetching: [>                                        ]  0.0 %[2K[?25h Installed Dierckx ─ v0.4.1
  Building Dierckx → `~/.julia/packages/Dierckx/9SY4A/deps/build.log`
Status `/tmp/jl_eJOuwh/Manifest.toml`
  [c3fe647b] AbstractAlgebra v0.7.1
  [621f4979] AbstractFFTs v0.5.0
  [9e28174c] BinDeps v1.0.0
  [b99e7846] BinaryProvider v0.5.8
  [34da2185] Compat v2.2.0
  [8f4d0f93] Conda v1.3.0
  [39dd38d3] Dierckx v0.4.1
  [7a1cc6ca] FFTW v1.1.0
  [5087d2c0] IncGammaBeta v0.1.0
  [682c06a0] JSON v0.21.0
  [2edaba10] Nemo v0.15.1
  [69de0a69] Parsers v0.3.10
  [189a3867] Reexport v0.2.0
  [276daf66] SpecialFunctions v0.8.0
  [0dd23c3e] TwoFAST v0.1.0
  [30578b45] URIParser v0.4.0
  [81def892] VersionParsing v1.1.3
  [2a0f44e3] Base64  [`@stdlib/Base64`]
  [ade2ca70] Dates  [`@stdlib/Dates`]
  [8bb1440f] DelimitedFiles  [`@stdlib/DelimitedFiles`]
  [8ba89e20] Distributed  [`@stdlib/Distributed`]
  [b77e0a4c] InteractiveUtils  [`@stdlib/InteractiveUtils`]
  [76f85450] LibGit2  [`@stdlib/LibGit2`]
  [8f399da3] Libdl  [`@stdlib/Libdl`]
  [37e2e46d] LinearAlgebra  [`@stdlib/LinearAlgebra`]
  [56ddb016] Logging  [`@stdlib/Logging`]
  [d6f4376e] Markdown  [`@stdlib/Markdown`]
  [a63ad114] Mmap  [`@stdlib/Mmap`]
  [44cfe95a] Pkg  [`@stdlib/Pkg`]
  [de0858da] Printf  [`@stdlib/Printf`]
  [3fa0cd96] REPL  [`@stdlib/REPL`]
  [9a3f8284] Random  [`@stdlib/Random`]
  [ea8e919c] SHA  [`@stdlib/SHA`]
  [9e88b42a] Serialization  [`@stdlib/Serialization`]
  [1a1011a3] SharedArrays  [`@stdlib/SharedArrays`]
  [6462fe0b] Sockets  [`@stdlib/Sockets`]
  [2f01184e] SparseArrays  [`@stdlib/SparseArrays`]
  [10745b16] Statistics  [`@stdlib/Statistics`]
  [8dfed614] Test  [`@stdlib/Test`]
  [cf7118a7] UUIDs  [`@stdlib/UUIDs`]
  [4ec0a83e] Unicode  [`@stdlib/Unicode`]

Welcome to Nemo version 0.15.1

Nemo comes with absolutely no warranty whatsoever


Welcome to Nemo version 0.15.1

Nemo comes with absolutely no warranty whatsoever

Testing ξ(r), ℓ=0, ν=-1 ... passed
Testing ξ(r), ℓ=0, ν=0 ... passed
Testing ξ(r), ℓ=0, ν=1 ... passed
Testing ξ(r), ℓ=0, ν=2 ... passed
Testing ξ(r), ℓ=0, ν=3 ... passed
Testing ξ(r), ℓ=1, ν=0 ... passed
Testing ξ(r), ℓ=1, ν=1 ... passed
Testing ξ(r), ℓ=1, ν=2 ... passed
Testing ξ(r), ℓ=1, ν=3 ... passed
Testing ξ(r), ℓ=2, ν=-1 ... passed
Testing ξ(r), ℓ=2, ν=0 ... passed
Testing ξ(r), ℓ=2, ν=1 ... passed
Testing ξ(r), ℓ=2, ν=2 ... passed
Testing ξ(r), ℓ=2, ν=3 ... passed
Testing ξ(r), ℓ=3, ν=-1 ... passed
Testing ξ(r), ℓ=3, ν=0 ... passed
Testing ξ(r), ℓ=3, ν=1 ... passed
Testing ξ(r), ℓ=3, ν=2 ... passed
Testing ξ(r), ℓ=3, ν=3 ... passed
Testing ξ(r), ℓ=4, ν=-1 ... passed
Testing ξ(r), ℓ=4, ν=0 ... passed
Testing ξ(r), ℓ=4, ν=1 ... passed
Testing ξ(r), ℓ=4, ν=2 ... passed
Testing ξ(r), ℓ=4, ν=3 ... passed
Testing ξ(r) ... passed
Testing ξ′(r) ... passed
Testing ξ″(r) ... passed
Calculating fmax: 
  dlrec    = 4
  dlrecRg1 = -4
  q=1.1, R=1.1:	  4.578423 seconds (1.20 M allocations: 67.974 MiB)

  4.620786 seconds (1.22 M allocations: 69.084 MiB)
ℓ = 1202
Δℓ = 4
ΔℓRg1 = -4
N = 1600
q = 1.1
kmin = 1.0e-5
kmax = 100000.00000000004
χ0 = 0.023029999999999995
RR = RR.tsv
ℓmax = ℓmax.bin
f21 = f21.bin
kmin = 1.0e-5
kmax = 100000.0
dlrec    = 4
dlrecRg1 = -4
Output size: 5741568 bytes = 0.005347251892089844 GiB
Output size: 51264 bytes = 4.774332046508789e-5 GiB
Reading 'out/F21EllCache'...   0.591809 seconds (314.59 k allocations: 16.145 MiB)
ellmax: 1202
lmaxcache: 1202
fell[:,1,1] = Complex{Float64}[3.9583795592771634e-52 - 9.695233714158177e-68im, 3.990121772925759e-52 - 9.772979714843386e-68im]
ell 1202, elapsed: 0.00018978118896484375
ell 1201, elapsed: 2.171872138977051
ell 1200, elapsed: 0.0005819797515869141
ell 1199, elapsed: 0.0005090236663818359
ell 1198, elapsed: 0.0005190372467041016
ell 1002, elapsed: 0.009505033493041992
ell 1001, elapsed: 0.0005190372467041016
ell 1000, elapsed: 0.00047898292541503906
ell 999, elapsed: 0.0004761219024658203
ell 998, elapsed: 0.0004818439483642578
ell 902, elapsed: 0.005001068115234375
ell 901, elapsed: 0.0006270408630371094
ell 900, elapsed: 0.0005910396575927734
ell 899, elapsed: 0.0006320476531982422
ell 898, elapsed: 0.0006330013275146484
ell 802, elapsed: 0.005260944366455078
ell 801, elapsed: 0.0006699562072753906
ell 800, elapsed: 0.0005979537963867188
ell 799, elapsed: 0.0005941390991210938
ell 798, elapsed: 0.0006480216979980469
ell 702, elapsed: 0.0049970149993896484
ell 701, elapsed: 0.0006299018859863281
ell 700, elapsed: 0.0006811618804931641
ell 699, elapsed: 0.0005309581756591797
ell 698, elapsed: 0.0005700588226318359
ell 602, elapsed: 0.005187034606933594
ell 601, elapsed: 0.0005931854248046875
ell 600, elapsed: 0.0006139278411865234
ell 599, elapsed: 0.0006430149078369141
ell 598, elapsed: 0.0006129741668701172
ell 502, elapsed: 0.005082130432128906
ell 501, elapsed: 0.0006258487701416016
ell 500, elapsed: 0.0006120204925537109
ell 499, elapsed: 0.0006101131439208984
ell 498, elapsed: 0.0006439685821533203
ell 402, elapsed: 0.005179166793823242
ell 401, elapsed: 0.000659942626953125
ell 400, elapsed: 0.0005869865417480469
ell 399, elapsed: 0.0005970001220703125
ell 398, elapsed: 0.0005190372467041016
ell 302, elapsed: 0.0050580501556396484
ell 301, elapsed: 0.0005619525909423828
ell 300, elapsed: 0.0006160736083984375
ell 299, elapsed: 0.0006339550018310547
ell 298, elapsed: 0.0005271434783935547
ell 202, elapsed: 0.005158901214599609
ell 201, elapsed: 0.0006418228149414062
ell 200, elapsed: 0.0005769729614257812
ell 199, elapsed: 0.0005478858947753906
ell 198, elapsed: 0.0005500316619873047
ell 152, elapsed: 0.0027170181274414062
ell 151, elapsed: 0.00061798095703125
ell 150, elapsed: 0.0005710124969482422
ell 149, elapsed: 0.0005970001220703125
ell 148, elapsed: 0.0005910396575927734
ell 127, elapsed: 0.0017199516296386719
ell 126, elapsed: 0.0005919933319091797
ell 125, elapsed: 0.0005738735198974609
ell 124, elapsed: 0.0005309581756591797
ell 123, elapsed: 0.0006058216094970703
ell 114, elapsed: 0.0011141300201416016
ell 113, elapsed: 0.0006098747253417969
ell 112, elapsed: 0.0005271434783935547
ell 111, elapsed: 0.0006148815155029297
ell 110, elapsed: 0.0005769729614257812
ell 102, elapsed: 0.0011539459228515625
ell 101, elapsed: 0.0006010532379150391
ell 100, elapsed: 0.0006511211395263672
ell 99, elapsed: 0.0005931854248046875
ell 98, elapsed: 0.0005750656127929688
ell 97, elapsed: 0.0006439685821533203
ell 96, elapsed: 0.006342887878417969
ell 95, elapsed: 0.0007030963897705078
ell 94, elapsed: 0.0007650852203369141
ell 93, elapsed: 0.0006060600280761719
ell 92, elapsed: 0.0006921291351318359
ell 91, elapsed: 0.0006780624389648438
ell 90, elapsed: 0.0007660388946533203
ell 89, elapsed: 0.0006470680236816406
ell 88, elapsed: 0.0007607936859130859
ell 87, elapsed: 0.0006439685821533203
ell 86, elapsed: 0.0007960796356201172
ell 85, elapsed: 0.0005910396575927734
ell 84, elapsed: 0.0008339881896972656
ell 83, elapsed: 0.0005960464477539062
ell 82, elapsed: 0.0007650852203369141
ell 81, elapsed: 0.0005929470062255859
ell 80, elapsed: 0.0006949901580810547
ell 79, elapsed: 0.0005810260772705078
ell 78, elapsed: 0.0007009506225585938
ell 77, elapsed: 0.0006079673767089844
ell 76, elapsed: 0.000675201416015625
ell 75, elapsed: 0.0005769729614257812
ell 74, elapsed: 0.0006890296936035156
ell 73, elapsed: 0.0005960464477539062
ell 72, elapsed: 0.0006930828094482422
ell 71, elapsed: 0.0006020069122314453
ell 70, elapsed: 0.0006690025329589844
ell 69, elapsed: 0.0006101131439208984
ell 68, elapsed: 0.0006959438323974609
ell 67, elapsed: 0.000659942626953125
ell 66, elapsed: 0.0006852149963378906
ell 65, elapsed: 0.0005958080291748047
ell 64, elapsed: 0.0007119178771972656
ell 63, elapsed: 0.0006439685821533203
ell 62, elapsed: 0.0006740093231201172
ell 61, elapsed: 0.0006048679351806641
ell 60, elapsed: 0.0006890296936035156
ell 59, elapsed: 0.0005891323089599609
ell 58, elapsed: 0.0007441043853759766
ell 57, elapsed: 0.0006160736083984375
ell 56, elapsed: 0.0006809234619140625
ell 55, elapsed: 0.0005958080291748047
ell 54, elapsed: 0.0006937980651855469
ell 53, elapsed: 0.0005888938903808594
ell 52, elapsed: 0.0006859302520751953
ell 51, elapsed: 0.0006208419799804688
ell 50, elapsed: 0.0006799697875976562
ell 49, elapsed: 0.0006158351898193359
ell 48, elapsed: 0.0006868839263916016
ell 47, elapsed: 0.0006029605865478516
ell 46, elapsed: 0.000698089599609375
ell 45, elapsed: 0.0005998611450195312
ell 44, elapsed: 0.0006978511810302734
ell 43, elapsed: 0.0006120204925537109
ell 42, elapsed: 0.0006961822509765625
ell 41, elapsed: 0.0006082057952880859
ell 40, elapsed: 0.00067901611328125
ell 39, elapsed: 0.0006000995635986328
ell 38, elapsed: 0.0007109642028808594
ell 37, elapsed: 0.0006239414215087891
ell 36, elapsed: 0.0006830692291259766
ell 35, elapsed: 0.0006070137023925781
ell 34, elapsed: 0.0006937980651855469
ell 33, elapsed: 0.0006110668182373047
ell 32, elapsed: 0.0006608963012695312
ell 31, elapsed: 0.0006229877471923828
ell 30, elapsed: 0.0007288455963134766
ell 29, elapsed: 0.0006139278411865234
ell 28, elapsed: 0.0006909370422363281
ell 27, elapsed: 0.0006051063537597656
ell 26, elapsed: 0.0006849765777587891
ell 25, elapsed: 0.0006041526794433594
ell 24, elapsed: 0.0006680488586425781
ell 23, elapsed: 0.0006079673767089844
ell 22, elapsed: 0.0006849765777587891
ell 21, elapsed: 0.0006070137023925781
ell 20, elapsed: 0.0007190704345703125
ell 19, elapsed: 0.0005860328674316406
ell 18, elapsed: 0.0006780624389648438
ell 17, elapsed: 0.0006029605865478516
ell 16, elapsed: 0.0006949901580810547
ell 15, elapsed: 0.00061798095703125
ell 14, elapsed: 0.0006880760192871094
ell 13, elapsed: 0.0006039142608642578
ell 12, elapsed: 0.0006911754608154297
ell 11, elapsed: 0.0005950927734375
ell 10, elapsed: 0.0006899833679199219
ell 9, elapsed: 0.0006020069122314453
ell 8, elapsed: 0.0006930828094482422
ell 7, elapsed: 0.0006010532379150391
ell 6, elapsed: 0.0006899833679199219
ell 5, elapsed: 0.0005838871002197266
ell 4, elapsed: 0.0007159709930419922
ell 3, elapsed: 0.0006458759307861328
ell 2, elapsed: 0.0007071495056152344
ell 1, elapsed: 0.0006477832794189453
ell 0, elapsed: 0.0007319450378417969
  3.016318 seconds (1.73 M allocations: 84.830 MiB, 0.78% gc time)
elapsed: 0.0015690326690673828
step:          0.732711 sec (402.839 k allocations: 20.301 MB, 0.0% gc time)
swapping:      0.000572 sec (0 allocations: 0 byte, 0.0% gc time)
calc_Mellell!: 0.482328 sec (296.625 k allocations: 14.967 MB, 0.0% gc time)
  t0 :  0.0 sec (0 allocations: 0 byte, 0.0% gc time)
  tm2 : 0.0 sec (0 allocations: 0 byte, 0.0% gc time)
  tm2s: 0.0 sec (0 allocations: 0 byte, 0.0% gc time)
  tm4 : 0.0 sec (0 allocations: 0 byte, 0.0% gc time)
  tp2 : 0.0 sec (0 allocations: 0 byte, 0.0% gc time)
  tp2s: 0.0 sec (0 allocations: 0 byte, 0.0% gc time)
  tp4 : 0.0 sec (0 allocations: 0 byte, 0.0% gc time)
calc_wtdll!:   1.088892 sec (526.041 k allocations: 26.383 MB, 2.15% gc time)
calc_wljj!:    0.003482 sec (6 allocations: 96 byte, 0.0% gc time)
mult_prefac!:  0.0 sec (0 allocations: 0 byte, 0.0% gc time)
convert:       0.0 sec (0 allocations: 0 byte, 0.0% gc time)
write:         0.005424 sec (0 allocations: 0 byte, 0.0% gc time)
test_rand_2f1: 0.0 sec (0 allocations: 0 byte, 0.0% gc time)
Closing outfile out/Ml21-cache.bin...   0.000227 seconds
  1.083009 seconds (8.65 k allocations: 420.781 KiB)
make_phi():   0.012986 seconds (8.20 k allocations: 238.016 KiB)
  0.227920 seconds (121.80 k allocations: 5.905 MiB)
tskip:       2.2e-5 sec (0 allocations: 0 byte, 0.0% gc time)
tread:       0.003365 sec (19 allocations: 2.172 KB, 0.0% gc time)
tmultphi:    0.046416 sec (26.067 k allocations: 1.34 MB, 0.0% gc time)
tbrfft:      0.004262 sec (896 allocations: 42.0 KB, 0.0% gc time)
tmultprefac: 0.002528 sec (0 allocations: 0 byte, 0.0% gc time)
toutfunc:    0.171133 sec (94.16 k allocations: 4.453 MB, 0.0% gc time)
Testing R=1.1 ... passed
Calculating fmax: 
  dlrec    = 4
  dlrecRg1 = -4
  q=1.1, R=1.0:	  0.001917 seconds (4.00 k allocations: 300.375 KiB)

  0.002200 seconds (4.04 k allocations: 334.734 KiB)
ℓ = 1202
Δℓ = 4
ΔℓRg1 = -4
N = 1600
q = 1.1
kmin = 1.0e-5
kmax = 100000.00000000004
χ0 = 0.023029999999999995
RR = RR.tsv
ℓmax = ℓmax.bin
f21 = f21.bin
kmin = 1.0e-5
kmax = 100000.0
dlrec    = 4
dlrecRg1 = -4
Output size: 61465536 bytes = 0.05724424123764038 GiB
Output size: 51264 bytes = 4.774332046508789e-5 GiB
Reading 'out/F21EllCache'...   0.001235 seconds (267 allocations: 84.656 KiB)
ellmax: 1202
lmaxcache: 1202
fell[:,1,1] = Complex{Float64}[809.6031528389767 - 1.9829558194077161e-13im, 0.0 + 0.0im]
ell 1202, elapsed: 7.891654968261719e-5
ell 1201, elapsed: 0.015178918838500977
ell 1200, elapsed: 0.0006439685821533203
ell 1199, elapsed: 0.0006170272827148438
ell 1198, elapsed: 0.0005748271942138672
ell 1197, elapsed: 0.0006451606750488281
ell 1196, elapsed: 0.0007879734039306641
ell 1195, elapsed: 0.0008969306945800781
ell 1194, elapsed: 0.0007181167602539062
ell 1193, elapsed: 0.0009098052978515625
ell 1192, elapsed: 0.0007860660552978516
ell 1191, elapsed: 0.0009140968322753906
ell 1190, elapsed: 0.0005769729614257812
ell 1189, elapsed: 0.0007550716400146484
ell 1188, elapsed: 0.0006761550903320312
ell 1187, elapsed: 0.0007541179656982422
ell 1186, elapsed: 0.0008208751678466797
ell 1185, elapsed: 0.0008859634399414062
ell 1184, elapsed: 0.0007379055023193359
ell 1183, elapsed: 0.0008971691131591797
ell 1182, elapsed: 0.0005528926849365234
ell 1181, elapsed: 0.0006041526794433594
ell 1180, elapsed: 0.0007078647613525391
ell 1179, elapsed: 0.0005381107330322266
ell 1178, elapsed: 0.0005249977111816406
ell 1177, elapsed: 0.0006091594696044922
ell 1176, elapsed: 0.0004961490631103516
ell 1175, elapsed: 0.0005850791931152344
ell 1174, elapsed: 0.0005140304565429688
ell 1173, elapsed: 0.0005559921264648438
ell 1172, elapsed: 0.0005121231079101562
ell 1171, elapsed: 0.0006189346313476562
ell 1170, elapsed: 0.0004930496215820312
ell 1169, elapsed: 0.0005259513854980469
ell 1168, elapsed: 0.0005078315734863281
ell 1167, elapsed: 0.0006010532379150391
ell 1166, elapsed: 0.0004868507385253906
ell 1165, elapsed: 0.0008580684661865234
ell 1164, elapsed: 0.0007369518280029297
ell 1163, elapsed: 0.0009000301361083984
ell 1162, elapsed: 0.000782012939453125
ell 1161, elapsed: 0.000888824462890625
ell 1160, elapsed: 0.0007200241088867188
ell 1159, elapsed: 0.0009109973907470703
ell 1158, elapsed: 0.0008051395416259766
ell 1157, elapsed: 0.0008862018585205078
ell 1156, elapsed: 0.0006749629974365234
ell 1155, elapsed: 0.0008890628814697266
ell 1154, elapsed: 0.0006990432739257812
ell 1153, elapsed: 0.0008959770202636719
ell 1152, elapsed: 0.0007569789886474609
ell 1151, elapsed: 0.0009131431579589844
ell 1150, elapsed: 0.0007169246673583984
ell 1149, elapsed: 0.0009369850158691406
ell 1148, elapsed: 0.0007839202880859375
ell 1147, elapsed: 0.0008800029754638672
ell 1146, elapsed: 0.0007679462432861328
ell 1145, elapsed: 0.0008900165557861328
ell 1144, elapsed: 0.0007481575012207031
ell 1143, elapsed: 0.0008809566497802734
ell 1142, elapsed: 0.0007669925689697266
ell 1141, elapsed: 0.0007250308990478516
ell 1140, elapsed: 0.000598907470703125
ell 1139, elapsed: 0.0007140636444091797
ell 1138, elapsed: 0.00061798095703125
ell 1137, elapsed: 0.0007002353668212891
ell 1136, elapsed: 0.0006082057952880859
ell 1135, elapsed: 0.0007009506225585938
ell 1134, elapsed: 0.0005939006805419922
ell 1133, elapsed: 0.0006999969482421875
ell 1132, elapsed: 0.0006308555603027344
ell 1131, elapsed: 0.0007631778717041016
ell 1130, elapsed: 0.0006248950958251953
ell 1129, elapsed: 0.0007231235504150391
ell 1128, elapsed: 0.0005979537963867188
ell 1127, elapsed: 0.0006961822509765625
ell 1126, elapsed: 0.0006449222564697266
ell 1125, elapsed: 0.0007109642028808594
ell 1124, elapsed: 0.0005950927734375
ell 1123, elapsed: 0.0006899833679199219
ell 1122, elapsed: 0.000598907470703125
ell 1121, elapsed: 0.0007350444793701172
ell 1120, elapsed: 0.0005998611450195312
ell 1119, elapsed: 0.0006899833679199219
ell 1118, elapsed: 0.0005998611450195312
ell 1117, elapsed: 0.0006921291351318359
ell 1116, elapsed: 0.0005879402160644531
ell 1115, elapsed: 0.0007750988006591797
ell 1114, elapsed: 0.0006010532379150391
ell 1113, elapsed: 0.0006890296936035156
ell 1112, elapsed: 0.0006020069122314453
ell 1111, elapsed: 0.0006959438323974609
ell 1110, elapsed: 0.0005898475646972656
ell 1109, elapsed: 0.0007119178771972656
ell 1108, elapsed: 0.0005948543548583984
ell 1107, elapsed: 0.0006849765777587891
ell 1106, elapsed: 0.0005950927734375
ell 1105, elapsed: 0.0007150173187255859
ell 1104, elapsed: 0.0005941390991210938
ell 1103, elapsed: 0.0006940364837646484
ell 1102, elapsed: 0.0006070137023925781
ell 1101, elapsed: 0.0006921291351318359
ell 1100, elapsed: 0.0005922317504882812
ell 1099, elapsed: 0.0006999969482421875
ell 1098, elapsed: 0.0006198883056640625
ell 1097, elapsed: 0.0006859302520751953
ell 1096, elapsed: 0.000598907470703125
ell 1095, elapsed: 0.0007081031799316406
ell 1094, elapsed: 0.0006029605865478516
ell 1093, elapsed: 0.0007009506225585938
ell 1092, elapsed: 0.0006380081176757812
ell 1091, elapsed: 0.0007159709930419922
ell 1090, elapsed: 0.0005958080291748047
ell 1089, elapsed: 0.0007078647613525391
ell 1088, elapsed: 0.0006010532379150391
ell 1087, elapsed: 0.0006971359252929688
ell 1086, elapsed: 0.0006070137023925781
ell 1085, elapsed: 0.00074005126953125
ell 1084, elapsed: 0.0005948543548583984
ell 1083, elapsed: 0.0006990432739257812
ell 1082, elapsed: 0.0006070137023925781
ell 1081, elapsed: 0.0007171630859375
ell 1080, elapsed: 0.0005941390991210938
ell 1079, elapsed: 0.0007021427154541016
ell 1078, elapsed: 0.0005929470062255859
ell 1077, elapsed: 0.0006911754608154297
ell 1076, elapsed: 0.0005900859832763672
ell 1075, elapsed: 0.0007250308990478516
ell 1074, elapsed: 0.0005950927734375
ell 1073, elapsed: 0.0006949901580810547
ell 1072, elapsed: 0.0006110668182373047
ell 1071, elapsed: 0.0006890296936035156
ell 1070, elapsed: 0.0005950927734375
ell 1069, elapsed: 0.0007219314575195312
ell 1068, elapsed: 0.0005919933319091797
ell 1067, elapsed: 0.0006868839263916016
ell 1066, elapsed: 0.0005948543548583984
ell 1065, elapsed: 0.0007069110870361328
ell 1064, elapsed: 0.0005910396575927734
ell 1063, elapsed: 0.0007359981536865234
ell 1062, elapsed: 0.0006020069122314453
ell 1061, elapsed: 0.0006988048553466797
ell 1060, elapsed: 0.0006031990051269531
ell 1059, elapsed: 0.0007150173187255859
ell 1058, elapsed: 0.0006968975067138672
ell 1057, elapsed: 0.0008540153503417969
ell 1056, elapsed: 0.000698089599609375
ell 1055, elapsed: 0.0007879734039306641
ell 1054, elapsed: 0.0007100105285644531
ell 1053, elapsed: 0.0007650852203369141
ell 1052, elapsed: 0.0006799697875976562
ell 1051, elapsed: 0.0008039474487304688
ell 1050, elapsed: 0.0007181167602539062
ell 1049, elapsed: 0.0008230209350585938
ell 1048, elapsed: 0.0006799697875976562
ell 1047, elapsed: 0.0007951259613037109
ell 1046, elapsed: 0.0006649494171142578
ell 1045, elapsed: 0.0006570816040039062
ell 1044, elapsed: 0.0004000663757324219
ell 1043, elapsed: 0.00048804283142089844
ell 1042, elapsed: 0.0004019737243652344
ell 1041, elapsed: 0.0004858970642089844
ell 1040, elapsed: 0.00040221214294433594
ell 1039, elapsed: 0.0004818439483642578
ell 1038, elapsed: 0.00041985511779785156
ell 1037, elapsed: 0.00048613548278808594
ell 1036, elapsed: 0.0004050731658935547
ell 1035, elapsed: 0.0004889965057373047
ell 1034, elapsed: 0.00040411949157714844
ell 1033, elapsed: 0.0006909370422363281
ell 1032, elapsed: 0.0005700588226318359
ell 1031, elapsed: 0.0006089210510253906
ell 1030, elapsed: 0.0004000663757324219
ell 1029, elapsed: 0.0004899501800537109
ell 1028, elapsed: 0.00041222572326660156
ell 1027, elapsed: 0.00049591064453125
ell 1026, elapsed: 0.0003972053527832031
ell 1025, elapsed: 0.0006539821624755859
ell 1024, elapsed: 0.0004639625549316406
ell 1023, elapsed: 0.0006890296936035156
ell 1022, elapsed: 0.0005409717559814453
ell 1021, elapsed: 0.0007579326629638672
ell 1020, elapsed: 0.0005269050598144531
ell 1019, elapsed: 0.0004930496215820312
ell 1018, elapsed: 0.0004088878631591797
ell 1017, elapsed: 0.0005249977111816406
ell 1016, elapsed: 0.00040984153747558594
ell 1015, elapsed: 0.0004980564117431641
ell 1014, elapsed: 0.00040984153747558594
ell 1013, elapsed: 0.010524988174438477
ell 1012, elapsed: 0.0005509853363037109
ell 1011, elapsed: 0.0005910396575927734
ell 1010, elapsed: 0.0004711151123046875
ell 1009, elapsed: 0.0005619525909423828
ell 1008, elapsed: 0.0004570484161376953
ell 1007, elapsed: 0.0005638599395751953
ell 1006, elapsed: 0.00041604042053222656
ell 1005, elapsed: 0.0004909038543701172
ell 1004, elapsed: 0.00039696693420410156
ell 1003, elapsed: 0.0004999637603759766
ell 1002, elapsed: 0.0004911422729492188
ell 1001, elapsed: 0.0006301403045654297
ell 1000, elapsed: 0.0004069805145263672
ell 999, elapsed: 0.00061798095703125
ell 998, elapsed: 0.00047898292541503906
ell 997, elapsed: 0.0004870891571044922
ell 996, elapsed: 0.0003972053527832031
ell 995, elapsed: 0.0004849433898925781
ell 994, elapsed: 0.0003960132598876953
ell 993, elapsed: 0.0004870891571044922
ell 992, elapsed: 0.0004019737243652344
ell 991, elapsed: 0.0004940032958984375
ell 990, elapsed: 0.0004019737243652344
ell 989, elapsed: 0.0004849433898925781
ell 988, elapsed: 0.0004000663757324219
ell 987, elapsed: 0.0004918575286865234
ell 986, elapsed: 0.0005321502685546875
ell 985, elapsed: 0.000637054443359375
ell 984, elapsed: 0.00040602684020996094
ell 983, elapsed: 0.0004940032958984375
ell 982, elapsed: 0.0004031658172607422
ell 981, elapsed: 0.0006201267242431641
ell 980, elapsed: 0.0005080699920654297
ell 979, elapsed: 0.0004980564117431641
ell 978, elapsed: 0.0003991127014160156
ell 977, elapsed: 0.0004968643188476562
ell 976, elapsed: 0.0004811286926269531
ell 975, elapsed: 0.0006489753723144531
ell 974, elapsed: 0.00039696693420410156
ell 973, elapsed: 0.0006580352783203125
ell 972, elapsed: 0.00048613548278808594
ell 971, elapsed: 0.008807182312011719
ell 970, elapsed: 0.0005960464477539062
ell 969, elapsed: 0.000579833984375
ell 968, elapsed: 0.0004849433898925781
ell 967, elapsed: 0.0006570816040039062
ell 966, elapsed: 0.0005638599395751953
ell 965, elapsed: 0.0006639957427978516
ell 964, elapsed: 0.0005109310150146484
ell 963, elapsed: 0.0006289482116699219
ell 962, elapsed: 0.0003998279571533203
ell 961, elapsed: 0.0004990100860595703
ell 960, elapsed: 0.0004010200500488281
ell 959, elapsed: 0.0004940032958984375
ell 958, elapsed: 0.0005168914794921875
ell 957, elapsed: 0.0006351470947265625
ell 956, elapsed: 0.0004019737243652344
ell 955, elapsed: 0.0004928112030029297
ell 954, elapsed: 0.000576019287109375
ell 953, elapsed: 0.0006361007690429688
ell 952, elapsed: 0.0005748271942138672
ell 951, elapsed: 0.0006458759307861328
ell 950, elapsed: 0.0004029273986816406
ell 949, elapsed: 0.0004930496215820312
ell 948, elapsed: 0.0004019737243652344
ell 947, elapsed: 0.0005810260772705078
ell 946, elapsed: 0.0006279945373535156
ell 945, elapsed: 0.0006589889526367188
ell 944, elapsed: 0.0005691051483154297
ell 943, elapsed: 0.0007250308990478516
ell 942, elapsed: 0.0006148815155029297
ell 941, elapsed: 0.0007228851318359375
ell 940, elapsed: 0.0006289482116699219
ell 939, elapsed: 0.0008890628814697266
ell 938, elapsed: 0.0007040500640869141
ell 937, elapsed: 0.0007979869842529297
ell 936, elapsed: 0.0005249977111816406
ell 935, elapsed: 0.0008299350738525391
ell 934, elapsed: 0.0005259513854980469
ell 933, elapsed: 0.0005490779876708984
ell 932, elapsed: 0.0006799697875976562
ell 931, elapsed: 0.0006470680236816406
ell 930, elapsed: 0.0004508495330810547
ell 929, elapsed: 0.0005478858947753906
ell 928, elapsed: 0.0006909370422363281
ell 927, elapsed: 0.0006380081176757812
ell 926, elapsed: 0.0004589557647705078
ell 925, elapsed: 0.0007770061492919922
ell 924, elapsed: 0.0006470680236816406
ell 923, elapsed: 0.0007960796356201172
ell 922, elapsed: 0.0006818771362304688
ell 921, elapsed: 0.0008227825164794922
ell 920, elapsed: 0.0006821155548095703
ell 919, elapsed: 0.0007989406585693359
ell 918, elapsed: 0.0006799697875976562
ell 917, elapsed: 0.0006990432739257812
ell 916, elapsed: 0.0005590915679931641
ell 915, elapsed: 0.0006310939788818359
ell 914, elapsed: 0.00047779083251953125
ell 913, elapsed: 0.0008029937744140625
ell 912, elapsed: 0.0006670951843261719
ell 911, elapsed: 0.0008039474487304688
ell 910, elapsed: 0.00047087669372558594
ell 909, elapsed: 0.0005598068237304688
ell 908, elapsed: 0.00046515464782714844
ell 907, elapsed: 0.0007729530334472656
ell 906, elapsed: 0.0005710124969482422
ell 905, elapsed: 0.0008060932159423828
ell 904, elapsed: 0.00044798851013183594
ell 903, elapsed: 0.0005660057067871094
ell 902, elapsed: 0.0006361007690429688
ell 901, elapsed: 0.0005550384521484375
ell 900, elapsed: 0.0004520416259765625
ell 899, elapsed: 0.0007500648498535156
ell 898, elapsed: 0.0006840229034423828
ell 897, elapsed: 0.0007851123809814453
ell 896, elapsed: 0.0006649494171142578
ell 895, elapsed: 0.0005850791931152344
ell 894, elapsed: 0.0006420612335205078
ell 893, elapsed: 0.0008389949798583984
ell 892, elapsed: 0.0007309913635253906
ell 891, elapsed: 0.0008080005645751953
ell 890, elapsed: 0.0007178783416748047
ell 889, elapsed: 0.0008180141448974609
ell 888, elapsed: 0.0006818771362304688
ell 887, elapsed: 0.0008089542388916016
ell 886, elapsed: 0.0007741451263427734
ell 885, elapsed: 0.0007500648498535156
ell 884, elapsed: 0.00045990943908691406
ell 883, elapsed: 0.0005571842193603516
ell 882, elapsed: 0.00045299530029296875
ell 881, elapsed: 0.0005469322204589844
ell 880, elapsed: 0.0004570484161376953
ell 879, elapsed: 0.0005440711975097656
ell 878, elapsed: 0.00044798851013183594
ell 877, elapsed: 0.0005588531494140625
ell 876, elapsed: 0.00045108795166015625
ell 875, elapsed: 0.0007929801940917969
ell 874, elapsed: 0.0005419254302978516
ell 873, elapsed: 0.0006229877471923828
ell 872, elapsed: 0.0005550384521484375
ell 871, elapsed: 0.0006000995635986328
ell 870, elapsed: 0.0004668235778808594
ell 869, elapsed: 0.0005490779876708984
ell 868, elapsed: 0.00045299530029296875
ell 867, elapsed: 0.0005290508270263672
ell 866, elapsed: 0.00045990943908691406
ell 865, elapsed: 0.0005481243133544922
ell 864, elapsed: 0.0004730224609375
ell 863, elapsed: 0.0005578994750976562
ell 862, elapsed: 0.00045800209045410156
ell 861, elapsed: 0.0005600452423095703
ell 860, elapsed: 0.0004630088806152344
ell 859, elapsed: 0.0005791187286376953
ell 858, elapsed: 0.0006608963012695312
ell 857, elapsed: 0.0008089542388916016
ell 856, elapsed: 0.0006861686706542969
ell 855, elapsed: 0.0008161067962646484
ell 854, elapsed: 0.0006949901580810547
ell 853, elapsed: 0.0008051395416259766
ell 852, elapsed: 0.0006821155548095703
ell 851, elapsed: 0.0008039474487304688
ell 850, elapsed: 0.0007150173187255859
ell 849, elapsed: 0.0007929801940917969
ell 848, elapsed: 0.0006699562072753906
ell 847, elapsed: 0.0007960796356201172
ell 846, elapsed: 0.0007181167602539062
ell 845, elapsed: 0.0005700588226318359
ell 844, elapsed: 0.0006480216979980469
ell 843, elapsed: 0.0007350444793701172
ell 842, elapsed: 0.00047087669372558594
ell 841, elapsed: 0.0005838871002197266
ell 840, elapsed: 0.00039887428283691406
ell 839, elapsed: 0.0004968643188476562
ell 838, elapsed: 0.0003979206085205078
ell 837, elapsed: 0.0004980564117431641
ell 836, elapsed: 0.0003960132598876953
ell 835, elapsed: 0.0005109310150146484
ell 834, elapsed: 0.0005829334259033203
ell 833, elapsed: 0.0005691051483154297
ell 832, elapsed: 0.0005559921264648438
ell 831, elapsed: 0.0006098747253417969
ell 830, elapsed: 0.00039386749267578125
ell 829, elapsed: 0.0006031990051269531
ell 828, elapsed: 0.0005040168762207031
ell 827, elapsed: 0.0005130767822265625
ell 826, elapsed: 0.0003972053527832031
ell 825, elapsed: 0.0004971027374267578
ell 824, elapsed: 0.0004980564117431641
ell 823, elapsed: 0.0006120204925537109
ell 822, elapsed: 0.0004680156707763672
ell 821, elapsed: 0.0006439685821533203
ell 820, elapsed: 0.0005428791046142578
ell 819, elapsed: 0.0005679130554199219
ell 818, elapsed: 0.00038886070251464844
ell 817, elapsed: 0.0004780292510986328
ell 816, elapsed: 0.00039196014404296875
ell 815, elapsed: 0.00047588348388671875
ell 814, elapsed: 0.00047206878662109375
ell 813, elapsed: 0.0007810592651367188
ell 812, elapsed: 0.0007078647613525391
ell 811, elapsed: 0.0007340908050537109
ell 810, elapsed: 0.0007059574127197266
ell 809, elapsed: 0.0007758140563964844
ell 808, elapsed: 0.0006318092346191406
ell 807, elapsed: 0.0007090568542480469
ell 806, elapsed: 0.0006070137023925781
ell 805, elapsed: 0.0007188320159912109
ell 804, elapsed: 0.0006091594696044922
ell 803, elapsed: 0.0007328987121582031
ell 802, elapsed: 0.0005159378051757812
ell 801, elapsed: 0.00045299530029296875
ell 800, elapsed: 0.0003960132598876953
ell 799, elapsed: 0.000492095947265625
ell 798, elapsed: 0.00055694580078125
ell 797, elapsed: 0.0006699562072753906
ell 796, elapsed: 0.00046515464782714844
ell 795, elapsed: 0.00045108795166015625
ell 794, elapsed: 0.00032782554626464844
ell 793, elapsed: 0.0006480216979980469
ell 792, elapsed: 0.0005018711090087891
ell 791, elapsed: 0.0005581378936767578
ell 790, elapsed: 0.0005891323089599609
ell 789, elapsed: 0.0006098747253417969
ell 788, elapsed: 0.00045680999755859375
ell 787, elapsed: 0.0005478858947753906
ell 786, elapsed: 0.0005779266357421875
ell 785, elapsed: 0.0005929470062255859
ell 784, elapsed: 0.00045299530029296875
ell 783, elapsed: 0.0007681846618652344
ell 782, elapsed: 0.00041985511779785156
ell 781, elapsed: 0.0005121231079101562
ell 780, elapsed: 0.000614166259765625
ell 779, elapsed: 0.0005588531494140625
ell 778, elapsed: 0.000415802001953125
ell 777, elapsed: 0.0005118846893310547
ell 776, elapsed: 0.0004210472106933594
ell 775, elapsed: 0.0005159378051757812
ell 774, elapsed: 0.00041794776916503906
ell 773, elapsed: 0.0005350112915039062
ell 772, elapsed: 0.0004191398620605469
ell 771, elapsed: 0.0005140304565429688
ell 770, elapsed: 0.00041794776916503906
ell 769, elapsed: 0.0005028247833251953
ell 768, elapsed: 0.0004241466522216797
ell 767, elapsed: 0.0005359649658203125
ell 766, elapsed: 0.000614166259765625
ell 765, elapsed: 0.0006480216979980469
ell 764, elapsed: 0.0006239414215087891
ell 763, elapsed: 0.0008480548858642578
ell 762, elapsed: 0.000431060791015625
ell 761, elapsed: 0.000514984130859375
ell 760, elapsed: 0.00042700767517089844
ell 759, elapsed: 0.0006730556488037109
ell 758, elapsed: 0.0004940032958984375
ell 757, elapsed: 0.0005121231079101562
ell 756, elapsed: 0.00051116943359375
ell 755, elapsed: 0.0006639957427978516
ell 754, elapsed: 0.0004470348358154297
ell 753, elapsed: 0.0005190372467041016
ell 752, elapsed: 0.0004150867462158203
ell 751, elapsed: 0.0005140304565429688
ell 750, elapsed: 0.0005049705505371094
ell 749, elapsed: 0.0008218288421630859
ell 748, elapsed: 0.0006799697875976562
ell 747, elapsed: 0.0007839202880859375
ell 746, elapsed: 0.0006518363952636719
ell 745, elapsed: 0.0008368492126464844
ell 744, elapsed: 0.0007278919219970703
ell 743, elapsed: 0.0008609294891357422
ell 742, elapsed: 0.0006759166717529297
ell 741, elapsed: 0.0008249282836914062
ell 740, elapsed: 0.0007171630859375
ell 739, elapsed: 0.0008890628814697266
ell 738, elapsed: 0.0006880760192871094
ell 737, elapsed: 0.0007879734039306641
ell 736, elapsed: 0.0006811618804931641
ell 735, elapsed: 0.0008342266082763672
ell 734, elapsed: 0.0006620883941650391
ell 733, elapsed: 0.0006749629974365234
ell 732, elapsed: 0.0007050037384033203
ell 731, elapsed: 0.0008449554443359375
ell 730, elapsed: 0.0006098747253417969
ell 729, elapsed: 0.0007450580596923828
ell 728, elapsed: 0.0006201267242431641
ell 727, elapsed: 0.0007410049438476562
ell 726, elapsed: 0.0006160736083984375
ell 725, elapsed: 0.0007259845733642578
ell 724, elapsed: 0.0008141994476318359
ell 723, elapsed: 0.0006768703460693359
ell 722, elapsed: 0.0004019737243652344
ell 721, elapsed: 0.0006780624389648438
ell 720, elapsed: 0.0006139278411865234
ell 719, elapsed: 0.0008709430694580078
ell 718, elapsed: 0.0007879734039306641
ell 717, elapsed: 0.0008540153503417969
ell 716, elapsed: 0.0007359981536865234
ell 715, elapsed: 0.0006430149078369141
ell 714, elapsed: 0.0007028579711914062
ell 713, elapsed: 0.0007441043853759766
ell 712, elapsed: 0.0004680156707763672
ell 711, elapsed: 0.0006699562072753906
ell 710, elapsed: 0.000614166259765625
ell 709, elapsed: 0.0007259845733642578
ell 708, elapsed: 0.0009050369262695312
ell 707, elapsed: 0.0008959770202636719
ell 706, elapsed: 0.000701904296875
ell 705, elapsed: 0.000823974609375
ell 704, elapsed: 0.0007529258728027344
ell 703, elapsed: 0.0007319450378417969
ell 702, elapsed: 0.0006139278411865234
ell 701, elapsed: 0.0007290840148925781
ell 700, elapsed: 0.0006091594696044922
ell 699, elapsed: 0.0008969306945800781
ell 698, elapsed: 0.000453948974609375
ell 697, elapsed: 0.0005757808685302734
ell 696, elapsed: 0.000598907470703125
ell 695, elapsed: 0.00090789794921875
ell 694, elapsed: 0.0007398128509521484
ell 693, elapsed: 0.0007719993591308594
ell 692, elapsed: 0.0006079673767089844
ell 691, elapsed: 0.000720977783203125
ell 690, elapsed: 0.0006031990051269531
ell 689, elapsed: 0.0007338523864746094
ell 688, elapsed: 0.0006060600280761719
ell 687, elapsed: 0.0005819797515869141
ell 686, elapsed: 0.000701904296875
ell 685, elapsed: 0.0007770061492919922
ell 684, elapsed: 0.0006899833679199219
ell 683, elapsed: 0.0007958412170410156
ell 682, elapsed: 0.0006158351898193359
ell 681, elapsed: 0.0007250308990478516
ell 680, elapsed: 0.0006232261657714844
ell 679, elapsed: 0.0007169246673583984
ell 678, elapsed: 0.0005080699920654297
ell 677, elapsed: 0.0009510517120361328
ell 676, elapsed: 0.0005710124969482422
ell 675, elapsed: 0.0008180141448974609
ell 674, elapsed: 0.0007190704345703125
ell 673, elapsed: 0.000701904296875
ell 672, elapsed: 0.0007090568542480469
ell 671, elapsed: 0.0007960796356201172
ell 670, elapsed: 0.0006618499755859375
ell 669, elapsed: 0.0008080005645751953
ell 668, elapsed: 0.0004589557647705078
ell 667, elapsed: 0.0004730224609375
ell 666, elapsed: 0.0003829002380371094
ell 665, elapsed: 0.00047206878662109375
ell 664, elapsed: 0.0005748271942138672
ell 663, elapsed: 0.0007150173187255859
ell 662, elapsed: 0.0006079673767089844
ell 661, elapsed: 0.0009319782257080078
ell 660, elapsed: 0.0007488727569580078
ell 659, elapsed: 0.0008068084716796875
ell 658, elapsed: 0.0004870891571044922
ell 657, elapsed: 0.0006852149963378906
ell 656, elapsed: 0.0007679462432861328
ell 655, elapsed: 0.0008089542388916016
ell 654, elapsed: 0.0005981922149658203
ell 653, elapsed: 0.0007779598236083984
ell 652, elapsed: 0.0006668567657470703
ell 651, elapsed: 0.0006928443908691406
ell 650, elapsed: 0.0006809234619140625
ell 649, elapsed: 0.0006330013275146484
ell 648, elapsed: 0.0005879402160644531
ell 647, elapsed: 0.0008230209350585938
ell 646, elapsed: 0.0006809234619140625
ell 645, elapsed: 0.0006339550018310547
ell 644, elapsed: 0.0006499290466308594
ell 643, elapsed: 0.0008089542388916016
ell 642, elapsed: 0.0006158351898193359
ell 641, elapsed: 0.0007450580596923828
ell 640, elapsed: 0.000659942626953125
ell 639, elapsed: 0.0007519721984863281
ell 638, elapsed: 0.0005900859832763672
ell 637, elapsed: 0.0008211135864257812
ell 636, elapsed: 0.0006940364837646484
ell 635, elapsed: 0.00090789794921875
ell 634, elapsed: 0.0007598400115966797
ell 633, elapsed: 0.0008831024169921875
ell 632, elapsed: 0.0007469654083251953
ell 631, elapsed: 0.0008978843688964844
ell 630, elapsed: 0.0007481575012207031
ell 629, elapsed: 0.0008549690246582031
ell 628, elapsed: 0.0007331371307373047
ell 627, elapsed: 0.0008978843688964844
ell 626, elapsed: 0.0007369518280029297
ell 625, elapsed: 0.000982046127319336
ell 624, elapsed: 0.0007441043853759766
ell 623, elapsed: 0.0009100437164306641
ell 622, elapsed: 0.000762939453125
ell 621, elapsed: 0.0009129047393798828
ell 620, elapsed: 0.0007529258728027344
ell 619, elapsed: 0.0009529590606689453
ell 618, elapsed: 0.0007829666137695312
ell 617, elapsed: 0.0007691383361816406
ell 616, elapsed: 0.0005888938903808594
ell 615, elapsed: 0.0006430149078369141
ell 614, elapsed: 0.0007441043853759766
ell 613, elapsed: 0.0008149147033691406
ell 612, elapsed: 0.0007410049438476562
ell 611, elapsed: 0.0009129047393798828
ell 610, elapsed: 0.0007240772247314453
ell 609, elapsed: 0.0008931159973144531
ell 608, elapsed: 0.0007200241088867188
ell 607, elapsed: 0.00090789794921875
ell 606, elapsed: 0.0004830360412597656
ell 605, elapsed: 0.0005950927734375
ell 604, elapsed: 0.0006380081176757812
ell 603, elapsed: 0.0005960464477539062
ell 602, elapsed: 0.00046515464782714844
ell 601, elapsed: 0.0005381107330322266
ell 600, elapsed: 0.0004620552062988281
ell 599, elapsed: 0.0007920265197753906
ell 598, elapsed: 0.0007197856903076172
ell 597, elapsed: 0.0008289813995361328
ell 596, elapsed: 0.0007228851318359375
ell 595, elapsed: 0.0006020069122314453
ell 594, elapsed: 0.0004608631134033203
ell 593, elapsed: 0.0005779266357421875
ell 592, elapsed: 0.000492095947265625
ell 591, elapsed: 0.0005860328674316406
ell 590, elapsed: 0.00046896934509277344
ell 589, elapsed: 0.0006170272827148438
ell 588, elapsed: 0.0006489753723144531
ell 587, elapsed: 0.0006020069122314453
ell 586, elapsed: 0.0005121231079101562
ell 585, elapsed: 0.0006029605865478516
ell 584, elapsed: 0.0005090236663818359
ell 583, elapsed: 0.0008649826049804688
ell 582, elapsed: 0.0007498264312744141
ell 581, elapsed: 0.0006458759307861328
ell 580, elapsed: 0.0007538795471191406
ell 579, elapsed: 0.0008690357208251953
ell 578, elapsed: 0.0004868507385253906
ell 577, elapsed: 0.0005948543548583984
ell 576, elapsed: 0.0005218982696533203
ell 575, elapsed: 0.0005872249603271484
ell 574, elapsed: 0.0004901885986328125
ell 573, elapsed: 0.0005919933319091797
ell 572, elapsed: 0.0004889965057373047
ell 571, elapsed: 0.0006148815155029297
ell 570, elapsed: 0.0005080699920654297
ell 569, elapsed: 0.0005869865417480469
ell 568, elapsed: 0.0004780292510986328
ell 567, elapsed: 0.0005669593811035156
ell 566, elapsed: 0.0004849433898925781
ell 565, elapsed: 0.0006480216979980469
ell 564, elapsed: 0.0005140304565429688
ell 563, elapsed: 0.0006089210510253906
ell 562, elapsed: 0.0005121231079101562
ell 561, elapsed: 0.0005860328674316406
ell 560, elapsed: 0.0004038810729980469
ell 559, elapsed: 0.0004680156707763672
ell 558, elapsed: 0.0003829002380371094
ell 557, elapsed: 0.0004711151123046875
ell 556, elapsed: 0.00037980079650878906
ell 555, elapsed: 0.00047707557678222656
ell 554, elapsed: 0.0004048347473144531
ell 553, elapsed: 0.0004849433898925781
ell 552, elapsed: 0.00038886070251464844
ell 551, elapsed: 0.0005171298980712891
ell 550, elapsed: 0.0003848075866699219
ell 549, elapsed: 0.0004661083221435547
ell 548, elapsed: 0.0003809928894042969
ell 547, elapsed: 0.0004649162292480469
ell 546, elapsed: 0.0003840923309326172
ell 545, elapsed: 0.0004680156707763672
ell 544, elapsed: 0.0003879070281982422
ell 543, elapsed: 0.0005128383636474609
ell 542, elapsed: 0.00040984153747558594
ell 541, elapsed: 0.0004930496215820312
ell 540, elapsed: 0.00038909912109375
ell 539, elapsed: 0.0004620552062988281
ell 538, elapsed: 0.0003960132598876953
ell 537, elapsed: 0.00043487548828125
ell 536, elapsed: 0.00039505958557128906
ell 535, elapsed: 0.0004489421844482422
ell 534, elapsed: 0.00037217140197753906
ell 533, elapsed: 0.0007231235504150391
ell 532, elapsed: 0.0006470680236816406
ell 531, elapsed: 0.0010387897491455078
ell 530, elapsed: 0.00037097930908203125
ell 529, elapsed: 0.0003628730773925781
ell 528, elapsed: 0.0003399848937988281
ell 527, elapsed: 0.0003750324249267578
ell 526, elapsed: 0.0003180503845214844
ell 525, elapsed: 0.0003719329833984375
ell 524, elapsed: 0.0003018379211425781
ell 523, elapsed: 0.0003628730773925781
ell 522, elapsed: 0.0003018379211425781
ell 521, elapsed: 0.0003650188446044922
ell 520, elapsed: 0.0003020763397216797
ell 519, elapsed: 0.0003638267517089844
ell 518, elapsed: 0.0002989768981933594
ell 517, elapsed: 0.0038700103759765625
ell 516, elapsed: 0.0005991458892822266
ell 515, elapsed: 0.0009059906005859375
ell 514, elapsed: 0.0005350112915039062
ell 513, elapsed: 0.0004048347473144531
ell 512, elapsed: 0.0003170967102050781
ell 511, elapsed: 0.00038504600524902344
ell 510, elapsed: 0.00030994415283203125
ell 509, elapsed: 0.0003848075866699219
ell 508, elapsed: 0.00034499168395996094
ell 507, elapsed: 0.00038504600524902344
ell 506, elapsed: 0.0003139972686767578
ell 505, elapsed: 0.0003809928894042969
ell 504, elapsed: 0.0003139972686767578
ell 503, elapsed: 0.00038695335388183594
ell 502, elapsed: 0.00031304359436035156
ell 501, elapsed: 0.00037288665771484375
ell 500, elapsed: 0.00031495094299316406
ell 499, elapsed: 0.00037980079650878906
ell 498, elapsed: 0.00030493736267089844
ell 497, elapsed: 0.0006661415100097656
ell 496, elapsed: 0.0006070137023925781
ell 495, elapsed: 0.0006909370422363281
ell 494, elapsed: 0.000453948974609375
ell 493, elapsed: 0.00039005279541015625
ell 492, elapsed: 0.00031185150146484375
ell 491, elapsed: 0.00037288665771484375
ell 490, elapsed: 0.0003581047058105469
ell 489, elapsed: 0.0005960464477539062
ell 488, elapsed: 0.0006251335144042969
ell 487, elapsed: 0.0006020069122314453
ell 486, elapsed: 0.0005781650543212891
ell 485, elapsed: 0.0003879070281982422
ell 484, elapsed: 0.0003101825714111328
ell 483, elapsed: 0.0003788471221923828
ell 482, elapsed: 0.0004990100860595703
ell 481, elapsed: 0.0007967948913574219
ell 480, elapsed: 0.0006208419799804688
ell 479, elapsed: 0.0007448196411132812
ell 478, elapsed: 0.0006148815155029297
ell 477, elapsed: 0.0006089210510253906
ell 476, elapsed: 0.0006380081176757812
ell 475, elapsed: 0.0005970001220703125
ell 474, elapsed: 0.0006308555603027344
ell 473, elapsed: 0.0005948543548583984
ell 472, elapsed: 0.0006480216979980469
ell 471, elapsed: 0.0007619857788085938
ell 470, elapsed: 0.0006878376007080078
ell 469, elapsed: 0.0008070468902587891
ell 468, elapsed: 0.0006468296051025391
ell 467, elapsed: 0.0005519390106201172
ell 466, elapsed: 0.0006687641143798828
ell 465, elapsed: 0.0007810592651367188
ell 464, elapsed: 0.0006511211395263672
ell 463, elapsed: 0.0006580352783203125
ell 462, elapsed: 0.0006198883056640625
ell 461, elapsed: 0.0003840923309326172
ell 460, elapsed: 0.0003101825714111328
ell 459, elapsed: 0.0003819465637207031
ell 458, elapsed: 0.00030803680419921875
ell 457, elapsed: 0.0003712177276611328
ell 456, elapsed: 0.0003209114074707031
ell 455, elapsed: 0.00037288665771484375
ell 454, elapsed: 0.00031113624572753906
ell 453, elapsed: 0.0003750324249267578
ell 452, elapsed: 0.00030803680419921875
ell 451, elapsed: 0.0004031658172607422
ell 450, elapsed: 0.0003020763397216797
ell 449, elapsed: 0.0004279613494873047
ell 448, elapsed: 0.0003120899200439453
ell 447, elapsed: 0.00036406517028808594
ell 446, elapsed: 0.00030112266540527344
ell 445, elapsed: 0.0003688335418701172
ell 444, elapsed: 0.00030684471130371094
ell 443, elapsed: 0.000370025634765625
ell 442, elapsed: 0.0003070831298828125
ell 441, elapsed: 0.00037789344787597656
ell 440, elapsed: 0.0003108978271484375
ell 439, elapsed: 0.0003669261932373047
ell 438, elapsed: 0.00032401084899902344
ell 437, elapsed: 0.00036907196044921875
ell 436, elapsed: 0.00030994415283203125
ell 435, elapsed: 0.0003829002380371094
ell 434, elapsed: 0.00030493736267089844
ell 433, elapsed: 0.000370025634765625
ell 432, elapsed: 0.0003077983856201172
ell 431, elapsed: 0.0003750324249267578
ell 430, elapsed: 0.00042510032653808594
ell 429, elapsed: 0.0006449222564697266
ell 428, elapsed: 0.0005939006805419922
ell 427, elapsed: 0.0007181167602539062
ell 426, elapsed: 0.00074005126953125
ell 425, elapsed: 0.0006170272827148438
ell 424, elapsed: 0.000659942626953125
ell 423, elapsed: 0.00084686279296875
ell 422, elapsed: 0.0007669925689697266
ell 421, elapsed: 0.0009260177612304688
ell 420, elapsed: 0.0007979869842529297
ell 419, elapsed: 0.0007688999176025391
ell 418, elapsed: 0.0007271766662597656
ell 417, elapsed: 0.0009179115295410156
ell 416, elapsed: 0.0008299350738525391
ell 415, elapsed: 0.0008339881896972656
ell 414, elapsed: 0.0005350112915039062
ell 413, elapsed: 0.0008471012115478516
ell 412, elapsed: 0.0006878376007080078
ell 411, elapsed: 0.0009448528289794922
ell 410, elapsed: 0.0007789134979248047
ell 409, elapsed: 0.0006101131439208984
ell 408, elapsed: 0.0004870891571044922
ell 407, elapsed: 0.0005998611450195312
ell 406, elapsed: 0.0004980564117431641
ell 405, elapsed: 0.0008511543273925781
ell 404, elapsed: 0.00074005126953125
ell 403, elapsed: 0.0008478164672851562
ell 402, elapsed: 0.0007729530334472656
ell 401, elapsed: 0.0008790493011474609
ell 400, elapsed: 0.0007460117340087891
ell 399, elapsed: 0.0009150505065917969
ell 398, elapsed: 0.0006151199340820312
ell 397, elapsed: 0.0009489059448242188
ell 396, elapsed: 0.0008089542388916016
ell 395, elapsed: 0.0008161067962646484
ell 394, elapsed: 0.0006039142608642578
ell 393, elapsed: 0.0008461475372314453
ell 392, elapsed: 0.0006129741668701172
ell 391, elapsed: 0.0009789466857910156
ell 390, elapsed: 0.0008039474487304688
ell 389, elapsed: 0.0008502006530761719
ell 388, elapsed: 0.0008211135864257812
ell 387, elapsed: 0.0007789134979248047
ell 386, elapsed: 0.0007529258728027344
ell 385, elapsed: 0.0007550716400146484
ell 384, elapsed: 0.0008108615875244141
ell 383, elapsed: 0.0008649826049804688
ell 382, elapsed: 0.0005950927734375
ell 381, elapsed: 0.0009729862213134766
ell 380, elapsed: 0.0006821155548095703
ell 379, elapsed: 0.0007688999176025391
ell 378, elapsed: 0.0006029605865478516
ell 377, elapsed: 0.0008308887481689453
ell 376, elapsed: 0.0007760524749755859
ell 375, elapsed: 0.0008080005645751953
ell 374, elapsed: 0.0007319450378417969
ell 373, elapsed: 0.0005538463592529297
ell 372, elapsed: 0.0005178451538085938
ell 371, elapsed: 0.0009670257568359375
ell 370, elapsed: 0.0007109642028808594
ell 369, elapsed: 0.0008318424224853516
ell 368, elapsed: 0.0007448196411132812
ell 367, elapsed: 0.0007979869842529297
ell 366, elapsed: 0.0006949901580810547
ell 365, elapsed: 0.0009679794311523438
ell 364, elapsed: 0.0007319450378417969
ell 363, elapsed: 0.0007750988006591797
ell 362, elapsed: 0.0007550716400146484
ell 361, elapsed: 0.0007607936859130859
ell 360, elapsed: 0.0007979869842529297
ell 359, elapsed: 0.0008568763732910156
ell 358, elapsed: 0.0007920265197753906
ell 357, elapsed: 0.0006330013275146484
ell 356, elapsed: 0.0006451606750488281
ell 355, elapsed: 0.0008649826049804688
ell 354, elapsed: 0.000804901123046875
ell 353, elapsed: 0.0007650852203369141
ell 352, elapsed: 0.0008399486541748047
ell 351, elapsed: 0.0008649826049804688
ell 350, elapsed: 0.0007679462432861328
ell 349, elapsed: 0.0008389949798583984
ell 348, elapsed: 0.0005819797515869141
ell 347, elapsed: 0.0009799003601074219
ell 346, elapsed: 0.0007078647613525391
ell 345, elapsed: 0.0009849071502685547
ell 344, elapsed: 0.0007700920104980469
ell 343, elapsed: 0.0008389949798583984
ell 342, elapsed: 0.0008409023284912109
ell 341, elapsed: 0.0008590221405029297
ell 340, elapsed: 0.0008759498596191406
ell 339, elapsed: 0.0009720325469970703
ell 338, elapsed: 0.0007960796356201172
ell 337, elapsed: 0.0008029937744140625
ell 336, elapsed: 0.0008258819580078125
ell 335, elapsed: 0.0009260177612304688
ell 334, elapsed: 0.0007910728454589844
ell 333, elapsed: 0.0008211135864257812
ell 332, elapsed: 0.0006098747253417969
ell 331, elapsed: 0.000965118408203125
ell 330, elapsed: 0.000762939453125
ell 329, elapsed: 0.0006270408630371094
ell 328, elapsed: 0.0007069110870361328
ell 327, elapsed: 0.000843048095703125
ell 326, elapsed: 0.0008211135864257812
ell 325, elapsed: 0.0008389949798583984
ell 324, elapsed: 0.0005099773406982422
ell 323, elapsed: 0.0008409023284912109
ell 322, elapsed: 0.0005929470062255859
ell 321, elapsed: 0.0009779930114746094
ell 320, elapsed: 0.0007731914520263672
ell 319, elapsed: 0.0005970001220703125
ell 318, elapsed: 0.0007867813110351562
ell 317, elapsed: 0.0009319782257080078
ell 316, elapsed: 0.0007739067077636719
ell 315, elapsed: 0.0008709430694580078
ell 314, elapsed: 0.0005810260772705078
ell 313, elapsed: 0.0009891986846923828
ell 312, elapsed: 0.0008029937744140625
ell 311, elapsed: 0.001004934310913086
ell 310, elapsed: 0.0007879734039306641
ell 309, elapsed: 0.0009009838104248047
ell 308, elapsed: 0.0007791519165039062
ell 307, elapsed: 0.0007851123809814453
ell 306, elapsed: 0.0007550716400146484
ell 305, elapsed: 0.000982046127319336
ell 304, elapsed: 0.0007181167602539062
ell 303, elapsed: 0.0009639263153076172
ell 302, elapsed: 0.0007760524749755859
ell 301, elapsed: 0.0007500648498535156
ell 300, elapsed: 0.0006320476531982422
ell 299, elapsed: 0.0008280277252197266
ell 298, elapsed: 0.0006189346313476562
ell 297, elapsed: 0.0005249977111816406
ell 296, elapsed: 0.0004229545593261719
ell 295, elapsed: 0.0005970001220703125
ell 294, elapsed: 0.0006158351898193359
ell 293, elapsed: 0.0005941390991210938
ell 292, elapsed: 0.0006279945373535156
ell 291, elapsed: 0.0006492137908935547
ell 290, elapsed: 0.0006158351898193359
ell 289, elapsed: 0.0006160736083984375
ell 288, elapsed: 0.0005960464477539062
ell 287, elapsed: 0.0005869865417480469
ell 286, elapsed: 0.0006229877471923828
ell 285, elapsed: 0.0006120204925537109
ell 284, elapsed: 0.000637054443359375
ell 283, elapsed: 0.00061798095703125
ell 282, elapsed: 0.0004391670227050781
ell 281, elapsed: 0.0005159378051757812
ell 280, elapsed: 0.0004189014434814453
ell 279, elapsed: 0.0005199909210205078
ell 278, elapsed: 0.0006639957427978516
ell 277, elapsed: 0.0006279945373535156
ell 276, elapsed: 0.0006299018859863281
ell 275, elapsed: 0.0008039474487304688
ell 274, elapsed: 0.000659942626953125
ell 273, elapsed: 0.0006861686706542969
ell 272, elapsed: 0.00061798095703125
ell 271, elapsed: 0.0008111000061035156
ell 270, elapsed: 0.000637054443359375
ell 269, elapsed: 0.0007739067077636719
ell 268, elapsed: 0.0004279613494873047
ell 267, elapsed: 0.000514984130859375
ell 266, elapsed: 0.0004248619079589844
ell 265, elapsed: 0.0005071163177490234
ell 264, elapsed: 0.0004420280456542969
ell 263, elapsed: 0.0005137920379638672
ell 262, elapsed: 0.0006070137023925781
ell 261, elapsed: 0.0007700920104980469
ell 260, elapsed: 0.000453948974609375
ell 259, elapsed: 0.000514984130859375
ell 258, elapsed: 0.0004119873046875
ell 257, elapsed: 0.0005300045013427734
ell 256, elapsed: 0.0004258155822753906
ell 255, elapsed: 0.000514984130859375
ell 254, elapsed: 0.0006029605865478516
ell 253, elapsed: 0.0008249282836914062
ell 252, elapsed: 0.0005991458892822266
ell 251, elapsed: 0.0007410049438476562
ell 250, elapsed: 0.0006020069122314453
ell 249, elapsed: 0.0005829334259033203
ell 248, elapsed: 0.00044608116149902344
ell 247, elapsed: 0.0008108615875244141
ell 246, elapsed: 0.0006239414215087891
ell 245, elapsed: 0.0008380413055419922
ell 244, elapsed: 0.0006010532379150391
ell 243, elapsed: 0.0008099079132080078
ell 242, elapsed: 0.0006299018859863281
ell 241, elapsed: 0.0007321834564208984
ell 240, elapsed: 0.0006017684936523438
ell 239, elapsed: 0.0006430149078369141
ell 238, elapsed: 0.0006511211395263672
ell 237, elapsed: 0.0007829666137695312
ell 236, elapsed: 0.0006840229034423828
ell 235, elapsed: 0.0006680488586425781
ell 234, elapsed: 0.0006918907165527344
ell 233, elapsed: 0.0007569789886474609
ell 232, elapsed: 0.0006170272827148438
ell 231, elapsed: 0.0006351470947265625
ell 230, elapsed: 0.0006508827209472656
ell 229, elapsed: 0.0006289482116699219
ell 228, elapsed: 0.0006999969482421875
ell 227, elapsed: 0.0007889270782470703
ell 226, elapsed: 0.0006201267242431641
ell 225, elapsed: 0.0008029937744140625
ell 224, elapsed: 0.0006740093231201172
ell 223, elapsed: 0.0006210803985595703
ell 222, elapsed: 0.0005819797515869141
ell 221, elapsed: 0.0006170272827148438
ell 220, elapsed: 0.0006048679351806641
ell 219, elapsed: 0.0006020069122314453
ell 218, elapsed: 0.0006210803985595703
ell 217, elapsed: 0.0006098747253417969
ell 216, elapsed: 0.0006330013275146484
ell 215, elapsed: 0.0006330013275146484
ell 214, elapsed: 0.0006101131439208984
ell 213, elapsed: 0.0007979869842529297
ell 212, elapsed: 0.0006151199340820312
ell 211, elapsed: 0.0006279945373535156
ell 210, elapsed: 0.0006451606750488281
ell 209, elapsed: 0.0006999969482421875
ell 208, elapsed: 0.0004341602325439453
ell 207, elapsed: 0.0005080699920654297
ell 206, elapsed: 0.0004241466522216797
ell 205, elapsed: 0.0005869865417480469
ell 204, elapsed: 0.0006191730499267578
ell 203, elapsed: 0.0005998611450195312
ell 202, elapsed: 0.00067901611328125
ell 201, elapsed: 0.0007560253143310547
ell 200, elapsed: 0.00043702125549316406
ell 199, elapsed: 0.0005900859832763672
ell 198, elapsed: 0.0006730556488037109
ell 197, elapsed: 0.0006911754608154297
ell 196, elapsed: 0.0006260871887207031
ell 195, elapsed: 0.0005960464477539062
ell 194, elapsed: 0.0006539821624755859
ell 193, elapsed: 0.0005998611450195312
ell 192, elapsed: 0.0005819797515869141
ell 191, elapsed: 0.0006608963012695312
ell 190, elapsed: 0.0005841255187988281
ell 189, elapsed: 0.0005328655242919922
ell 188, elapsed: 0.0004100799560546875
ell 187, elapsed: 0.0004999637603759766
ell 186, elapsed: 0.0004279613494873047
ell 185, elapsed: 0.0007138252258300781
ell 184, elapsed: 0.0005710124969482422
ell 183, elapsed: 0.0007939338684082031
ell 182, elapsed: 0.000576019287109375
ell 181, elapsed: 0.0007190704345703125
ell 180, elapsed: 0.00047898292541503906
ell 179, elapsed: 0.0006999969482421875
ell 178, elapsed: 0.0006558895111083984
ell 177, elapsed: 0.0005691051483154297
ell 176, elapsed: 0.0006210803985595703
ell 175, elapsed: 0.0006458759307861328
ell 174, elapsed: 0.0006189346313476562
ell 173, elapsed: 0.0005791187286376953
ell 172, elapsed: 0.0006098747253417969
ell 171, elapsed: 0.0005748271942138672
ell 170, elapsed: 0.0005769729614257812
ell 169, elapsed: 0.0005719661712646484
ell 168, elapsed: 0.0006859302520751953
ell 167, elapsed: 0.0005841255187988281
ell 166, elapsed: 0.0008330345153808594
ell 165, elapsed: 0.0007319450378417969
ell 164, elapsed: 0.0005249977111816406
ell 163, elapsed: 0.0008740425109863281
ell 162, elapsed: 0.0007379055023193359
ell 161, elapsed: 0.0008790493011474609
ell 160, elapsed: 0.0007410049438476562
ell 159, elapsed: 0.0008199214935302734
ell 158, elapsed: 0.0005030632019042969
ell 157, elapsed: 0.0006680488586425781
ell 156, elapsed: 0.0006489753723144531
ell 155, elapsed: 0.0006320476531982422
ell 154, elapsed: 0.0007638931274414062
ell 153, elapsed: 0.0008380413055419922
ell 152, elapsed: 0.00046896934509277344
ell 151, elapsed: 0.0008690357208251953
ell 150, elapsed: 0.0006580352783203125
ell 149, elapsed: 0.0008361339569091797
ell 148, elapsed: 0.0004899501800537109
ell 147, elapsed: 0.0007328987121582031
ell 146, elapsed: 0.0006120204925537109
ell 145, elapsed: 0.0006480216979980469
ell 144, elapsed: 0.0005939006805419922
ell 143, elapsed: 0.0005998611450195312
ell 142, elapsed: 0.0006158351898193359
ell 141, elapsed: 0.0005550384521484375
ell 140, elapsed: 0.0006229877471923828
ell 139, elapsed: 0.0007760524749755859
ell 138, elapsed: 0.0006000995635986328
ell 137, elapsed: 0.0007672309875488281
ell 136, elapsed: 0.0006170272827148438
ell 135, elapsed: 0.0006649494171142578
ell 134, elapsed: 0.0004420280456542969
ell 133, elapsed: 0.0006721019744873047
ell 132, elapsed: 0.0006489753723144531
ell 131, elapsed: 0.0007479190826416016
ell 130, elapsed: 0.0004980564117431641
ell 129, elapsed: 0.0006639957427978516
ell 128, elapsed: 0.0006139278411865234
ell 127, elapsed: 0.0007429122924804688
ell 126, elapsed: 0.0006129741668701172
ell 125, elapsed: 0.0005900859832763672
ell 124, elapsed: 0.0006520748138427734
ell 123, elapsed: 0.0007331371307373047
ell 122, elapsed: 0.0006718635559082031
ell 121, elapsed: 0.0005822181701660156
ell 120, elapsed: 0.0006341934204101562
ell 119, elapsed: 0.0005629062652587891
ell 118, elapsed: 0.0006020069122314453
ell 117, elapsed: 0.0005719661712646484
ell 116, elapsed: 0.0006139278411865234
ell 115, elapsed: 0.0007550716400146484
ell 114, elapsed: 0.0006430149078369141
ell 113, elapsed: 0.0007100105285644531
ell 112, elapsed: 0.0006120204925537109
ell 111, elapsed: 0.0007829666137695312
ell 110, elapsed: 0.0006000995635986328
ell 109, elapsed: 0.0007710456848144531
ell 108, elapsed: 0.0006639957427978516
ell 107, elapsed: 0.0007250308990478516
ell 106, elapsed: 0.000659942626953125
ell 105, elapsed: 0.0007679462432861328
ell 104, elapsed: 0.0005819797515869141
ell 103, elapsed: 0.0006070137023925781
ell 102, elapsed: 0.0006399154663085938
ell 101, elapsed: 0.000637054443359375
ell 100, elapsed: 0.0006570816040039062
ell 99, elapsed: 0.0006430149078369141
ell 98, elapsed: 0.0006089210510253906
ell 97, elapsed: 0.0006389617919921875
ell 96, elapsed: 0.0006451606750488281
ell 95, elapsed: 0.0006358623504638672
ell 94, elapsed: 0.0005929470062255859
ell 93, elapsed: 0.0006840229034423828
ell 92, elapsed: 0.0004401206970214844
ell 91, elapsed: 0.0006499290466308594
ell 90, elapsed: 0.0006158351898193359
ell 89, elapsed: 0.0005559921264648438
ell 88, elapsed: 0.0005931854248046875
ell 87, elapsed: 0.0007700920104980469
ell 86, elapsed: 0.0006029605865478516
ell 85, elapsed: 0.0005669593811035156
ell 84, elapsed: 0.0006289482116699219
ell 83, elapsed: 0.0007410049438476562
ell 82, elapsed: 0.0006470680236816406
ell 81, elapsed: 0.0007569789886474609
ell 80, elapsed: 0.000598907470703125
ell 79, elapsed: 0.0004978179931640625
ell 78, elapsed: 0.0005459785461425781
ell 77, elapsed: 0.0007188320159912109
ell 76, elapsed: 0.0004570484161376953
ell 75, elapsed: 0.0007541179656982422
ell 74, elapsed: 0.0006189346313476562
ell 73, elapsed: 0.0006818771362304688
ell 72, elapsed: 0.0006020069122314453
ell 71, elapsed: 0.0007088184356689453
ell 70, elapsed: 0.0006010532379150391
ell 69, elapsed: 0.0005979537963867188
ell 68, elapsed: 0.0006592273712158203
ell 67, elapsed: 0.0007681846618652344
ell 66, elapsed: 0.000637054443359375
ell 65, elapsed: 0.000598907470703125
ell 64, elapsed: 0.0009160041809082031
ell 63, elapsed: 0.0007789134979248047
ell 62, elapsed: 0.0008571147918701172
ell 61, elapsed: 0.0009930133819580078
ell 60, elapsed: 0.0008101463317871094
ell 59, elapsed: 0.0006380081176757812
ell 58, elapsed: 0.0006518363952636719
ell 57, elapsed: 0.0006649494171142578
ell 56, elapsed: 0.0006089210510253906
ell 55, elapsed: 0.0005729198455810547
ell 54, elapsed: 0.0006868839263916016
ell 53, elapsed: 0.0007719993591308594
ell 52, elapsed: 0.000637054443359375
ell 51, elapsed: 0.0006029605865478516
ell 50, elapsed: 0.0006489753723144531
ell 49, elapsed: 0.0005791187286376953
ell 48, elapsed: 0.00041103363037109375
ell 47, elapsed: 0.0007150173187255859
ell 46, elapsed: 0.0006039142608642578
ell 45, elapsed: 0.0005810260772705078
ell 44, elapsed: 0.0006558895111083984
ell 43, elapsed: 0.0007519721984863281
ell 42, elapsed: 0.0006439685821533203
ell 41, elapsed: 0.0007638931274414062
ell 40, elapsed: 0.0006570816040039062
ell 39, elapsed: 0.0005631446838378906
ell 38, elapsed: 0.0005700588226318359
ell 37, elapsed: 0.0005679130554199219
ell 36, elapsed: 0.00040793418884277344
ell 35, elapsed: 0.0006749629974365234
ell 34, elapsed: 0.0004417896270751953
ell 33, elapsed: 0.0007250308990478516
ell 32, elapsed: 0.0006070137023925781
ell 31, elapsed: 0.0006070137023925781
ell 30, elapsed: 0.0006282329559326172
ell 29, elapsed: 0.0007040500640869141
ell 28, elapsed: 0.0006070137023925781
ell 27, elapsed: 0.0007958412170410156
ell 26, elapsed: 0.0006091594696044922
ell 25, elapsed: 0.0005848407745361328
ell 24, elapsed: 0.0006279945373535156
ell 23, elapsed: 0.0007390975952148438
ell 22, elapsed: 0.0006067752838134766
ell 21, elapsed: 0.0007328987121582031
ell 20, elapsed: 0.00047898292541503906
ell 19, elapsed: 0.0006990432739257812
ell 18, elapsed: 0.0006129741668701172
ell 17, elapsed: 0.0007410049438476562
ell 16, elapsed: 0.00042319297790527344
ell 15, elapsed: 0.0004811286926269531
ell 14, elapsed: 0.0005788803100585938
ell 13, elapsed: 0.0005519390106201172
ell 12, elapsed: 0.0005929470062255859
ell 11, elapsed: 0.0006740093231201172
ell 10, elapsed: 0.0006170272827148438
ell 9, elapsed: 0.0007100105285644531
ell 8, elapsed: 0.0005929470062255859
ell 7, elapsed: 0.0007600784301757812
ell 6, elapsed: 0.0005040168762207031
ell 5, elapsed: 0.0006821155548095703
ell 4, elapsed: 0.0007479190826416016
ell 3, elapsed: 0.0007779598236083984
ell 2, elapsed: 0.0008151531219482422
ell 1, elapsed: 0.0007960796356201172
ell 0, elapsed: 0.0008099079132080078
  0.963125 seconds (41.19 k allocations: 2.939 MiB)
elapsed: 0.0021758079528808594
step:          0.081734 sec (0 allocations: 0 byte, 0.0% gc time)
swapping:      0.001074 sec (0 allocations: 0 byte, 0.0% gc time)
calc_Mellell!: 0.013144 sec (0 allocations: 0 byte, 0.0% gc time)
  t0 :  0.003172 sec (0 allocations: 0 byte, 0.0% gc time)
  tm2 : 0.127252 sec (0 allocations: 0 byte, 0.0% gc time)
  tm2s: 0.002191 sec (0 allocations: 0 byte, 0.0% gc time)
  tm4 : 0.313739 sec (0 allocations: 0 byte, 0.0% gc time)
  tp2 : 0.0 sec (0 allocations: 0 byte, 0.0% gc time)
  tp2s: 0.0 sec (0 allocations: 0 byte, 0.0% gc time)
  tp4 : 0.0 sec (0 allocations: 0 byte, 0.0% gc time)
calc_wtdll!:   0.467031 sec (9.87 k allocations: 1.043 MB, 0.0% gc time)
calc_wljj!:    0.049022 sec (689 allocations: 10.766 KB, 0.0% gc time)
mult_prefac!:  0.0 sec (0 allocations: 0 byte, 0.0% gc time)
convert:       0.0 sec (0 allocations: 0 byte, 0.0% gc time)
write:         0.082408 sec (0 allocations: 0 byte, 0.0% gc time)
test_rand_2f1: 0.0 sec (0 allocations: 0 byte, 0.0% gc time)
Closing outfile out/Ml21-cache.bin...   0.023892 seconds
  0.000627 seconds (52 allocations: 28.297 KiB)
make_phi():   0.002748 seconds (8.20 k allocations: 238.016 KiB)
  0.175385 seconds (146.69 k allocations: 3.629 MiB)
tskip:       0.001006 sec (0 allocations: 0 byte, 0.0% gc time)
tread:       0.026399 sec (19 allocations: 10.688 KB, 0.0% gc time)
tmultphi:    0.014012 sec (0 allocations: 0 byte, 0.0% gc time)
tbrfft:      0.047914 sec (9.592 k allocations: 449.625 KB, 0.0% gc time)
tmultprefac: 0.029268 sec (0 allocations: 0 byte, 0.0% gc time)
toutfunc:    0.054688 sec (129.905 k allocations: 2.421 MB, 0.0% gc time)
Testing R=1.0 ... passed
Calculating fmax: 
  dlrec    = 4
  dlrecRg1 = -4
  q=1.1, R=0.9:	  0.469341 seconds (116.47 k allocations: 15.614 MiB)

  0.469927 seconds (116.50 k allocations: 15.647 MiB)
ℓ = 1202
Δℓ = 4
ΔℓRg1 = -4
N = 1600
q = 1.1
kmin = 1.0e-5
kmax = 100000.00000000004
χ0 = 0.023029999999999995
RR = RR.tsv
ℓmax = ℓmax.bin
f21 = f21.bin
kmin = 1.0e-5
kmax = 100000.0
dlrec    = 4
dlrecRg1 = -4
Output size: 5741568 bytes = 0.005347251892089844 GiB
Output size: 51264 bytes = 4.774332046508789e-5 GiB
Reading 'out/F21EllCache'...   0.001510 seconds (267 allocations: 84.656 KiB)
ellmax: 1202
lmaxcache: 1202
fell[:,1,1] = Complex{Float64}[1.3482014726274674e-57 - 3.302141236118086e-73im, 1.357860004724329e-57 - 3.3257978169518355e-73im]
ell 1202, elapsed: 0.00022411346435546875
ell 1201, elapsed: 0.0006430149078369141
ell 1200, elapsed: 0.0006039142608642578
ell 1199, elapsed: 0.0005638599395751953
ell 1198, elapsed: 0.0005710124969482422
ell 1002, elapsed: 0.011884927749633789
ell 1001, elapsed: 0.0005350112915039062
ell 1000, elapsed: 0.0005979537963867188
ell 999, elapsed: 0.0007679462432861328
ell 998, elapsed: 0.0007348060607910156
ell 902, elapsed: 0.0061490535736083984
ell 901, elapsed: 0.0007641315460205078
ell 900, elapsed: 0.0007681846618652344
ell 899, elapsed: 0.0006132125854492188
ell 898, elapsed: 0.0007321834564208984
ell 802, elapsed: 0.005912065505981445
ell 801, elapsed: 0.0005109310150146484
ell 800, elapsed: 0.00045299530029296875
ell 799, elapsed: 0.00045180320739746094
ell 798, elapsed: 0.00044989585876464844
ell 702, elapsed: 0.005411863327026367
ell 701, elapsed: 0.0007300376892089844
ell 700, elapsed: 0.00046896934509277344
ell 699, elapsed: 0.0006699562072753906
ell 698, elapsed: 0.0006911754608154297
ell 602, elapsed: 0.005702018737792969
ell 601, elapsed: 0.0004620552062988281
ell 600, elapsed: 0.0006020069122314453
ell 599, elapsed: 0.0005748271942138672
ell 598, elapsed: 0.0007801055908203125
ell 502, elapsed: 0.006083965301513672
ell 501, elapsed: 0.0005848407745361328
ell 500, elapsed: 0.0005619525909423828
ell 499, elapsed: 0.0005660057067871094
ell 498, elapsed: 0.0005829334259033203
ell 402, elapsed: 0.005952119827270508
ell 401, elapsed: 0.0006051063537597656
ell 400, elapsed: 0.000576019287109375
ell 399, elapsed: 0.0005810260772705078
ell 398, elapsed: 0.0005681514739990234
ell 302, elapsed: 0.005939006805419922
ell 301, elapsed: 0.0006129741668701172
ell 300, elapsed: 0.0006558895111083984
ell 299, elapsed: 0.0006220340728759766
ell 298, elapsed: 0.0008552074432373047
ell 202, elapsed: 0.006000041961669922
ell 201, elapsed: 0.0006318092346191406
ell 200, elapsed: 0.0006320476531982422
ell 199, elapsed: 0.0005998611450195312
ell 198, elapsed: 0.0006079673767089844
ell 152, elapsed: 0.0032320022583007812
ell 151, elapsed: 0.0006229877471923828
ell 150, elapsed: 0.0005970001220703125
ell 149, elapsed: 0.0005929470062255859
ell 148, elapsed: 0.00061798095703125
ell 127, elapsed: 0.001958131790161133
ell 126, elapsed: 0.0006198883056640625
ell 125, elapsed: 0.0006070137023925781
ell 124, elapsed: 0.0006029605865478516
ell 123, elapsed: 0.0006260871887207031
ell 114, elapsed: 0.0011110305786132812
ell 113, elapsed: 0.000598907470703125
ell 112, elapsed: 0.0006120204925537109
ell 111, elapsed: 0.0005970001220703125
ell 110, elapsed: 0.0005979537963867188
ell 102, elapsed: 0.0011930465698242188
ell 101, elapsed: 0.0006039142608642578
ell 100, elapsed: 0.0006008148193359375
ell 99, elapsed: 0.0006170272827148438
ell 98, elapsed: 0.0005979537963867188
ell 97, elapsed: 0.0006639957427978516
ell 96, elapsed: 0.0007941722869873047
ell 95, elapsed: 0.0006780624389648438
ell 94, elapsed: 0.0007989406585693359
ell 93, elapsed: 0.0006690025329589844
ell 92, elapsed: 0.0007898807525634766
ell 91, elapsed: 0.0006608963012695312
ell 90, elapsed: 0.0007879734039306641
ell 89, elapsed: 0.0006630420684814453
ell 88, elapsed: 0.0007851123809814453
ell 87, elapsed: 0.0006561279296875
ell 86, elapsed: 0.0007808208465576172
ell 85, elapsed: 0.0006520748138427734
ell 84, elapsed: 0.0007579326629638672
ell 83, elapsed: 0.0006580352783203125
ell 82, elapsed: 0.0005450248718261719
ell 81, elapsed: 0.0006811618804931641
ell 80, elapsed: 0.0008978843688964844
ell 79, elapsed: 0.000843048095703125
ell 78, elapsed: 0.0010781288146972656
ell 77, elapsed: 0.0009429454803466797
ell 76, elapsed: 0.0009748935699462891
ell 75, elapsed: 0.0007450580596923828
ell 74, elapsed: 0.0008859634399414062
ell 73, elapsed: 0.0007379055023193359
ell 72, elapsed: 0.0008740425109863281
ell 71, elapsed: 0.0007679462432861328
ell 70, elapsed: 0.0008790493011474609
ell 69, elapsed: 0.00074005126953125
ell 68, elapsed: 0.0008709430694580078
ell 67, elapsed: 0.00074005126953125
ell 66, elapsed: 0.0008978843688964844
ell 65, elapsed: 0.0007340908050537109
ell 64, elapsed: 0.0008339881896972656
ell 63, elapsed: 0.0006809234619140625
ell 62, elapsed: 0.0005819797515869141
ell 61, elapsed: 0.0006442070007324219
ell 60, elapsed: 0.0006601810455322266
ell 59, elapsed: 0.0004050731658935547
ell 58, elapsed: 0.0006771087646484375
ell 57, elapsed: 0.0004901885986328125
ell 56, elapsed: 0.000743865966796875
ell 55, elapsed: 0.0006430149078369141
ell 54, elapsed: 0.0007770061492919922
ell 53, elapsed: 0.0005488395690917969
ell 52, elapsed: 0.0008139610290527344
ell 51, elapsed: 0.0007719993591308594
ell 50, elapsed: 0.0008559226989746094
ell 49, elapsed: 0.0005629062652587891
ell 48, elapsed: 0.0007860660552978516
ell 47, elapsed: 0.00041103363037109375
ell 46, elapsed: 0.0008609294891357422
ell 45, elapsed: 0.0006358623504638672
ell 44, elapsed: 0.0006439685821533203
ell 43, elapsed: 0.0006721019744873047
ell 42, elapsed: 0.0009000301361083984
ell 41, elapsed: 0.0005819797515869141
ell 40, elapsed: 0.0008158683776855469
ell 39, elapsed: 0.0007240772247314453
ell 38, elapsed: 0.0007979869842529297
ell 37, elapsed: 0.0006799697875976562
ell 36, elapsed: 0.0008471012115478516
ell 35, elapsed: 0.0007500648498535156
ell 34, elapsed: 0.0009031295776367188
ell 33, elapsed: 0.0006148815155029297
ell 32, elapsed: 0.0008990764617919922
ell 31, elapsed: 0.0007350444793701172
ell 30, elapsed: 0.000885009765625
ell 29, elapsed: 0.0007381439208984375
ell 28, elapsed: 0.0008950233459472656
ell 27, elapsed: 0.0006868839263916016
ell 26, elapsed: 0.0006680488586425781
ell 25, elapsed: 0.0006198883056640625
ell 24, elapsed: 0.0007421970367431641
ell 23, elapsed: 0.0005741119384765625
ell 22, elapsed: 0.000743865966796875
ell 21, elapsed: 0.0007100105285644531
ell 20, elapsed: 0.0007600784301757812
ell 19, elapsed: 0.0008399486541748047
ell 18, elapsed: 0.000782012939453125
ell 17, elapsed: 0.0006530284881591797
ell 16, elapsed: 0.0007040500640869141
ell 15, elapsed: 0.0004980564117431641
ell 14, elapsed: 0.0004978179931640625
ell 13, elapsed: 0.00041222572326660156
ell 12, elapsed: 0.0007081031799316406
ell 11, elapsed: 0.0006260871887207031
ell 10, elapsed: 0.0007548332214355469
ell 9, elapsed: 0.0006339550018310547
ell 8, elapsed: 0.0007510185241699219
ell 7, elapsed: 0.0006539821624755859
ell 6, elapsed: 0.0007581710815429688
ell 5, elapsed: 0.0006248950958251953
ell 4, elapsed: 0.0007469654083251953
ell 3, elapsed: 0.0006401538848876953
ell 2, elapsed: 0.0007879734039306641
ell 1, elapsed: 0.0006389617919921875
ell 0, elapsed: 0.0007548332214355469
  0.232448 seconds (10.83 k allocations: 697.938 KiB)
elapsed: 0.0007660388946533203
step:          0.06566 sec (0 allocations: 0 byte, 0.0% gc time)
swapping:      0.00067 sec (0 allocations: 0 byte, 0.0% gc time)
calc_Mellell!: 0.001872 sec (0 allocations: 0 byte, 0.0% gc time)
  t0 :  0.000582 sec (0 allocations: 0 byte, 0.0% gc time)
  tm2 : 0.017163 sec (0 allocations: 0 byte, 0.0% gc time)
  tm2s: 0.000383 sec (0 allocations: 0 byte, 0.0% gc time)
  tm4 : 0.0448 sec (0 allocations: 0 byte, 0.0% gc time)
  tp2 : 0.0 sec (0 allocations: 0 byte, 0.0% gc time)
  tp2s: 0.0 sec (0 allocations: 0 byte, 0.0% gc time)
  tp4 : 0.0 sec (0 allocations: 0 byte, 0.0% gc time)
calc_wtdll!:   0.063854 sec (1.344 k allocations: 147.0 KB, 0.0% gc time)
calc_wljj!:    0.005293 sec (6 allocations: 96 byte, 0.0% gc time)
mult_prefac!:  0.0 sec (0 allocations: 0 byte, 0.0% gc time)
convert:       0.0 sec (0 allocations: 0 byte, 0.0% gc time)
write:         0.007404 sec (0 allocations: 0 byte, 0.0% gc time)
test_rand_2f1: 0.0 sec (0 allocations: 0 byte, 0.0% gc time)
Closing outfile out/Ml21-cache.bin...   0.002355 seconds
  0.000273 seconds (52 allocations: 28.297 KiB)
make_phi():   0.002660 seconds (8.20 k allocations: 238.016 KiB)
  0.015518 seconds (12.10 k allocations: 322.000 KiB)
tskip:       1.9e-5 sec (0 allocations: 0 byte, 0.0% gc time)
tread:       0.002479 sec (19 allocations: 2.172 KB, 0.0% gc time)
tmultphi:    0.001275 sec (0 allocations: 0 byte, 0.0% gc time)
tbrfft:      0.004209 sec (896 allocations: 42.0 KB, 0.0% gc time)
tmultprefac: 0.002644 sec (0 allocations: 0 byte, 0.0% gc time)
toutfunc:    0.004912 sec (10.528 k allocations: 206.5 KB, 0.0% gc time)
Testing R=0.9 ... passed
Calculating fmax: 
  dlrec    = 4
  dlrecRg1 = -4
  q=1.1, R=0.8:	  0.381295 seconds (113.61 k allocations: 15.166 MiB, 5.90% gc time)

  0.381751 seconds (113.66 k allocations: 15.200 MiB, 5.89% gc time)
ℓ = 1202
Δℓ = 4
ΔℓRg1 = -4
N = 1600
q = 1.1
kmin = 1.0e-5
kmax = 100000.00000000004
χ0 = 0.023029999999999995
RR = RR.tsv
ℓmax = ℓmax.bin
f21 = f21.bin
kmin = 1.0e-5
kmax = 100000.0
dlrec    = 4
dlrecRg1 = -4
Output size: 5741568 bytes = 0.005347251892089844 GiB
Output size: 51264 bytes = 4.774332046508789e-5 GiB
Reading 'out/F21EllCache'...   0.001111 seconds (267 allocations: 84.656 KiB)
ellmax: 1202
lmaxcache: 1202
fell[:,1,1] = Complex{Float64}[7.519068145690986e-120 - 1.8416405474382574e-135im, 7.541664537386155e-120 - 1.847175067190611e-135im]
ell 1202, elapsed: 2.2172927856445312e-5
ell 1201, elapsed: 0.0005431175231933594
ell 1200, elapsed: 0.0005629062652587891
ell 1199, elapsed: 0.0005588531494140625
ell 1198, elapsed: 0.0005838871002197266
ell 1002, elapsed: 0.01055908203125
ell 1001, elapsed: 0.00038504600524902344
ell 1000, elapsed: 0.0003650188446044922
ell 999, elapsed: 0.0004940032958984375
ell 998, elapsed: 0.0005550384521484375
ell 902, elapsed: 0.005023956298828125
ell 901, elapsed: 0.000415802001953125
ell 900, elapsed: 0.0005359649658203125
ell 899, elapsed: 0.0005481243133544922
ell 898, elapsed: 0.0005731582641601562
ell 802, elapsed: 0.005572080612182617
ell 801, elapsed: 0.00038909912109375
ell 800, elapsed: 0.0003609657287597656
ell 799, elapsed: 0.0003581047058105469
ell 798, elapsed: 0.0005099773406982422
ell 702, elapsed: 0.00528717041015625
ell 701, elapsed: 0.0004470348358154297
ell 700, elapsed: 0.0005958080291748047
ell 699, elapsed: 0.00042510032653808594
ell 698, elapsed: 0.0006020069122314453
ell 602, elapsed: 0.005388975143432617
ell 601, elapsed: 0.0005130767822265625
ell 600, elapsed: 0.00044083595275878906
ell 599, elapsed: 0.0004401206970214844
ell 598, elapsed: 0.0005958080291748047
ell 502, elapsed: 0.005146026611328125
ell 501, elapsed: 0.0004940032958984375
ell 500, elapsed: 0.0004661083221435547
ell 499, elapsed: 0.00043082237243652344
ell 498, elapsed: 0.0004410743713378906
ell 402, elapsed: 0.005126953125
ell 401, elapsed: 0.0004878044128417969
ell 400, elapsed: 0.0006971359252929688
ell 399, elapsed: 0.0006160736083984375
ell 398, elapsed: 0.0006060600280761719
ell 302, elapsed: 0.005280017852783203
ell 301, elapsed: 0.0006318092346191406
ell 300, elapsed: 0.000659942626953125
ell 299, elapsed: 0.0006470680236816406
ell 298, elapsed: 0.0006451606750488281
ell 202, elapsed: 0.005735874176025391
ell 201, elapsed: 0.0006899833679199219
ell 200, elapsed: 0.0004699230194091797
ell 199, elapsed: 0.0006530284881591797
ell 198, elapsed: 0.0005800724029541016
ell 152, elapsed: 0.002746105194091797
ell 151, elapsed: 0.0004858970642089844
ell 150, elapsed: 0.0006220340728759766
ell 149, elapsed: 0.0006649494171142578
ell 148, elapsed: 0.0004951953887939453
ell 127, elapsed: 0.001608133316040039
ell 126, elapsed: 0.0006439685821533203
ell 125, elapsed: 0.0006189346313476562
ell 124, elapsed: 0.00045990943908691406
ell 123, elapsed: 0.00045299530029296875
ell 114, elapsed: 0.0011730194091796875
ell 113, elapsed: 0.0006570816040039062
ell 112, elapsed: 0.00067901611328125
ell 111, elapsed: 0.0006458759307861328
ell 110, elapsed: 0.0007119178771972656
ell 102, elapsed: 0.0009531974792480469
ell 101, elapsed: 0.0004391670227050781
ell 100, elapsed: 0.000453948974609375
ell 99, elapsed: 0.0005741119384765625
ell 98, elapsed: 0.00043392181396484375
ell 97, elapsed: 0.0004940032958984375
ell 96, elapsed: 0.0006010532379150391
ell 95, elapsed: 0.0007238388061523438
ell 94, elapsed: 0.0006058216094970703
ell 93, elapsed: 0.0004918575286865234
ell 92, elapsed: 0.0005800724029541016
ell 91, elapsed: 0.0004870891571044922
ell 90, elapsed: 0.0005919933319091797
ell 89, elapsed: 0.0004780292510986328
ell 88, elapsed: 0.0005819797515869141
ell 87, elapsed: 0.0006918907165527344
ell 86, elapsed: 0.0007538795471191406
ell 85, elapsed: 0.0007050037384033203
ell 84, elapsed: 0.0007379055023193359
ell 83, elapsed: 0.00047206878662109375
ell 82, elapsed: 0.0007939338684082031
ell 81, elapsed: 0.0004360675811767578
ell 80, elapsed: 0.0005521774291992188
ell 79, elapsed: 0.000637054443359375
ell 78, elapsed: 0.0006117820739746094
ell 77, elapsed: 0.0006680488586425781
ell 76, elapsed: 0.0007650852203369141
ell 75, elapsed: 0.0004520416259765625
ell 74, elapsed: 0.0005340576171875
ell 73, elapsed: 0.0005779266357421875
ell 72, elapsed: 0.0008449554443359375
ell 71, elapsed: 0.0006000995635986328
ell 70, elapsed: 0.0005869865417480469
ell 69, elapsed: 0.00045299530029296875
[...]
ell 789, elapsed: 0.0008378028869628906
ell 788, elapsed: 0.0008461475372314453
ell 782, elapsed: 0.0015759468078613281
ell 781, elapsed: 0.0008120536804199219
ell 780, elapsed: 0.0008308887481689453
ell 779, elapsed: 0.0008158683776855469
ell 778, elapsed: 0.0008261203765869141
ell 772, elapsed: 0.0015540122985839844
ell 771, elapsed: 0.000823974609375
ell 770, elapsed: 0.0008327960968017578
ell 769, elapsed: 0.000823974609375
ell 768, elapsed: 0.0008170604705810547
ell 762, elapsed: 0.0015552043914794922
ell 761, elapsed: 0.0008280277252197266
ell 760, elapsed: 0.0008249282836914062
ell 759, elapsed: 0.0008199214935302734
ell 758, elapsed: 0.0008420944213867188
ell 752, elapsed: 0.0015139579772949219
ell 751, elapsed: 0.0008230209350585938
ell 750, elapsed: 0.0008029937744140625
ell 749, elapsed: 0.0008111000061035156
ell 748, elapsed: 0.0008120536804199219
ell 742, elapsed: 0.0014629364013671875
ell 741, elapsed: 0.000804901123046875
ell 740, elapsed: 0.0008280277252197266
ell 739, elapsed: 0.0008170604705810547
ell 738, elapsed: 0.0007989406585693359
ell 732, elapsed: 0.0015168190002441406
ell 731, elapsed: 0.0008189678192138672
ell 730, elapsed: 0.0008089542388916016
ell 729, elapsed: 0.000804901123046875
ell 728, elapsed: 0.000823974609375
ell 722, elapsed: 0.0015349388122558594
ell 721, elapsed: 0.0007951259613037109
ell 720, elapsed: 0.0008101463317871094
ell 719, elapsed: 0.0008051395416259766
ell 718, elapsed: 0.0008099079132080078
ell 712, elapsed: 0.0015909671783447266
ell 711, elapsed: 0.0010609626770019531
ell 710, elapsed: 0.0007660388946533203
ell 709, elapsed: 0.0008270740509033203
ell 708, elapsed: 0.0008041858673095703
ell 702, elapsed: 0.0015668869018554688
ell 701, elapsed: 0.0008091926574707031
ell 700, elapsed: 0.0008180141448974609
ell 699, elapsed: 0.0008120536804199219
ell 698, elapsed: 0.0007910728454589844
ell 692, elapsed: 0.0016160011291503906
ell 691, elapsed: 0.0008111000061035156
ell 690, elapsed: 0.0008180141448974609
ell 689, elapsed: 0.0008039474487304688
ell 688, elapsed: 0.0008068084716796875
ell 682, elapsed: 0.0018241405487060547
ell 681, elapsed: 0.0007848739624023438
ell 680, elapsed: 0.0007979869842529297
ell 679, elapsed: 0.0007979869842529297
ell 678, elapsed: 0.0008161067962646484
ell 672, elapsed: 0.001538991928100586
ell 671, elapsed: 0.0008170604705810547
ell 670, elapsed: 0.0008118152618408203
ell 669, elapsed: 0.000820159912109375
ell 668, elapsed: 0.0008058547973632812
ell 662, elapsed: 0.0015349388122558594
ell 661, elapsed: 0.0008299350738525391
ell 660, elapsed: 0.0008060932159423828
ell 659, elapsed: 0.0008158683776855469
ell 658, elapsed: 0.0008111000061035156
ell 652, elapsed: 0.0015411376953125
ell 651, elapsed: 0.0008170604705810547
ell 650, elapsed: 0.0008170604705810547
ell 649, elapsed: 0.0008139610290527344
ell 648, elapsed: 0.0008189678192138672
ell 642, elapsed: 0.0015680789947509766
ell 641, elapsed: 0.0008058547973632812
ell 640, elapsed: 0.0008101463317871094
ell 639, elapsed: 0.0008080005645751953
ell 638, elapsed: 0.0008270740509033203
ell 632, elapsed: 0.001522064208984375
ell 631, elapsed: 0.0008130073547363281
ell 630, elapsed: 0.0007979869842529297
ell 629, elapsed: 0.0008218288421630859
ell 628, elapsed: 0.0008099079132080078
ell 622, elapsed: 0.0015611648559570312
ell 621, elapsed: 0.0008080005645751953
ell 620, elapsed: 0.0008089542388916016
ell 619, elapsed: 0.0008089542388916016
ell 618, elapsed: 0.0008039474487304688
ell 612, elapsed: 0.001605987548828125
ell 611, elapsed: 0.0008161067962646484
ell 610, elapsed: 0.0008130073547363281
ell 609, elapsed: 0.0008170604705810547
ell 608, elapsed: 0.0008068084716796875
ell 602, elapsed: 0.0015239715576171875
ell 601, elapsed: 0.0007989406585693359
ell 600, elapsed: 0.0008108615875244141
ell 599, elapsed: 0.0008070468902587891
ell 598, elapsed: 0.0008389949798583984
ell 592, elapsed: 0.0017080307006835938
ell 591, elapsed: 0.0007798671722412109
ell 590, elapsed: 0.0008208751678466797
ell 589, elapsed: 0.0008261203765869141
ell 588, elapsed: 0.000782012939453125
ell 582, elapsed: 0.0014660358428955078
ell 581, elapsed: 0.0007970333099365234
ell 580, elapsed: 0.0008170604705810547
ell 579, elapsed: 0.0007910728454589844
ell 578, elapsed: 0.0008289813995361328
ell 572, elapsed: 0.001786947250366211
ell 571, elapsed: 0.0008261203765869141
ell 570, elapsed: 0.000823974609375
ell 569, elapsed: 0.000823974609375
ell 568, elapsed: 0.0008120536804199219
ell 562, elapsed: 0.0015001296997070312
ell 561, elapsed: 0.0008108615875244141
ell 560, elapsed: 0.0008411407470703125
ell 559, elapsed: 0.000823974609375
ell 558, elapsed: 0.0008080005645751953
ell 552, elapsed: 0.0015017986297607422
ell 551, elapsed: 0.0007929801940917969
ell 550, elapsed: 0.0008149147033691406
ell 549, elapsed: 0.0008268356323242188
ell 548, elapsed: 0.0008161067962646484
ell 542, elapsed: 0.0015079975128173828
ell 541, elapsed: 0.0007948875427246094
ell 540, elapsed: 0.0008180141448974609
ell 539, elapsed: 0.0007960796356201172
ell 538, elapsed: 0.0008029937744140625
ell 532, elapsed: 0.0014939308166503906
ell 531, elapsed: 0.000804901123046875
ell 530, elapsed: 0.0008029937744140625
ell 529, elapsed: 0.0007948875427246094
ell 528, elapsed: 0.0008149147033691406
ell 522, elapsed: 0.0015189647674560547
ell 521, elapsed: 0.0008099079132080078
ell 520, elapsed: 0.0008070468902587891
ell 519, elapsed: 0.0007748603820800781
ell 518, elapsed: 0.0008251667022705078
ell 512, elapsed: 0.0015041828155517578
ell 511, elapsed: 0.0007889270782470703
ell 510, elapsed: 0.0008080005645751953
ell 509, elapsed: 0.0008220672607421875
ell 508, elapsed: 0.0008068084716796875
ell 502, elapsed: 0.0014908313751220703
ell 501, elapsed: 0.0011451244354248047
ell 500, elapsed: 0.0008869171142578125
ell 499, elapsed: 0.0008530616760253906
ell 498, elapsed: 0.0009179115295410156
ell 492, elapsed: 0.0016570091247558594
ell 491, elapsed: 0.0008549690246582031
ell 490, elapsed: 0.0008699893951416016
ell 489, elapsed: 0.0008740425109863281
ell 488, elapsed: 0.0009491443634033203
ell 482, elapsed: 0.0015759468078613281
ell 481, elapsed: 0.0009219646453857422
ell 480, elapsed: 0.0008511543273925781
ell 479, elapsed: 0.0008959770202636719
ell 478, elapsed: 0.0008678436279296875
ell 472, elapsed: 0.0015790462493896484
ell 471, elapsed: 0.00086212158203125
ell 470, elapsed: 0.0009021759033203125
ell 469, elapsed: 0.0008800029754638672
ell 468, elapsed: 0.0008690357208251953
ell 462, elapsed: 0.0016970634460449219
ell 461, elapsed: 0.0009250640869140625
ell 460, elapsed: 0.0008580684661865234
ell 459, elapsed: 0.0008721351623535156
ell 458, elapsed: 0.0008790493011474609
ell 452, elapsed: 0.0016169548034667969
ell 451, elapsed: 0.0008778572082519531
ell 450, elapsed: 0.0008661746978759766
ell 449, elapsed: 0.0008702278137207031
ell 448, elapsed: 0.0008649826049804688
ell 442, elapsed: 0.0015950202941894531
ell 441, elapsed: 0.0008668899536132812
ell 440, elapsed: 0.0008599758148193359
ell 439, elapsed: 0.0008680820465087891
ell 438, elapsed: 0.0008699893951416016
ell 432, elapsed: 0.0015859603881835938
ell 431, elapsed: 0.0009529590606689453
ell 430, elapsed: 0.0008502006530761719
ell 429, elapsed: 0.0008559226989746094
ell 428, elapsed: 0.0008749961853027344
ell 422, elapsed: 0.0015921592712402344
ell 421, elapsed: 0.00086212158203125
ell 420, elapsed: 0.0008828639984130859
ell 419, elapsed: 0.0008769035339355469
ell 418, elapsed: 0.0008630752563476562
ell 412, elapsed: 0.0016019344329833984
ell 411, elapsed: 0.0008568763732910156
ell 410, elapsed: 0.0008668899536132812
ell 409, elapsed: 0.0008859634399414062
ell 408, elapsed: 0.0008680820465087891
ell 402, elapsed: 0.0015821456909179688
ell 401, elapsed: 0.0008580684661865234
ell 400, elapsed: 0.0008549690246582031
ell 399, elapsed: 0.0008499622344970703
ell 398, elapsed: 0.0009691715240478516
ell 392, elapsed: 0.0016219615936279297
ell 391, elapsed: 0.000885009765625
ell 390, elapsed: 0.0008928775787353516
ell 389, elapsed: 0.0008699893951416016
ell 388, elapsed: 0.0008511543273925781
ell 382, elapsed: 0.0015459060668945312
ell 381, elapsed: 0.0008771419525146484
ell 380, elapsed: 0.0008418560028076172
ell 379, elapsed: 0.0007989406585693359
ell 378, elapsed: 0.0008339881896972656
ell 372, elapsed: 0.001589059829711914
ell 371, elapsed: 0.0008800029754638672
ell 370, elapsed: 0.0009229183197021484
ell 369, elapsed: 0.0009028911590576172
ell 368, elapsed: 0.0008709430694580078
ell 362, elapsed: 0.0016150474548339844
ell 361, elapsed: 0.0009012222290039062
ell 360, elapsed: 0.0008761882781982422
ell 359, elapsed: 0.0008559226989746094
ell 358, elapsed: 0.0008499622344970703
ell 352, elapsed: 0.0016360282897949219
ell 351, elapsed: 0.0008709430694580078
ell 350, elapsed: 0.0008661746978759766
ell 349, elapsed: 0.0008358955383300781
ell 348, elapsed: 0.0011570453643798828
ell 342, elapsed: 0.0016140937805175781
ell 341, elapsed: 0.0008330345153808594
ell 340, elapsed: 0.0008120536804199219
ell 339, elapsed: 0.00080108642578125
ell 338, elapsed: 0.0008070468902587891
ell 332, elapsed: 0.0015192031860351562
ell 331, elapsed: 0.0008211135864257812
ell 330, elapsed: 0.0008139610290527344
ell 329, elapsed: 0.0008120536804199219
ell 328, elapsed: 0.0008299350738525391
ell 322, elapsed: 0.0022919178009033203
ell 321, elapsed: 0.0008158683776855469
ell 320, elapsed: 0.0008070468902587891
ell 319, elapsed: 0.0008199214935302734
ell 318, elapsed: 0.0008158683776855469
ell 312, elapsed: 0.0015261173248291016
ell 311, elapsed: 0.0008111000061035156
ell 310, elapsed: 0.0009779930114746094
ell 309, elapsed: 0.0007939338684082031
ell 308, elapsed: 0.0007889270782470703
ell 302, elapsed: 0.001583099365234375
ell 301, elapsed: 0.0008101463317871094
ell 300, elapsed: 0.0008220672607421875
ell 299, elapsed: 0.0010828971862792969
ell 298, elapsed: 0.0008139610290527344
ell 292, elapsed: 0.0015349388122558594
ell 291, elapsed: 0.0008029937744140625
ell 290, elapsed: 0.0008180141448974609
ell 289, elapsed: 0.0007879734039306641
ell 288, elapsed: 0.0008108615875244141
ell 282, elapsed: 0.0015501976013183594
ell 281, elapsed: 0.0008301734924316406
ell 280, elapsed: 0.0008499622344970703
ell 279, elapsed: 0.0008189678192138672
ell 278, elapsed: 0.000823974609375
ell 272, elapsed: 0.0014739036560058594
ell 271, elapsed: 0.000823974609375
ell 270, elapsed: 0.0008080005645751953
ell 269, elapsed: 0.0007979869842529297
ell 268, elapsed: 0.0008089542388916016
ell 262, elapsed: 0.0015139579772949219
ell 261, elapsed: 0.0008029937744140625
ell 260, elapsed: 0.0007829666137695312
ell 259, elapsed: 0.0007991790771484375
ell 258, elapsed: 0.0008161067962646484
ell 252, elapsed: 0.0015139579772949219
ell 251, elapsed: 0.0008120536804199219
ell 250, elapsed: 0.000804901123046875
ell 249, elapsed: 0.0007929801940917969
ell 248, elapsed: 0.0008070468902587891
ell 242, elapsed: 0.0014607906341552734
ell 241, elapsed: 0.0008089542388916016
ell 240, elapsed: 0.0008068084716796875
ell 239, elapsed: 0.0008258819580078125
ell 238, elapsed: 0.00080108642578125
ell 232, elapsed: 0.0016870498657226562
ell 231, elapsed: 0.0007708072662353516
ell 230, elapsed: 0.0008170604705810547
ell 229, elapsed: 0.0007970333099365234
ell 228, elapsed: 0.0007889270782470703
ell 222, elapsed: 0.0015239715576171875
ell 221, elapsed: 0.0007970333099365234
ell 220, elapsed: 0.000823974609375
ell 219, elapsed: 0.0007998943328857422
ell 218, elapsed: 0.000804901123046875
ell 212, elapsed: 0.0014801025390625
ell 211, elapsed: 0.0007948875427246094
ell 210, elapsed: 0.0007979869842529297
ell 209, elapsed: 0.0008070468902587891
ell 208, elapsed: 0.0008349418640136719
ell 202, elapsed: 0.0016911029815673828
ell 201, elapsed: 0.0007579326629638672
ell 200, elapsed: 0.0007989406585693359
ell 199, elapsed: 0.0008180141448974609
ell 198, elapsed: 0.0008130073547363281
ell 192, elapsed: 0.00152587890625
ell 191, elapsed: 0.0008699893951416016
ell 190, elapsed: 0.0008800029754638672
ell 189, elapsed: 0.0008590221405029297
ell 188, elapsed: 0.0008668899536132812
ell 182, elapsed: 0.0016069412231445312
ell 181, elapsed: 0.0008618831634521484
ell 180, elapsed: 0.0008678436279296875
ell 179, elapsed: 0.0008649826049804688
ell 178, elapsed: 0.0008628368377685547
ell 172, elapsed: 0.00160980224609375
ell 171, elapsed: 0.0008568763732910156
ell 170, elapsed: 0.0009160041809082031
ell 169, elapsed: 0.0008370876312255859
ell 168, elapsed: 0.00078582763671875
ell 162, elapsed: 0.0015289783477783203
ell 161, elapsed: 0.0007941722869873047
ell 160, elapsed: 0.0007829666137695312
ell 159, elapsed: 0.0007920265197753906
ell 158, elapsed: 0.0007920265197753906
ell 152, elapsed: 0.0015158653259277344
ell 151, elapsed: 0.00080108642578125
ell 150, elapsed: 0.0008101463317871094
ell 149, elapsed: 0.0007958412170410156
ell 148, elapsed: 0.0008730888366699219
ell 142, elapsed: 0.0015180110931396484
ell 141, elapsed: 0.0008070468902587891
ell 140, elapsed: 0.0008080005645751953
ell 139, elapsed: 0.000804901123046875
ell 138, elapsed: 0.0008149147033691406
ell 132, elapsed: 0.0015058517456054688
ell 131, elapsed: 0.0008220672607421875
ell 130, elapsed: 0.0008318424224853516
ell 129, elapsed: 0.0008020401000976562
ell 128, elapsed: 0.0008211135864257812
ell 122, elapsed: 0.0015301704406738281
ell 121, elapsed: 0.0008130073547363281
ell 120, elapsed: 0.000804901123046875
ell 119, elapsed: 0.0008130073547363281
ell 118, elapsed: 0.00080108642578125
ell 112, elapsed: 0.0015261173248291016
ell 111, elapsed: 0.0008139610290527344
ell 110, elapsed: 0.0008177757263183594
ell 109, elapsed: 0.0008020401000976562
ell 108, elapsed: 0.0008251667022705078
ell 102, elapsed: 0.001500844955444336
ell 101, elapsed: 0.003101825714111328
ell 100, elapsed: 0.0031418800354003906
ell 99, elapsed: 0.003119945526123047
ell 98, elapsed: 0.0033631324768066406
ell 92, elapsed: 0.005889177322387695
ell 91, elapsed: 0.0031490325927734375
ell 90, elapsed: 0.0034050941467285156
ell 89, elapsed: 0.003142118453979492
ell 88, elapsed: 0.0031349658966064453
ell 82, elapsed: 0.0061798095703125
ell 81, elapsed: 0.003133058547973633
ell 80, elapsed: 0.0031468868255615234
ell 79, elapsed: 0.0031812191009521484
ell 78, elapsed: 0.0032248497009277344
ell 72, elapsed: 0.005937099456787109
ell 71, elapsed: 0.003428936004638672
ell 70, elapsed: 0.0031681060791015625
ell 69, elapsed: 0.0034439563751220703
ell 68, elapsed: 0.0031919479370117188
ell 62, elapsed: 0.006101131439208984
ell 61, elapsed: 0.003251791000366211
ell 60, elapsed: 0.003162860870361328
ell 59, elapsed: 0.003177165985107422
ell 58, elapsed: 0.0032570362091064453
ell 52, elapsed: 0.0061261653900146484
ell 51, elapsed: 0.0031900405883789062
ell 50, elapsed: 0.0034301280975341797
ell 49, elapsed: 0.003144979476928711
ell 48, elapsed: 0.0032351016998291016
ell 42, elapsed: 0.0063970088958740234
ell 41, elapsed: 0.0038988590240478516
ell 40, elapsed: 0.003741025924682617
ell 39, elapsed: 0.004181861877441406
ell 38, elapsed: 0.0043070316314697266
ell 32, elapsed: 0.006073951721191406
ell 31, elapsed: 0.003147125244140625
ell 30, elapsed: 0.003445148468017578
ell 29, elapsed: 0.0031778812408447266
ell 28, elapsed: 0.0044901371002197266
ell 22, elapsed: 0.006986141204833984
ell 21, elapsed: 0.00409698486328125
ell 20, elapsed: 0.003779888153076172
ell 19, elapsed: 0.0038208961486816406
ell 18, elapsed: 0.0034580230712890625
ell 12, elapsed: 0.0072078704833984375
ell 11, elapsed: 0.0037469863891601562
ell 10, elapsed: 0.0039010047912597656
ell 9, elapsed: 0.0037360191345214844
ell 8, elapsed: 0.003281116485595703
  0.857422 seconds (66.75 k allocations: 12.139 MiB)
elapsed: 0.0038650035858154297
step:          0.064193 sec (0 allocations: 0 byte, 0.0% gc time)
swapping:      0.000845 sec (0 allocations: 0 byte, 0.0% gc time)
calc_Mellell!: 0.040459 sec (0 allocations: 0 byte, 0.0% gc time)
  t0 :  0.026276 sec (0 allocations: 0 byte, 0.0% gc time)
  tm2 : 0.071293 sec (0 allocations: 0 byte, 0.0% gc time)
  tm2s: 0.008153 sec (0 allocations: 0 byte, 0.0% gc time)
  tm4 : 0.196899 sec (0 allocations: 0 byte, 0.0% gc time)
  tp2 : 0.0 sec (0 allocations: 0 byte, 0.0% gc time)
  tp2s: 0.0 sec (0 allocations: 0 byte, 0.0% gc time)
  tp4 : 0.0 sec (0 allocations: 0 byte, 0.0% gc time)
calc_wtdll!:   0.581919 sec (49.2 k allocations: 11.133 MB, 0.0% gc time)
calc_wljj!:    0.037316 sec (69 allocations: 1.078 KB, 0.0% gc time)
mult_prefac!:  0.0 sec (0 allocations: 0 byte, 0.0% gc time)
convert:       0.0 sec (0 allocations: 0 byte, 0.0% gc time)
write:         0.037708 sec (0 allocations: 0 byte, 0.0% gc time)
test_rand_2f1: 0.0 sec (0 allocations: 0 byte, 0.0% gc time)
Closing outfile out/MlCache/MlCache.bin...   0.000009 seconds
xi, l=0, nu=0:   0.500121 seconds (551.98 k allocations: 26.845 MiB, 3.09% gc time)
xi, l=0, nu=-2:  0.002309 seconds (144 allocations: 149.562 KiB)
Created 'out/xi.tsv'.
  q=1.1, R=0.6:	  0.746448 seconds (291.08 k allocations: 38.895 MiB, 1.60% gc time)
  q=1.1, R=0.7:	  0.869335 seconds (304.75 k allocations: 40.996 MiB, 1.08% gc time)
  q=1.1, R=0.8:	  0.872777 seconds (299.14 k allocations: 40.132 MiB, 0.83% gc time)
  q=1.1, R=0.9:	  1.030250 seconds (293.57 k allocations: 39.286 MiB)
  q=1.1, R=0.998:	 23.806037 seconds (10.67 M allocations: 823.453 MiB, 0.35% gc time)
  q=1.1, R=1.0:	  0.004172 seconds (10.24 k allocations: 768.375 KiB)

ℓ = 1000
Δℓ = 4
ΔℓRg1 = -4
N = 4096
q = 1.1
kmin = 1.0e-5
kmax = 1000.0
χ0 = 0.001
RR = RR.tsv
ℓmax = ℓmax.bin
f21 = f21.bin
kmin = 1.0e-5
kmax = 1000.0
dlrec    = 4
dlrecRg1 = -4
Output size: 1573632 bytes = 0.0014655590057373047 GiB
Output size: 786816 bytes = 0.0007327795028686523 GiB
Reading 'out/F21EllCache'...   0.001380 seconds (268 allocations: 533.531 KiB)
ellmax: 1002
lmaxcache: 1000
fell[:,1,1] = Complex{Float64}[1.7262928128202118e-224 - 4.2281979352226944e-240im, 1.7282693092099662e-224 - 4.233038955177176e-240im]
ell 1002, elapsed: 2.288818359375e-5
ell 1001, elapsed: 0.0007948875427246094
ell 1000, elapsed: 0.0007228851318359375
ell 999, elapsed: 0.007531881332397461
ell 998, elapsed: 0.01045989990234375
ell 44, elapsed: 0.7934279441833496
ell 43, elapsed: 0.006899118423461914
ell 42, elapsed: 0.0068149566650390625
ell 41, elapsed: 0.007235050201416016
ell 40, elapsed: 0.00751185417175293
  0.848857 seconds (4.55 k allocations: 320.359 KiB)
elapsed: 0.007105827331542969
step:          0.789837 sec (0 allocations: 0 byte, 0.0% gc time)
swapping:      0.000573 sec (0 allocations: 0 byte, 0.0% gc time)
calc_Mellell!: 0.001182 sec (0 allocations: 0 byte, 0.0% gc time)
  t0 :  0.00048 sec (0 allocations: 0 byte, 0.0% gc time)
  tm2 : 0.012614 sec (0 allocations: 0 byte, 0.0% gc time)
  tm2s: 0.000314 sec (0 allocations: 0 byte, 0.0% gc time)
  tm4 : 0.038259 sec (0 allocations: 0 byte, 0.0% gc time)
  tp2 : 0.0 sec (0 allocations: 0 byte, 0.0% gc time)
  tp2s: 0.0 sec (0 allocations: 0 byte, 0.0% gc time)
  tp4 : 0.0 sec (0 allocations: 0 byte, 0.0% gc time)
calc_wtdll!:   0.051868 sec (480 allocations: 52.5 KB, 0.0% gc time)
calc_wljj!:    0.00121 sec (1 allocations: 16 byte, 0.0% gc time)
mult_prefac!:  0.0 sec (0 allocations: 0 byte, 0.0% gc time)
convert:       0.0 sec (0 allocations: 0 byte, 0.0% gc time)
write:         0.00119 sec (0 allocations: 0 byte, 0.0% gc time)
test_rand_2f1: 0.0 sec (0 allocations: 0 byte, 0.0% gc time)
Closing outfile out/MlCache/MlCache.bin...   0.001195 seconds
  0.557070 seconds (54 allocations: 67.203 KiB)
make_phi():   0.009105 seconds (80 allocations: 276.297 KiB)
  0.003070 seconds (108 allocations: 5.812 KiB)
tskip:       1.0e-6 sec (0 allocations: 0 byte, 0.0% gc time)
tread:       0.000665 sec (19 allocations: 1.312 KB, 0.0% gc time)
tmultphi:    0.00038 sec (0 allocations: 0 byte, 0.0% gc time)
tbrfft:      0.001236 sec (96 allocations: 4.5 KB, 0.0% gc time)
tmultprefac: 0.000758 sec (0 allocations: 0 byte, 0.0% gc time)
toutfunc:    0.00014 sec (0 allocations: 0 byte, 0.0% gc time)
Created 'out/wl42_jj00.tsv'.
Created 'out/wl42_jj02.tsv'.
   Testing TwoFAST tests passed 
