Julia Version 1.6.0-DEV.1148
Commit 7d3dac44dc (2020-10-06 21:26 UTC)
Platform Info:
  OS: Linux (x86_64-pc-linux-gnu)
  CPU: AMD EPYC 7502 32-Core Processor
  WORD_SIZE: 64
  LIBM: libopenlibm
  LLVM: libLLVM-10.0.1 (ORCJIT, znver2)
Environment:
  JULIA_DEPOT_PATH = ::/usr/local/share/julia
  JULIA_NUM_THREADS = 2

  Resolving package versions...
  Installed MKL_jll ────────────────────── v2020.2.254+0
  Installed OpenSpecFun_jll ────────────── v0.5.3+3
  Installed IntelOpenMP_jll ────────────── v2018.0.3+0
  Installed GenericSVD ─────────────────── v0.3.0
  Installed BinaryProvider ─────────────── v0.5.10
  Installed FFTW ───────────────────────── v1.2.4
  Installed GenericSchur ───────────────── v0.4.0
  Installed CompilerSupportLibraries_jll ─ v0.3.3+0
  Installed Readables ──────────────────── v0.3.3
  Installed FFTW_jll ───────────────────── v3.3.9+5
  Installed Reexport ───────────────────── v0.2.0
  Installed AbstractFFTs ───────────────── v0.5.0
  Installed TwoFAST ────────────────────── v0.1.3
  Installed SpecialFunctions ───────────── v0.10.3
  Installed ArbNumerics ────────────────── v1.2.1
Updating `~/.julia/environments/v1.6/Project.toml`
  [0dd23c3e] + TwoFAST v0.1.3
Updating `~/.julia/environments/v1.6/Manifest.toml`
  [621f4979] + AbstractFFTs v0.5.0
  [7e558dbc] + ArbNumerics v1.2.1
  [b99e7846] + BinaryProvider v0.5.10
  [e66e0078] + CompilerSupportLibraries_jll v0.3.3+0
  [7a1cc6ca] + FFTW v1.2.4
  [f5851436] + FFTW_jll v3.3.9+5
  [01680d73] + GenericSVD v0.3.0
  [c145ed77] + GenericSchur v0.4.0
  [1d5cc7b8] + IntelOpenMP_jll v2018.0.3+0
  [856f044c] + MKL_jll v2020.2.254+0
  [efe28fd5] + OpenSpecFun_jll v0.5.3+3
  [0d4725de] + Readables v0.3.3
  [189a3867] + Reexport v0.2.0
  [276daf66] + SpecialFunctions v0.10.3
  [0dd23c3e] + TwoFAST v0.1.3
  [56f22d72] + Artifacts
  [2a0f44e3] + Base64
  [ade2ca70] + Dates
  [8bb1440f] + DelimitedFiles
  [b77e0a4c] + InteractiveUtils
  [76f85450] + LibGit2
  [8f399da3] + Libdl
  [37e2e46d] + LinearAlgebra
  [56ddb016] + Logging
  [d6f4376e] + Markdown
  [a63ad114] + Mmap
  [44cfe95a] + Pkg
  [de0858da] + Printf
  [3fa0cd96] + REPL
  [9a3f8284] + Random
  [ea8e919c] + SHA
  [9e88b42a] + Serialization
  [6462fe0b] + Sockets
  [fa267f1f] + TOML
  [8dfed614] + Test
  [cf7118a7] + UUIDs
  [4ec0a83e] + Unicode
   Building FFTW ───────→ `~/.julia/scratchspaces/44cfe95a-1eb2-52ea-b672-e2afdf69b78f/8b7c16b56936047ca41bf25effa137ae0b381ae8/build.log`
   Building ArbNumerics → `~/.julia/scratchspaces/44cfe95a-1eb2-52ea-b672-e2afdf69b78f/329a81d67c64e3a51c176a243b6424fbe39213d0/build.log`
    Testing TwoFAST
Status `/tmp/jl_SZuAT5/Project.toml`
  [7e558dbc] ArbNumerics v1.2.1
  [39dd38d3] Dierckx v0.5.0
  [7a1cc6ca] FFTW v1.2.4
  [276daf66] SpecialFunctions v0.10.3
  [0dd23c3e] TwoFAST v0.1.3
  [8bb1440f] DelimitedFiles
  [37e2e46d] LinearAlgebra
  [56ddb016] Logging
  [8dfed614] Test
Status `/tmp/jl_SZuAT5/Manifest.toml`
  [621f4979] AbstractFFTs v0.5.0
  [7e558dbc] ArbNumerics v1.2.1
  [b99e7846] BinaryProvider v0.5.10
  [e66e0078] CompilerSupportLibraries_jll v0.3.3+0
  [39dd38d3] Dierckx v0.5.0
  [cd4c43a9] Dierckx_jll v0.0.1+0
  [7a1cc6ca] FFTW v1.2.4
  [f5851436] FFTW_jll v3.3.9+5
  [01680d73] GenericSVD v0.3.0
  [c145ed77] GenericSchur v0.4.0
  [1d5cc7b8] IntelOpenMP_jll v2018.0.3+0
  [856f044c] MKL_jll v2020.2.254+0
  [efe28fd5] OpenSpecFun_jll v0.5.3+3
  [0d4725de] Readables v0.3.3
  [189a3867] Reexport v0.2.0
  [276daf66] SpecialFunctions v0.10.3
  [0dd23c3e] TwoFAST v0.1.3
  [56f22d72] Artifacts
  [2a0f44e3] Base64
  [ade2ca70] Dates
  [8bb1440f] DelimitedFiles
  [b77e0a4c] InteractiveUtils
  [76f85450] LibGit2
  [8f399da3] Libdl
  [37e2e46d] LinearAlgebra
  [56ddb016] Logging
  [d6f4376e] Markdown
  [a63ad114] Mmap
  [44cfe95a] Pkg
  [de0858da] Printf
  [3fa0cd96] REPL
  [9a3f8284] Random
  [ea8e919c] SHA
  [9e88b42a] Serialization
  [6462fe0b] Sockets
  [fa267f1f] TOML
  [8dfed614] Test
  [cf7118a7] UUIDs
  [4ec0a83e] Unicode
    Testing Running tests...
WARNING: could not import Printf.ini_hex into ArbNumerics
WARNING: could not import Printf.ini_HEX into ArbNumerics
t = 0.0 sec (0 allocations: 0 byte, 0.0% gc time)
typeof(t) = NamedTuple{(:value, :time, :bytes, :gctime, :gcstats), Tuple{DataType, Float64, Int64, Float64, Base.GC_Diff}}
TwoFAST.PerformanceStats.TimedType = Union{NamedTuple{(:value, :time, :bytes, :gctime, :gcstats), Tuple{T, Float64, Int64, Float64, Base.GC_Diff}}, Tuple{Any, Float64, Int64, Float64, Base.GC_Diff}} where T
t = 0.0 sec (0 allocations: 0 byte, 0.0% gc time)
t: 0.0 sec (0 allocations: 0 byte, 0.0% gc time)
Testing ξ(r), ℓ=0, ν=-1 ... passed
Testing ξ(r), ℓ=0, ν=0 ... passed
Testing ξ(r), ℓ=0, ν=1 ... passed
Testing ξ(r), ℓ=0, ν=2 ... passed
Testing ξ(r), ℓ=0, ν=3 ... passed
Testing ξ(r), ℓ=1, ν=0 ... passed
Testing ξ(r), ℓ=1, ν=1 ... passed
Testing ξ(r), ℓ=1, ν=2 ... passed
Testing ξ(r), ℓ=1, ν=3 ... passed
Testing ξ(r), ℓ=2, ν=-1 ... passed
Testing ξ(r), ℓ=2, ν=0 ... passed
Testing ξ(r), ℓ=2, ν=1 ... passed
Testing ξ(r), ℓ=2, ν=2 ... passed
Testing ξ(r), ℓ=2, ν=3 ... passed
Testing ξ(r), ℓ=3, ν=-1 ... passed
Testing ξ(r), ℓ=3, ν=0 ... passed
Testing ξ(r), ℓ=3, ν=1 ... passed
Testing ξ(r), ℓ=3, ν=2 ... passed
Testing ξ(r), ℓ=3, ν=3 ... passed
Testing ξ(r), ℓ=4, ν=-1 ... passed
Testing ξ(r), ℓ=4, ν=0 ... passed
Testing ξ(r), ℓ=4, ν=1 ... passed
Testing ξ(r), ℓ=4, ν=2 ... passed
Testing ξ(r), ℓ=4, ν=3 ... passed
Testing ξ(r) ... passed
Testing ξ′(r) ... passed
Testing ξ″(r) ... passed
Calculating fmax: 
  dlrec    = 4
  dlrecRg1 = -4
  q=1.1, R=1.1:	  3.671855 seconds (843.39 k allocations: 53.926 MiB, 92.62% compilation time)

  3.690387 seconds (855.88 k allocations: 54.713 MiB, 92.65% compilation time)
ℓ = 1202
Δℓ = 4
ΔℓRg1 = -4
N = 1600
q = 1.1
kmin = 1.0e-5
kmax = 100000.00000000004
χ0 = 0.023029999999999995
RR = RR.tsv
ℓmax = ℓmax.bin
f21 = f21.bin
kmin = 1.0e-5
kmax = 100000.0
dlrec    = 4
dlrecRg1 = -4
Output size: 5741568 bytes = 0.005347251892089844 GiB
Output size: 51264 bytes = 4.774332046508789e-5 GiB
Reading 'out/F21EllCache'...   0.654288 seconds (426.51 k allocations: 24.994 MiB, 5.26% gc time, 99.61% compilation time)
ellmax: 1202
lmaxcache: 1202
fell[:,1,1] = ComplexF64[3.9583795592771634e-52 - 9.695233714158177e-68im, 3.990121772925759e-52 - 9.772979714843386e-68im]
ell 1202, elapsed: 5.1021575927734375e-5
ell 1201, elapsed: 1.2915501594543457
ell 1200, elapsed: 0.00045609474182128906
ell 1199, elapsed: 0.00045108795166015625
ell 1198, elapsed: 0.0004930496215820312
ell 1002, elapsed: 0.008501052856445312
ell 1001, elapsed: 0.000492095947265625
ell 1000, elapsed: 0.00045299530029296875
ell 999, elapsed: 0.00045418739318847656
ell 998, elapsed: 0.0004711151123046875
ell 902, elapsed: 0.0044858455657958984
ell 901, elapsed: 0.00046515464782714844
ell 900, elapsed: 0.0004591941833496094
ell 899, elapsed: 0.0004730224609375
ell 898, elapsed: 0.0004630088806152344
ell 802, elapsed: 0.004466056823730469
ell 801, elapsed: 0.00045990943908691406
ell 800, elapsed: 0.00043892860412597656
ell 799, elapsed: 0.0004189014434814453
ell 798, elapsed: 0.0004200935363769531
ell 702, elapsed: 0.004395961761474609
ell 701, elapsed: 0.00043201446533203125
ell 700, elapsed: 0.0004200935363769531
ell 699, elapsed: 0.0004200935363769531
ell 698, elapsed: 0.0004181861877441406
ell 602, elapsed: 0.004431962966918945
ell 601, elapsed: 0.0004229545593261719
ell 600, elapsed: 0.0004191398620605469
ell 599, elapsed: 0.0004189014434814453
ell 598, elapsed: 0.00041794776916503906
ell 502, elapsed: 0.0043599605560302734
ell 501, elapsed: 0.00040984153747558594
ell 500, elapsed: 0.0004150867462158203
ell 499, elapsed: 0.0004401206970214844
ell 498, elapsed: 0.0004439353942871094
ell 402, elapsed: 0.004384040832519531
ell 401, elapsed: 0.0004150867462158203
ell 400, elapsed: 0.0004057884216308594
ell 399, elapsed: 0.00040793418884277344
ell 398, elapsed: 0.0004088878631591797
ell 302, elapsed: 0.004311084747314453
ell 301, elapsed: 0.0004220008850097656
ell 300, elapsed: 0.00043010711669921875
ell 299, elapsed: 0.0004069805145263672
ell 298, elapsed: 0.0004069805145263672
ell 202, elapsed: 0.004244089126586914
ell 201, elapsed: 0.0003921985626220703
ell 200, elapsed: 0.0003769397735595703
ell 199, elapsed: 0.00037407875061035156
ell 198, elapsed: 0.0003719329833984375
ell 152, elapsed: 0.0023529529571533203
ell 151, elapsed: 0.00039196014404296875
ell 150, elapsed: 0.0003859996795654297
ell 149, elapsed: 0.0003838539123535156
ell 148, elapsed: 0.0003879070281982422
ell 127, elapsed: 0.0012760162353515625
ell 126, elapsed: 0.0003871917724609375
ell 125, elapsed: 0.00038504600524902344
ell 124, elapsed: 0.00039505958557128906
ell 123, elapsed: 0.00038886070251464844
ell 114, elapsed: 0.0007789134979248047
ell 113, elapsed: 0.00039196014404296875
ell 112, elapsed: 0.00039386749267578125
ell 111, elapsed: 0.0003859996795654297
ell 110, elapsed: 0.0004780292510986328
ell 102, elapsed: 0.0007359981536865234
ell 101, elapsed: 0.0003898143768310547
ell 100, elapsed: 0.0003910064697265625
ell 99, elapsed: 0.00039196014404296875
ell 98, elapsed: 0.00038909912109375
ell 97, elapsed: 0.0004470348358154297
ell 96, elapsed: 0.0004429817199707031
ell 95, elapsed: 0.00048804283142089844
ell 94, elapsed: 0.0004341602325439453
ell 93, elapsed: 0.00045108795166015625
ell 92, elapsed: 0.0004410743713378906
ell 91, elapsed: 0.0004401206970214844
ell 90, elapsed: 0.0004401206970214844
ell 89, elapsed: 0.0004329681396484375
ell 88, elapsed: 0.00045299530029296875
ell 87, elapsed: 0.00043582916259765625
ell 86, elapsed: 0.0005838871002197266
ell 85, elapsed: 0.0004391670227050781
ell 84, elapsed: 0.0004329681396484375
ell 83, elapsed: 0.0004401206970214844
ell 82, elapsed: 0.0004360675811767578
ell 81, elapsed: 0.0004379749298095703
ell 80, elapsed: 0.0004379749298095703
ell 79, elapsed: 0.00043201446533203125
ell 78, elapsed: 0.0005869865417480469
ell 77, elapsed: 0.00043582916259765625
ell 76, elapsed: 0.0004448890686035156
ell 75, elapsed: 0.00043582916259765625
ell 74, elapsed: 0.0004398822784423828
ell 73, elapsed: 0.00044989585876464844
ell 72, elapsed: 0.0004360675811767578
ell 71, elapsed: 0.0004360675811767578
ell 70, elapsed: 0.00043010711669921875
ell 69, elapsed: 0.0005590915679931641
ell 68, elapsed: 0.0004439353942871094
ell 67, elapsed: 0.0004367828369140625
ell 66, elapsed: 0.00044989585876464844
ell 65, elapsed: 0.0004360675811767578
ell 64, elapsed: 0.0004470348358154297
ell 63, elapsed: 0.00044989585876464844
ell 62, elapsed: 0.00043702125549316406
ell 61, elapsed: 0.0005440711975097656
ell 60, elapsed: 0.0004398822784423828
ell 59, elapsed: 0.00044798851013183594
ell 58, elapsed: 0.0004401206970214844
ell 57, elapsed: 0.0004360675811767578
ell 56, elapsed: 0.00043201446533203125
ell 55, elapsed: 0.0004291534423828125
ell 54, elapsed: 0.0004429817199707031
ell 53, elapsed: 0.0004379749298095703
ell 52, elapsed: 0.0005681514739990234
ell 51, elapsed: 0.0004398822784423828
ell 50, elapsed: 0.000431060791015625
ell 49, elapsed: 0.00043702125549316406
ell 48, elapsed: 0.00043392181396484375
ell 47, elapsed: 0.00043392181396484375
ell 46, elapsed: 0.0004398822784423828
ell 45, elapsed: 0.00043892860412597656
ell 44, elapsed: 0.0005509853363037109
ell 43, elapsed: 0.0004360675811767578
ell 42, elapsed: 0.0004360675811767578
ell 41, elapsed: 0.00044608116149902344
ell 40, elapsed: 0.00044417381286621094
ell 39, elapsed: 0.00045108795166015625
ell 38, elapsed: 0.0004410743713378906
ell 37, elapsed: 0.0004420280456542969
ell 36, elapsed: 0.0004439353942871094
ell 35, elapsed: 0.0004470348358154297
ell 34, elapsed: 0.00045180320739746094
ell 33, elapsed: 0.00043702125549316406
ell 32, elapsed: 0.00042700767517089844
ell 31, elapsed: 0.000431060791015625
ell 30, elapsed: 0.00043201446533203125
ell 29, elapsed: 0.0004630088806152344
ell 28, elapsed: 0.0004360675811767578
ell 27, elapsed: 0.0005450248718261719
ell 26, elapsed: 0.00041484832763671875
ell 25, elapsed: 0.0004050731658935547
ell 24, elapsed: 0.00041103363037109375
ell 23, elapsed: 0.0004010200500488281
ell 22, elapsed: 0.000408172607421875
ell 21, elapsed: 0.00040411949157714844
ell 20, elapsed: 0.0004050731658935547
ell 19, elapsed: 0.0004029273986816406
ell 18, elapsed: 0.0005221366882324219
ell 17, elapsed: 0.00043487548828125
ell 16, elapsed: 0.0004489421844482422
ell 15, elapsed: 0.0004410743713378906
ell 14, elapsed: 0.0004379749298095703
ell 13, elapsed: 0.00043702125549316406
ell 12, elapsed: 0.0004379749298095703
ell 11, elapsed: 0.0004439353942871094
ell 10, elapsed: 0.000431060791015625
ell 9, elapsed: 0.0005259513854980469
ell 8, elapsed: 0.0004439353942871094
ell 7, elapsed: 0.0004248619079589844
ell 6, elapsed: 0.00043010711669921875
ell 5, elapsed: 0.0004239082336425781
ell 4, elapsed: 0.0004329681396484375
ell 3, elapsed: 0.0004239082336425781
ell 2, elapsed: 0.0004279613494873047
ell 1, elapsed: 0.0004229545593261719
ell 0, elapsed: 0.0005469322204589844
  1.806058 seconds (1.38 M allocations: 74.482 MiB, 3.63% gc time, 93.09% compilation time)
elapsed: 0.0005168914794921875
step:          0.316309 sec (311.15 k allocations: 16.965 MB, 0.0% gc time)
swapping:      0.000413 sec (0 allocations: 0 byte, 0.0% gc time)
calc_Mellell!: 0.150859 sec (135.744 k allocations: 7.432 MB, 0.0% gc time)
  t0 :  0.0 sec (0 allocations: 0 byte, 0.0% gc time)
  tm2 : 0.0 sec (0 allocations: 0 byte, 0.0% gc time)
  tm2s: 0.0 sec (0 allocations: 0 byte, 0.0% gc time)
  tm4 : 0.0 sec (0 allocations: 0 byte, 0.0% gc time)
  tp2 : 0.0 sec (0 allocations: 0 byte, 0.0% gc time)
  tp2s: 0.0 sec (0 allocations: 0 byte, 0.0% gc time)
  tp4 : 0.0 sec (0 allocations: 0 byte, 0.0% gc time)
calc_wtdll!:   0.929565 sec (509.622 k allocations: 28.196 MB, 4.77% gc time)
calc_wljj!:    0.001986 sec (6 allocations: 96 byte, 0.0% gc time)
mult_prefac!:  0.0 sec (0 allocations: 0 byte, 0.0% gc time)
convert:       0.0 sec (0 allocations: 0 byte, 0.0% gc time)
write:         0.003122 sec (0 allocations: 0 byte, 0.0% gc time)
test_rand_2f1: 0.0 sec (0 allocations: 0 byte, 0.0% gc time)
Closing outfile out/Ml21-cache.bin...   0.000011 seconds
  0.938208 seconds (246.38 k allocations: 14.219 MiB, 42.70% compilation time)
make_phi():   0.007927 seconds (8.18 k allocations: 237.844 KiB)
  0.230692 seconds (87.57 k allocations: 4.749 MiB, 7.26% gc time, 95.07% compilation time)
tskip:       1.6e-5 sec (0 allocations: 0 byte, 0.0% gc time)
tread:       0.001874 sec (17 allocations: 2.125 KB, 0.0% gc time)
tmultphi:    0.036502 sec (21.425 k allocations: 1.287 MB, 0.0% gc time)
tbrfft:      0.003059 sec (0 allocations: 0 byte, 0.0% gc time)
tmultprefac: 0.001666 sec (0 allocations: 0 byte, 0.0% gc time)
toutfunc:    0.15097 sec (64.483 k allocations: 3.33 MB, 11.1% gc time)
Testing R=1.1 ... passed
Calculating fmax: 
  dlrec    = 4
  dlrecRg1 = -4
  q=1.1, R=1.0:	  0.001101 seconds (3.20 k allocations: 275.344 KiB)

  0.001609 seconds (3.25 k allocations: 310.312 KiB)
ℓ = 1202
Δℓ = 4
ΔℓRg1 = -4
N = 1600
q = 1.1
kmin = 1.0e-5
kmax = 100000.00000000004
χ0 = 0.023029999999999995
RR = RR.tsv
ℓmax = ℓmax.bin
f21 = f21.bin
kmin = 1.0e-5
kmax = 100000.0
dlrec    = 4
dlrecRg1 = -4
Output size: 61465536 bytes = 0.05724424123764038 GiB
Output size: 51264 bytes = 4.774332046508789e-5 GiB
Reading 'out/F21EllCache'...   0.000782 seconds (197 allocations: 84.203 KiB)
ellmax: 1202
lmaxcache: 1202
fell[:,1,1] = ComplexF64[809.6031528389767 - 1.9829558194077161e-13im, 0.0 + 0.0im]
ell 1202, elapsed: 2.6941299438476562e-5
ell 1201, elapsed: 0.014461994171142578
ell 1200, elapsed: 0.01424407958984375
ell 1199, elapsed: 0.0002739429473876953
ell 1198, elapsed: 0.0002758502960205078
ell 1197, elapsed: 0.000347137451171875
ell 1196, elapsed: 0.0003139972686767578
ell 1195, elapsed: 0.00030803680419921875
ell 1194, elapsed: 0.00034308433532714844
ell 1193, elapsed: 0.0003120899200439453
ell 1192, elapsed: 0.00030612945556640625
ell 1191, elapsed: 0.0003139972686767578
ell 1190, elapsed: 0.000308990478515625
ell 1189, elapsed: 0.0003190040588378906
ell 1188, elapsed: 0.0003101825714111328
ell 1187, elapsed: 0.00032901763916015625
ell 1186, elapsed: 0.00030803680419921875
ell 1185, elapsed: 0.00030803680419921875
ell 1184, elapsed: 0.0003159046173095703
ell 1183, elapsed: 0.0003070831298828125
ell 1182, elapsed: 0.0003559589385986328
ell 1181, elapsed: 0.000308990478515625
ell 1180, elapsed: 0.00030803680419921875
ell 1179, elapsed: 0.00032401084899902344
ell 1178, elapsed: 0.00031304359436035156
ell 1177, elapsed: 0.0003199577331542969
ell 1176, elapsed: 0.0003077983856201172
ell 1175, elapsed: 0.0003108978271484375
ell 1174, elapsed: 0.0003180503845214844
ell 1173, elapsed: 0.0003101825714111328
ell 1172, elapsed: 0.0003178119659423828
ell 1171, elapsed: 0.0003390312194824219
ell 1170, elapsed: 0.0003120899200439453
ell 1169, elapsed: 0.0003218650817871094
ell 1168, elapsed: 0.0003108978271484375
ell 1167, elapsed: 0.00033092498779296875
ell 1166, elapsed: 0.0003018379211425781
ell 1165, elapsed: 0.00030493736267089844
ell 1164, elapsed: 0.0003170967102050781
ell 1163, elapsed: 0.00029778480529785156
ell 1162, elapsed: 0.00030493736267089844
ell 1161, elapsed: 0.0002989768981933594
ell 1160, elapsed: 0.0002961158752441406
ell 1159, elapsed: 0.0003829002380371094
ell 1158, elapsed: 0.0003139972686767578
ell 1157, elapsed: 0.0003230571746826172
ell 1156, elapsed: 0.00031280517578125
ell 1155, elapsed: 0.00030994415283203125
ell 1154, elapsed: 0.0003190040588378906
ell 1153, elapsed: 0.0003139972686767578
ell 1152, elapsed: 0.0003170967102050781
ell 1151, elapsed: 0.00030803680419921875
ell 1150, elapsed: 0.00030803680419921875
ell 1149, elapsed: 0.00031495094299316406
ell 1148, elapsed: 0.0003249645233154297
ell 1147, elapsed: 0.0003139972686767578
ell 1146, elapsed: 0.0003101825714111328
ell 1145, elapsed: 0.00030803680419921875
ell 1144, elapsed: 0.0003139972686767578
ell 1143, elapsed: 0.00030612945556640625
ell 1142, elapsed: 0.0003139972686767578
ell 1141, elapsed: 0.00030994415283203125
ell 1140, elapsed: 0.00030612945556640625
ell 1139, elapsed: 0.0003159046173095703
ell 1138, elapsed: 0.00030803680419921875
ell 1137, elapsed: 0.0003159046173095703
ell 1136, elapsed: 0.00033593177795410156
ell 1135, elapsed: 0.0003070831298828125
ell 1134, elapsed: 0.0003190040588378906
ell 1133, elapsed: 0.00031304359436035156
ell 1132, elapsed: 0.00031495094299316406
ell 1131, elapsed: 0.000308990478515625
ell 1130, elapsed: 0.00031304359436035156
ell 1129, elapsed: 0.0003058910369873047
ell 1128, elapsed: 0.00030612945556640625
ell 1127, elapsed: 0.0003108978271484375
ell 1126, elapsed: 0.0003077983856201172
ell 1125, elapsed: 0.0003981590270996094
ell 1124, elapsed: 0.0003437995910644531
ell 1123, elapsed: 0.0003108978271484375
ell 1122, elapsed: 0.0003228187561035156
ell 1121, elapsed: 0.0003120899200439453
ell 1120, elapsed: 0.0003180503845214844
ell 1119, elapsed: 0.0003139972686767578
ell 1118, elapsed: 0.0003101825714111328
ell 1117, elapsed: 0.0003199577331542969
ell 1116, elapsed: 0.00031304359436035156
ell 1115, elapsed: 0.0003199577331542969
ell 1114, elapsed: 0.0003180503845214844
ell 1113, elapsed: 0.0002989768981933594
ell 1112, elapsed: 0.00030803680419921875
ell 1111, elapsed: 0.0002989768981933594
ell 1110, elapsed: 0.0002999305725097656
ell 1109, elapsed: 0.00029587745666503906
ell 1108, elapsed: 0.00029587745666503906
ell 1107, elapsed: 0.00030493736267089844
ell 1106, elapsed: 0.0002980232238769531
ell 1105, elapsed: 0.0003008842468261719
ell 1104, elapsed: 0.0002968311309814453
ell 1103, elapsed: 0.0002999305725097656
ell 1102, elapsed: 0.0003058910369873047
ell 1101, elapsed: 0.0003600120544433594
ell 1100, elapsed: 0.0003180503845214844
ell 1099, elapsed: 0.00031495094299316406
ell 1098, elapsed: 0.00031495094299316406
ell 1097, elapsed: 0.00031495094299316406
ell 1096, elapsed: 0.0003108978271484375
ell 1095, elapsed: 0.0003180503845214844
ell 1094, elapsed: 0.00031113624572753906
ell 1093, elapsed: 0.00031304359436035156
ell 1092, elapsed: 0.00031685829162597656
ell 1091, elapsed: 0.00031113624572753906
ell 1090, elapsed: 0.00034689903259277344
ell 1089, elapsed: 0.00031304359436035156
ell 1088, elapsed: 0.00031280517578125
ell 1087, elapsed: 0.0003139972686767578
ell 1086, elapsed: 0.00031304359436035156
ell 1085, elapsed: 0.00031304359436035156
ell 1084, elapsed: 0.00030994415283203125
ell 1083, elapsed: 0.0010349750518798828
ell 1082, elapsed: 0.00030803680419921875
ell 1081, elapsed: 0.0004780292510986328
ell 1080, elapsed: 0.0005381107330322266
ell 1079, elapsed: 0.007318973541259766
ell 1078, elapsed: 0.0003371238708496094
ell 1077, elapsed: 0.00031280517578125
ell 1076, elapsed: 0.0003039836883544922
ell 1075, elapsed: 0.0003249645233154297
ell 1074, elapsed: 0.00031495094299316406
ell 1073, elapsed: 0.00030303001403808594
ell 1072, elapsed: 0.0003070831298828125
ell 1071, elapsed: 0.00030803680419921875
ell 1070, elapsed: 0.0003120899200439453
ell 1069, elapsed: 0.00030803680419921875
ell 1068, elapsed: 0.00030612945556640625
ell 1067, elapsed: 0.00038504600524902344
ell 1066, elapsed: 0.0003020763397216797
ell 1065, elapsed: 0.00030493736267089844
ell 1064, elapsed: 0.00030684471130371094
ell 1063, elapsed: 0.0003070831298828125
ell 1062, elapsed: 0.00031185150146484375
ell 1061, elapsed: 0.0002989768981933594
ell 1060, elapsed: 0.00030493736267089844
ell 1059, elapsed: 0.00030493736267089844
ell 1058, elapsed: 0.00030612945556640625
ell 1057, elapsed: 0.0003120899200439453
ell 1056, elapsed: 0.00030612945556640625
ell 1055, elapsed: 0.0003421306610107422
ell 1054, elapsed: 0.00030493736267089844
ell 1053, elapsed: 0.00030803680419921875
ell 1052, elapsed: 0.000308990478515625
ell 1051, elapsed: 0.0003018379211425781
ell 1050, elapsed: 0.00030994415283203125
ell 1049, elapsed: 0.00030493736267089844
ell 1048, elapsed: 0.0003039836883544922
ell 1047, elapsed: 0.00031304359436035156
ell 1046, elapsed: 0.00030303001403808594
ell 1045, elapsed: 0.00030493736267089844
ell 1044, elapsed: 0.00030112266540527344
ell 1043, elapsed: 0.0003008842468261719
ell 1042, elapsed: 0.00032401084899902344
ell 1041, elapsed: 0.00030493736267089844
ell 1040, elapsed: 0.00031185150146484375
ell 1039, elapsed: 0.00030803680419921875
ell 1038, elapsed: 0.00030112266540527344
ell 1037, elapsed: 0.00030612945556640625
ell 1036, elapsed: 0.0003039836883544922
ell 1035, elapsed: 0.0003120899200439453
ell 1034, elapsed: 0.00030303001403808594
ell 1033, elapsed: 0.00030422210693359375
ell 1032, elapsed: 0.00030493736267089844
ell 1031, elapsed: 0.0003020763397216797
ell 1030, elapsed: 0.008426904678344727
ell 1029, elapsed: 0.0003139972686767578
ell 1028, elapsed: 0.0003120899200439453
ell 1027, elapsed: 0.0003139972686767578
ell 1026, elapsed: 0.00030303001403808594
ell 1025, elapsed: 0.0003070831298828125
ell 1024, elapsed: 0.00030422210693359375
ell 1023, elapsed: 0.00031185150146484375
ell 1022, elapsed: 0.00031304359436035156
ell 1021, elapsed: 0.000308990478515625
ell 1020, elapsed: 0.00031304359436035156
ell 1019, elapsed: 0.00030112266540527344
ell 1018, elapsed: 0.0003521442413330078
ell 1017, elapsed: 0.00030612945556640625
ell 1016, elapsed: 0.00030684471130371094
ell 1015, elapsed: 0.000308990478515625
ell 1014, elapsed: 0.000308990478515625
ell 1013, elapsed: 0.00031304359436035156
ell 1012, elapsed: 0.00030112266540527344
ell 1011, elapsed: 0.0002999305725097656
ell 1010, elapsed: 0.0003020763397216797
ell 1009, elapsed: 0.0002999305725097656
ell 1008, elapsed: 0.00030803680419921875
ell 1007, elapsed: 0.0002970695495605469
ell 1006, elapsed: 0.0003180503845214844
ell 1005, elapsed: 0.0003139972686767578
ell 1004, elapsed: 0.0002989768981933594
ell 1003, elapsed: 0.0003101825714111328
ell 1002, elapsed: 0.0003101825714111328
ell 1001, elapsed: 0.0003058910369873047
ell 1000, elapsed: 0.0003101825714111328
ell 999, elapsed: 0.0003020763397216797
ell 998, elapsed: 0.0003070831298828125
ell 997, elapsed: 0.0002999305725097656
ell 996, elapsed: 0.0003039836883544922
ell 995, elapsed: 0.0003139972686767578
ell 994, elapsed: 0.00034999847412109375
ell 993, elapsed: 0.0003108978271484375
ell 992, elapsed: 0.0003008842468261719
ell 991, elapsed: 0.00030612945556640625
ell 990, elapsed: 0.0003159046173095703
ell 989, elapsed: 0.00030493736267089844
ell 988, elapsed: 0.00030517578125
ell 987, elapsed: 0.00030112266540527344
ell 986, elapsed: 0.0002999305725097656
ell 985, elapsed: 0.00030303001403808594
ell 984, elapsed: 0.0002989768981933594
ell 983, elapsed: 0.0003039836883544922
ell 982, elapsed: 0.00029206275939941406
ell 981, elapsed: 0.0003108978271484375
ell 980, elapsed: 0.0002999305725097656
ell 979, elapsed: 0.0002980232238769531
ell 978, elapsed: 0.00031185150146484375
ell 977, elapsed: 0.0003018379211425781
ell 976, elapsed: 0.00029397010803222656
ell 975, elapsed: 0.000308990478515625
ell 974, elapsed: 0.0003001689910888672
ell 973, elapsed: 0.00030303001403808594
ell 972, elapsed: 0.0002951622009277344
ell 971, elapsed: 0.0002961158752441406
ell 970, elapsed: 0.0003008842468261719
ell 969, elapsed: 0.0003230571746826172
ell 968, elapsed: 0.00030303001403808594
ell 967, elapsed: 0.0002949237823486328
ell 966, elapsed: 0.0002989768981933594
ell 965, elapsed: 0.00030612945556640625
ell 964, elapsed: 0.0003020763397216797
ell 963, elapsed: 0.000308990478515625
ell 962, elapsed: 0.00030303001403808594
ell 961, elapsed: 0.0003108978271484375
ell 960, elapsed: 0.0002999305725097656
ell 959, elapsed: 0.0002989768981933594
ell 958, elapsed: 0.0003027915954589844
ell 957, elapsed: 0.004369974136352539
ell 956, elapsed: 0.0003228187561035156
ell 955, elapsed: 0.0002980232238769531
ell 954, elapsed: 0.00030112266540527344
ell 953, elapsed: 0.0003018379211425781
ell 952, elapsed: 0.0002980232238769531
ell 951, elapsed: 0.00030303001403808594
ell 950, elapsed: 0.00030517578125
ell 949, elapsed: 0.0002970695495605469
ell 948, elapsed: 0.0003039836883544922
ell 947, elapsed: 0.0003039836883544922
ell 946, elapsed: 0.00030493736267089844
ell 945, elapsed: 0.00029587745666503906
ell 944, elapsed: 0.0003409385681152344
ell 943, elapsed: 0.00028395652770996094
ell 942, elapsed: 0.00028014183044433594
ell 941, elapsed: 0.0002880096435546875
ell 940, elapsed: 0.0002770423889160156
ell 939, elapsed: 0.0002789497375488281
ell 938, elapsed: 0.00028514862060546875
ell 937, elapsed: 0.00028705596923828125
ell 936, elapsed: 0.00030994415283203125
ell 935, elapsed: 0.00029587745666503906
ell 934, elapsed: 0.0002989768981933594
ell 933, elapsed: 0.00031113624572753906
ell 932, elapsed: 0.00030112266540527344
ell 931, elapsed: 0.0003199577331542969
ell 930, elapsed: 0.0003008842468261719
ell 929, elapsed: 0.0002989768981933594
ell 928, elapsed: 0.00030493736267089844
ell 927, elapsed: 0.0003008842468261719
ell 926, elapsed: 0.0003039836883544922
ell 925, elapsed: 0.00030303001403808594
ell 924, elapsed: 0.0002989768981933594
ell 923, elapsed: 0.0003039836883544922
ell 922, elapsed: 0.0002989768981933594
ell 921, elapsed: 0.00031113624572753906
ell 920, elapsed: 0.0002980232238769531
ell 919, elapsed: 0.0003139972686767578
ell 918, elapsed: 0.00030112266540527344
ell 917, elapsed: 0.0002989768981933594
ell 916, elapsed: 0.00030493736267089844
ell 915, elapsed: 0.0003020763397216797
ell 914, elapsed: 0.0002999305725097656
ell 913, elapsed: 0.0002961158752441406
ell 912, elapsed: 0.00029397010803222656
ell 911, elapsed: 0.00030303001403808594
ell 910, elapsed: 0.0002968311309814453
ell 909, elapsed: 0.00030517578125
ell 908, elapsed: 0.00029921531677246094
ell 907, elapsed: 0.00029206275939941406
ell 906, elapsed: 0.00036787986755371094
ell 905, elapsed: 0.0003039836883544922
ell 904, elapsed: 0.000308990478515625
ell 903, elapsed: 0.0003070831298828125
ell 902, elapsed: 0.00030303001403808594
ell 901, elapsed: 0.00031304359436035156
ell 900, elapsed: 0.0003077983856201172
ell 899, elapsed: 0.000308990478515625
ell 898, elapsed: 0.00029397010803222656
ell 897, elapsed: 0.0002880096435546875
ell 896, elapsed: 0.0003170967102050781
ell 895, elapsed: 0.00030112266540527344
ell 894, elapsed: 0.000331878662109375
ell 893, elapsed: 0.000308990478515625
ell 892, elapsed: 0.00030803680419921875
ell 891, elapsed: 0.0003180503845214844
ell 890, elapsed: 0.0003070831298828125
ell 889, elapsed: 0.00030994415283203125
ell 888, elapsed: 0.00030803680419921875
ell 887, elapsed: 0.00031304359436035156
ell 886, elapsed: 0.0003170967102050781
ell 885, elapsed: 0.0003070831298828125
ell 884, elapsed: 0.000308990478515625
ell 883, elapsed: 0.0002989768981933594
ell 882, elapsed: 0.000370025634765625
ell 881, elapsed: 0.0003039836883544922
ell 880, elapsed: 0.0003008842468261719
ell 879, elapsed: 0.0003070831298828125
ell 878, elapsed: 0.0002989768981933594
ell 877, elapsed: 0.0003039836883544922
ell 876, elapsed: 0.0003020763397216797
ell 875, elapsed: 0.0002999305725097656
ell 874, elapsed: 0.0003070831298828125
ell 873, elapsed: 0.00030803680419921875
ell 872, elapsed: 0.00030803680419921875
ell 871, elapsed: 0.0003008842468261719
ell 870, elapsed: 0.0003230571746826172
ell 869, elapsed: 0.00031113624572753906
ell 868, elapsed: 0.0002980232238769531
ell 867, elapsed: 0.00030303001403808594
ell 866, elapsed: 0.0002951622009277344
ell 865, elapsed: 0.0002968311309814453
ell 864, elapsed: 0.0003020763397216797
ell 863, elapsed: 0.0002968311309814453
ell 862, elapsed: 0.0003020763397216797
ell 861, elapsed: 0.0002980232238769531
ell 860, elapsed: 0.0002980232238769531
ell 859, elapsed: 0.00030803680419921875
ell 858, elapsed: 0.0002980232238769531
ell 857, elapsed: 0.00035119056701660156
ell 856, elapsed: 0.0003018379211425781
ell 855, elapsed: 0.00030684471130371094
ell 854, elapsed: 0.0003020763397216797
ell 853, elapsed: 0.0003020763397216797
ell 852, elapsed: 0.0003070831298828125
ell 851, elapsed: 0.0003039836883544922
ell 850, elapsed: 0.00030684471130371094
ell 849, elapsed: 0.0003020763397216797
ell 848, elapsed: 0.0002989768981933594
ell 847, elapsed: 0.0003139972686767578
ell 846, elapsed: 0.0002989768981933594
ell 845, elapsed: 0.0003211498260498047
ell 844, elapsed: 0.00030994415283203125
ell 843, elapsed: 0.0003058910369873047
ell 842, elapsed: 0.00030684471130371094
ell 841, elapsed: 0.0003039836883544922
ell 840, elapsed: 0.0003058910369873047
ell 839, elapsed: 0.0003020763397216797
ell 838, elapsed: 0.0003070831298828125
ell 837, elapsed: 0.00031185150146484375
ell 836, elapsed: 0.0002989768981933594
ell 835, elapsed: 0.00030517578125
ell 834, elapsed: 0.0003008842468261719
ell 833, elapsed: 0.0002999305725097656
ell 832, elapsed: 0.0003199577331542969
ell 831, elapsed: 0.0002949237823486328
ell 830, elapsed: 0.00031495094299316406
ell 829, elapsed: 0.00030112266540527344
ell 828, elapsed: 0.0002999305725097656
ell 827, elapsed: 0.0002980232238769531
ell 826, elapsed: 0.00030112266540527344
ell 825, elapsed: 0.00030684471130371094
ell 824, elapsed: 0.00030994415283203125
ell 823, elapsed: 0.00031185150146484375
ell 822, elapsed: 0.00031495094299316406
ell 821, elapsed: 0.00030303001403808594
ell 820, elapsed: 0.00033402442932128906
ell 819, elapsed: 0.0003018379211425781
ell 818, elapsed: 0.0003230571746826172
ell 817, elapsed: 0.000308990478515625
ell 816, elapsed: 0.000308990478515625
ell 815, elapsed: 0.0003108978271484375
ell 814, elapsed: 0.0003180503845214844
ell 813, elapsed: 0.00031113624572753906
ell 812, elapsed: 0.00030303001403808594
ell 811, elapsed: 0.0003070831298828125
ell 810, elapsed: 0.000308990478515625
ell 809, elapsed: 0.0003027915954589844
ell 808, elapsed: 0.00036787986755371094
ell 807, elapsed: 0.0003108978271484375
ell 806, elapsed: 0.0003058910369873047
ell 805, elapsed: 0.00031185150146484375
ell 804, elapsed: 0.00030303001403808594
ell 803, elapsed: 0.00030684471130371094
ell 802, elapsed: 0.00029921531677246094
ell 801, elapsed: 0.000308990478515625
ell 800, elapsed: 0.00030684471130371094
ell 799, elapsed: 0.0003199577331542969
ell 798, elapsed: 0.00030493736267089844
ell 797, elapsed: 0.0003008842468261719
ell 796, elapsed: 0.0003421306610107422
ell 795, elapsed: 0.0003020763397216797
ell 794, elapsed: 0.0002970695495605469
ell 793, elapsed: 0.00030303001403808594
ell 792, elapsed: 0.00030612945556640625
ell 791, elapsed: 0.00030493736267089844
ell 790, elapsed: 0.0003018379211425781
ell 789, elapsed: 0.0003039836883544922
ell 788, elapsed: 0.00030684471130371094
ell 787, elapsed: 0.0003001689910888672
ell 786, elapsed: 0.0003039836883544922
ell 785, elapsed: 0.0002999305725097656
ell 784, elapsed: 0.0002989768981933594
ell 783, elapsed: 0.00033402442932128906
ell 782, elapsed: 0.0003020763397216797
ell 781, elapsed: 0.00030612945556640625
ell 780, elapsed: 0.00030517578125
ell 779, elapsed: 0.0003008842468261719
ell 778, elapsed: 0.0003039836883544922
ell 777, elapsed: 0.0003001689910888672
ell 776, elapsed: 0.00030803680419921875
ell 775, elapsed: 0.00030112266540527344
ell 774, elapsed: 0.0002999305725097656
ell 773, elapsed: 0.00030684471130371094
ell 772, elapsed: 0.00030112266540527344
ell 771, elapsed: 0.0003428459167480469
ell 770, elapsed: 0.0003108978271484375
ell 769, elapsed: 0.0003039836883544922
ell 768, elapsed: 0.00031304359436035156
ell 767, elapsed: 0.0003001689910888672
ell 766, elapsed: 0.000308990478515625
ell 765, elapsed: 0.0003039836883544922
ell 764, elapsed: 0.0003230571746826172
ell 763, elapsed: 0.0002989768981933594
ell 762, elapsed: 0.0003027915954589844
ell 761, elapsed: 0.0003218650817871094
ell 760, elapsed: 0.00030112266540527344
ell 759, elapsed: 0.00034880638122558594
ell 758, elapsed: 0.0003027915954589844
ell 757, elapsed: 0.00029778480529785156
ell 756, elapsed: 0.0003180503845214844
ell 755, elapsed: 0.00030112266540527344
ell 754, elapsed: 0.0003108978271484375
ell 753, elapsed: 0.0003018379211425781
ell 752, elapsed: 0.0002989768981933594
ell 751, elapsed: 0.00031495094299316406
ell 750, elapsed: 0.000308990478515625
ell 749, elapsed: 0.000308990478515625
ell 748, elapsed: 0.000308990478515625
ell 747, elapsed: 0.0003230571746826172
ell 746, elapsed: 0.00031304359436035156
ell 745, elapsed: 0.00030493736267089844
ell 744, elapsed: 0.0003159046173095703
ell 743, elapsed: 0.00031280517578125
ell 742, elapsed: 0.00030612945556640625
ell 741, elapsed: 0.00030994415283203125
ell 740, elapsed: 0.00030517578125
ell 739, elapsed: 0.00031304359436035156
ell 738, elapsed: 0.0002930164337158203
ell 737, elapsed: 0.0003039836883544922
ell 736, elapsed: 0.00029587745666503906
ell 735, elapsed: 0.00029778480529785156
ell 734, elapsed: 0.0003960132598876953
ell 733, elapsed: 0.0003020763397216797
ell 732, elapsed: 0.0003209114074707031
ell 731, elapsed: 0.0003170967102050781
ell 730, elapsed: 0.0003020763397216797
ell 729, elapsed: 0.0003139972686767578
ell 728, elapsed: 0.00030517578125
ell 727, elapsed: 0.0003108978271484375
ell 726, elapsed: 0.00029397010803222656
ell 725, elapsed: 0.0002989768981933594
ell 724, elapsed: 0.000308990478515625
ell 723, elapsed: 0.00030493736267089844
ell 722, elapsed: 0.0003418922424316406
ell 721, elapsed: 0.0003018379211425781
ell 720, elapsed: 0.00030493736267089844
ell 719, elapsed: 0.0003178119659423828
ell 718, elapsed: 0.0003058910369873047
ell 717, elapsed: 0.0003077983856201172
ell 716, elapsed: 0.00030112266540527344
ell 715, elapsed: 0.0002989768981933594
ell 714, elapsed: 0.00030493736267089844
ell 713, elapsed: 0.0002989768981933594
ell 712, elapsed: 0.00030493736267089844
ell 711, elapsed: 0.0002970695495605469
ell 710, elapsed: 0.0003428459167480469
ell 709, elapsed: 0.00030493736267089844
ell 708, elapsed: 0.0002970695495605469
ell 707, elapsed: 0.00030493736267089844
ell 706, elapsed: 0.0002970695495605469
ell 705, elapsed: 0.0003008842468261719
ell 704, elapsed: 0.0002949237823486328
ell 703, elapsed: 0.0002949237823486328
ell 702, elapsed: 0.00030493736267089844
ell 701, elapsed: 0.0002970695495605469
ell 700, elapsed: 0.0003018379211425781
ell 699, elapsed: 0.00029206275939941406
ell 698, elapsed: 0.0003161430358886719
ell 697, elapsed: 0.0002989768981933594
ell 696, elapsed: 0.00029397010803222656
ell 695, elapsed: 0.0002989768981933594
ell 694, elapsed: 0.0002961158752441406
ell 693, elapsed: 0.0002899169921875
ell 692, elapsed: 0.0002989768981933594
ell 691, elapsed: 0.00029206275939941406
ell 690, elapsed: 0.0002980232238769531
ell 689, elapsed: 0.0002911090850830078
ell 688, elapsed: 0.0002930164337158203
ell 687, elapsed: 0.0003020763397216797
ell 686, elapsed: 0.0002949237823486328
ell 685, elapsed: 0.00032806396484375
ell 684, elapsed: 0.00029206275939941406
ell 683, elapsed: 0.00028896331787109375
ell 682, elapsed: 0.0002970695495605469
ell 681, elapsed: 0.00029206275939941406
ell 680, elapsed: 0.00029778480529785156
ell 679, elapsed: 0.00029397010803222656
ell 678, elapsed: 0.0002951622009277344
ell 677, elapsed: 0.00029397010803222656
ell 676, elapsed: 0.0002930164337158203
ell 675, elapsed: 0.0002949237823486328
ell 674, elapsed: 0.0002951622009277344
ell 673, elapsed: 0.00029778480529785156
ell 672, elapsed: 0.00033283233642578125
ell 671, elapsed: 0.0002951622009277344
ell 670, elapsed: 0.0002999305725097656
ell 669, elapsed: 0.00029397010803222656
ell 668, elapsed: 0.00030303001403808594
ell 667, elapsed: 0.00028896331787109375
ell 666, elapsed: 0.0002880096435546875
ell 665, elapsed: 0.0002999305725097656
ell 664, elapsed: 0.00029277801513671875
ell 663, elapsed: 0.0002980232238769531
ell 662, elapsed: 0.0002930164337158203
ell 661, elapsed: 0.0002899169921875
ell 660, elapsed: 0.0002970695495605469
ell 659, elapsed: 0.00031304359436035156
ell 658, elapsed: 0.00028896331787109375
ell 657, elapsed: 0.0002951622009277344
ell 656, elapsed: 0.00029087066650390625
ell 655, elapsed: 0.0003161430358886719
ell 654, elapsed: 0.0002970695495605469
ell 653, elapsed: 0.0003020763397216797
ell 652, elapsed: 0.0002999305725097656
ell 651, elapsed: 0.0002970695495605469
ell 650, elapsed: 0.0003039836883544922
ell 649, elapsed: 0.0003039836883544922
ell 648, elapsed: 0.0003001689910888672
ell 647, elapsed: 0.0003249645233154297
ell 646, elapsed: 0.0003020763397216797
ell 645, elapsed: 0.00030803680419921875
ell 644, elapsed: 0.0002980232238769531
ell 643, elapsed: 0.0003039836883544922
ell 642, elapsed: 0.0002980232238769531
ell 641, elapsed: 0.00030112266540527344
ell 640, elapsed: 0.00029587745666503906
ell 639, elapsed: 0.0002951622009277344
ell 638, elapsed: 0.00030303001403808594
ell 637, elapsed: 0.00029087066650390625
ell 636, elapsed: 0.0002980232238769531
ell 635, elapsed: 0.00029206275939941406
ell 634, elapsed: 0.00033402442932128906
ell 633, elapsed: 0.00030112266540527344
ell 632, elapsed: 0.00029397010803222656
ell 631, elapsed: 0.0002970695495605469
ell 630, elapsed: 0.0002961158752441406
ell 629, elapsed: 0.00029206275939941406
ell 628, elapsed: 0.0002989768981933594
ell 627, elapsed: 0.0002942085266113281
ell 626, elapsed: 0.0003018379211425781
ell 625, elapsed: 0.0002951622009277344
ell 624, elapsed: 0.00030303001403808594
ell 623, elapsed: 0.0003018379211425781
ell 622, elapsed: 0.00031185150146484375
ell 621, elapsed: 0.00030493736267089844
ell 620, elapsed: 0.0003008842468261719
ell 619, elapsed: 0.0002970695495605469
ell 618, elapsed: 0.0003020763397216797
ell 617, elapsed: 0.0002989768981933594
ell 616, elapsed: 0.0002970695495605469
ell 615, elapsed: 0.0002930164337158203
ell 614, elapsed: 0.0003001689910888672
ell 613, elapsed: 0.0002918243408203125
ell 612, elapsed: 0.0002930164337158203
ell 611, elapsed: 0.0003039836883544922
ell 610, elapsed: 0.00029087066650390625
ell 609, elapsed: 0.0003459453582763672
ell 608, elapsed: 0.00030493736267089844
ell 607, elapsed: 0.00030112266540527344
ell 606, elapsed: 0.0003039836883544922
ell 605, elapsed: 0.00029778480529785156
ell 604, elapsed: 0.0003018379211425781
ell 603, elapsed: 0.0002970695495605469
ell 602, elapsed: 0.00030112266540527344
ell 601, elapsed: 0.00030303001403808594
ell 600, elapsed: 0.0002989768981933594
ell 599, elapsed: 0.00030493736267089844
ell 598, elapsed: 0.0002989768981933594
ell 597, elapsed: 0.0002980232238769531
ell 596, elapsed: 0.0003180503845214844
ell 595, elapsed: 0.000308990478515625
ell 594, elapsed: 0.00030612945556640625
ell 593, elapsed: 0.0003018379211425781
ell 592, elapsed: 0.0003008842468261719
ell 591, elapsed: 0.0003020763397216797
ell 590, elapsed: 0.00029397010803222656
ell 589, elapsed: 0.00031113624572753906
ell 588, elapsed: 0.0002970695495605469
ell 587, elapsed: 0.0003058910369873047
ell 586, elapsed: 0.0003058910369873047
ell 585, elapsed: 0.0003039836883544922
ell 584, elapsed: 0.0003371238708496094
ell 583, elapsed: 0.00031685829162597656
ell 582, elapsed: 0.0003008842468261719
ell 581, elapsed: 0.00030112266540527344
ell 580, elapsed: 0.0003058910369873047
ell 579, elapsed: 0.00030922889709472656
ell 578, elapsed: 0.0003058910369873047
ell 577, elapsed: 0.00031685829162597656
ell 576, elapsed: 0.000308990478515625
ell 575, elapsed: 0.0003039836883544922
ell 574, elapsed: 0.0003180503845214844
ell 573, elapsed: 0.0003108978271484375
ell 572, elapsed: 0.00043010711669921875
ell 571, elapsed: 0.0003120899200439453
ell 570, elapsed: 0.000308990478515625
ell 569, elapsed: 0.00031304359436035156
ell 568, elapsed: 0.0003039836883544922
ell 567, elapsed: 0.00030493736267089844
ell 566, elapsed: 0.0002989768981933594
ell 565, elapsed: 0.00030493736267089844
ell 564, elapsed: 0.0003058910369873047
ell 563, elapsed: 0.0003001689910888672
ell 562, elapsed: 0.0003058910369873047
ell 561, elapsed: 0.0003039836883544922
ell 560, elapsed: 0.00032901763916015625
ell 559, elapsed: 0.00030684471130371094
ell 558, elapsed: 0.0003058910369873047
ell 557, elapsed: 0.0003070831298828125
ell 556, elapsed: 0.0003008842468261719
ell 555, elapsed: 0.00030994415283203125
ell 554, elapsed: 0.0003020763397216797
ell 553, elapsed: 0.00030684471130371094
ell 552, elapsed: 0.0003139972686767578
ell 551, elapsed: 0.00031685829162597656
ell 550, elapsed: 0.0003180503845214844
ell 549, elapsed: 0.00030517578125
ell 548, elapsed: 0.00034689903259277344
ell 547, elapsed: 0.00030493736267089844
ell 546, elapsed: 0.0002949237823486328
ell 545, elapsed: 0.00030493736267089844
ell 544, elapsed: 0.0002951622009277344
ell 543, elapsed: 0.00029587745666503906
ell 542, elapsed: 0.0003039836883544922
ell 541, elapsed: 0.0003008842468261719
ell 540, elapsed: 0.00030112266540527344
ell 539, elapsed: 0.00031495094299316406
ell 538, elapsed: 0.00029206275939941406
ell 537, elapsed: 0.0002989768981933594
ell 536, elapsed: 0.0002930164337158203
ell 535, elapsed: 0.00033402442932128906
ell 534, elapsed: 0.00031304359436035156
ell 533, elapsed: 0.0002999305725097656
ell 532, elapsed: 0.00030994415283203125
ell 531, elapsed: 0.0002999305725097656
ell 530, elapsed: 0.0003039836883544922
ell 529, elapsed: 0.0002999305725097656
ell 528, elapsed: 0.000308990478515625
ell 527, elapsed: 0.0003180503845214844
ell 526, elapsed: 0.00030303001403808594
ell 525, elapsed: 0.0003180503845214844
ell 524, elapsed: 0.0003159046173095703
ell 523, elapsed: 0.0003719329833984375
ell 522, elapsed: 0.0003159046173095703
ell 521, elapsed: 0.00030803680419921875
ell 520, elapsed: 0.0003190040588378906
ell 519, elapsed: 0.00027298927307128906
ell 518, elapsed: 0.0002758502960205078
ell 517, elapsed: 0.0002491474151611328
ell 516, elapsed: 0.00024890899658203125
ell 515, elapsed: 0.00025200843811035156
ell 514, elapsed: 0.00024819374084472656
ell 513, elapsed: 0.0002658367156982422
ell 512, elapsed: 0.0002658367156982422
ell 511, elapsed: 0.00024890899658203125
ell 510, elapsed: 0.0002560615539550781
ell 509, elapsed: 0.00034499168395996094
ell 508, elapsed: 0.0002880096435546875
ell 507, elapsed: 0.00028204917907714844
ell 506, elapsed: 0.0002751350402832031
ell 505, elapsed: 0.00026702880859375
ell 504, elapsed: 0.0002541542053222656
ell 503, elapsed: 0.00025391578674316406
ell 502, elapsed: 0.00025010108947753906
ell 501, elapsed: 0.0002551078796386719
ell 500, elapsed: 0.00026106834411621094
ell 499, elapsed: 0.0002532005310058594
ell 498, elapsed: 0.0002601146697998047
ell 497, elapsed: 0.0002529621124267578
ell 496, elapsed: 0.0002579689025878906
ell 495, elapsed: 0.00032806396484375
ell 494, elapsed: 0.0003330707550048828
ell 493, elapsed: 0.0003039836883544922
ell 492, elapsed: 0.0003018379211425781
ell 491, elapsed: 0.0003101825714111328
ell 490, elapsed: 0.0003058910369873047
ell 489, elapsed: 0.00030493736267089844
ell 488, elapsed: 0.00030994415283203125
ell 487, elapsed: 0.0003039836883544922
ell 486, elapsed: 0.00031113624572753906
ell 485, elapsed: 0.0003001689910888672
ell 484, elapsed: 0.0003018379211425781
ell 483, elapsed: 0.00037407875061035156
ell 482, elapsed: 0.0003669261932373047
ell 481, elapsed: 0.0003819465637207031
ell 480, elapsed: 0.0003750324249267578
ell 479, elapsed: 0.0003638267517089844
ell 478, elapsed: 0.00032401084899902344
ell 477, elapsed: 0.00033402442932128906
ell 476, elapsed: 0.00031304359436035156
ell 475, elapsed: 0.00030493736267089844
ell 474, elapsed: 0.0003058910369873047
ell 473, elapsed: 0.0003218650817871094
ell 472, elapsed: 0.0003368854522705078
ell 471, elapsed: 0.00032019615173339844
ell 470, elapsed: 0.00031113624572753906
ell 469, elapsed: 0.0002930164337158203
ell 468, elapsed: 0.0002720355987548828
ell 467, elapsed: 0.00031495094299316406
ell 466, elapsed: 0.0003159046173095703
ell 465, elapsed: 0.00031185150146484375
ell 464, elapsed: 0.0003108978271484375
ell 463, elapsed: 0.00030803680419921875
ell 462, elapsed: 0.000308990478515625
ell 461, elapsed: 0.0003380775451660156
ell 460, elapsed: 0.00039315223693847656
ell 459, elapsed: 0.00028395652770996094
ell 458, elapsed: 0.0002589225769042969
ell 457, elapsed: 0.0003199577331542969
ell 456, elapsed: 0.0003199577331542969
ell 455, elapsed: 0.0003178119659423828
ell 454, elapsed: 0.0003161430358886719
ell 453, elapsed: 0.0003190040588378906
ell 452, elapsed: 0.00030994415283203125
ell 451, elapsed: 0.0003161430358886719
ell 450, elapsed: 0.00031185150146484375
ell 449, elapsed: 0.0003139972686767578
ell 448, elapsed: 0.0009300708770751953
ell 447, elapsed: 0.00030994415283203125
ell 446, elapsed: 0.00031185150146484375
ell 445, elapsed: 0.00030994415283203125
ell 444, elapsed: 0.0003108978271484375
ell 443, elapsed: 0.000308990478515625
ell 442, elapsed: 0.0003039836883544922
ell 441, elapsed: 0.00030612945556640625
ell 440, elapsed: 0.00030517578125
ell 439, elapsed: 0.0002980232238769531
ell 438, elapsed: 0.000331878662109375
ell 437, elapsed: 0.00030303001403808594
ell 436, elapsed: 0.00030112266540527344
ell 435, elapsed: 0.00030493736267089844
ell 434, elapsed: 0.00030303001403808594
ell 433, elapsed: 0.0003020763397216797
ell 432, elapsed: 0.00030303001403808594
ell 431, elapsed: 0.00031495094299316406
ell 430, elapsed: 0.0003180503845214844
ell 429, elapsed: 0.00031113624572753906
ell 428, elapsed: 0.0003139972686767578
ell 427, elapsed: 0.0003070831298828125
ell 426, elapsed: 0.0003612041473388672
ell 425, elapsed: 0.00030612945556640625
ell 424, elapsed: 0.00030994415283203125
ell 423, elapsed: 0.00031113624572753906
ell 422, elapsed: 0.0003070831298828125
ell 421, elapsed: 0.00029587745666503906
ell 420, elapsed: 0.0002999305725097656
ell 419, elapsed: 0.00030994415283203125
ell 418, elapsed: 0.00030803680419921875
ell 417, elapsed: 0.0003120899200439453
ell 416, elapsed: 0.00030493736267089844
ell 415, elapsed: 0.00030303001403808594
ell 414, elapsed: 0.0003590583801269531
ell 413, elapsed: 0.0003159046173095703
ell 412, elapsed: 0.0003039836883544922
ell 411, elapsed: 0.00030112266540527344
ell 410, elapsed: 0.0002980232238769531
ell 409, elapsed: 0.0002968311309814453
ell 408, elapsed: 0.0002980232238769531
ell 407, elapsed: 0.00029397010803222656
ell 406, elapsed: 0.00030303001403808594
ell 405, elapsed: 0.0003020763397216797
ell 404, elapsed: 0.0003008842468261719
ell 403, elapsed: 0.0002989768981933594
ell 402, elapsed: 0.00029587745666503906
ell 401, elapsed: 0.0003230571746826172
ell 400, elapsed: 0.00030922889709472656
ell 399, elapsed: 0.0003039836883544922
ell 398, elapsed: 0.0003001689910888672
ell 397, elapsed: 0.00029397010803222656
ell 396, elapsed: 0.0002989768981933594
ell 395, elapsed: 0.0003008842468261719
ell 394, elapsed: 0.00030612945556640625
ell 393, elapsed: 0.00030493736267089844
ell 392, elapsed: 0.0002989768981933594
ell 391, elapsed: 0.0003139972686767578
ell 390, elapsed: 0.00030612945556640625
ell 389, elapsed: 0.0003418922424316406
ell 388, elapsed: 0.00030493736267089844
ell 387, elapsed: 0.0002961158752441406
ell 386, elapsed: 0.0003018379211425781
ell 385, elapsed: 0.00030517578125
ell 384, elapsed: 0.0003058910369873047
ell 383, elapsed: 0.00030684471130371094
ell 382, elapsed: 0.00030517578125
ell 381, elapsed: 0.00030493736267089844
ell 380, elapsed: 0.00030493736267089844
ell 379, elapsed: 0.0003018379211425781
ell 378, elapsed: 0.0002970695495605469
ell 377, elapsed: 0.00032901763916015625
ell 376, elapsed: 0.00030303001403808594
ell 375, elapsed: 0.0002961158752441406
ell 374, elapsed: 0.0002989768981933594
ell 373, elapsed: 0.0002911090850830078
ell 372, elapsed: 0.0002980232238769531
ell 371, elapsed: 0.0002970695495605469
ell 370, elapsed: 0.0002930164337158203
ell 369, elapsed: 0.0002949237823486328
ell 368, elapsed: 0.00029587745666503906
ell 367, elapsed: 0.0003190040588378906
ell 366, elapsed: 0.00029397010803222656
ell 365, elapsed: 0.0002970695495605469
ell 364, elapsed: 0.00035500526428222656
ell 363, elapsed: 0.0002930164337158203
ell 362, elapsed: 0.000308990478515625
ell 361, elapsed: 0.0002918243408203125
ell 360, elapsed: 0.0002999305725097656
ell 359, elapsed: 0.0003008842468261719
ell 358, elapsed: 0.0002980232238769531
ell 357, elapsed: 0.0002949237823486328
ell 356, elapsed: 0.00029015541076660156
ell 355, elapsed: 0.00029206275939941406
ell 354, elapsed: 0.00029587745666503906
ell 353, elapsed: 0.0002989768981933594
ell 352, elapsed: 0.0003299713134765625
ell 351, elapsed: 0.0002949237823486328
ell 350, elapsed: 0.00028896331787109375
ell 349, elapsed: 0.0002930164337158203
ell 348, elapsed: 0.0002849102020263672
ell 347, elapsed: 0.00029587745666503906
ell 346, elapsed: 0.00028896331787109375
ell 345, elapsed: 0.0002899169921875
ell 344, elapsed: 0.0003008842468261719
ell 343, elapsed: 0.0002949237823486328
ell 342, elapsed: 0.0002970695495605469
ell 341, elapsed: 0.000286102294921875
ell 340, elapsed: 0.00029397010803222656
ell 339, elapsed: 0.0003299713134765625
ell 338, elapsed: 0.0002849102020263672
ell 337, elapsed: 0.0002930164337158203
ell 336, elapsed: 0.00028586387634277344
ell 335, elapsed: 0.0003001689910888672
ell 334, elapsed: 0.00029397010803222656
ell 333, elapsed: 0.00030112266540527344
ell 332, elapsed: 0.0003020763397216797
ell 331, elapsed: 0.0002918243408203125
ell 330, elapsed: 0.0003020763397216797
ell 329, elapsed: 0.0003001689910888672
ell 328, elapsed: 0.0002999305725097656
ell 327, elapsed: 0.00030803680419921875
ell 326, elapsed: 0.0003540515899658203
ell 325, elapsed: 0.00030112266540527344
ell 324, elapsed: 0.00029587745666503906
ell 323, elapsed: 0.0002942085266113281
ell 322, elapsed: 0.0002968311309814453
ell 321, elapsed: 0.00029206275939941406
ell 320, elapsed: 0.0002989768981933594
ell 319, elapsed: 0.00029397010803222656
ell 318, elapsed: 0.00029397010803222656
ell 317, elapsed: 0.0002999305725097656
ell 316, elapsed: 0.0003039836883544922
ell 315, elapsed: 0.000308990478515625
ell 314, elapsed: 0.00032806396484375
ell 313, elapsed: 0.00030517578125
ell 312, elapsed: 0.00030493736267089844
ell 311, elapsed: 0.0002961158752441406
ell 310, elapsed: 0.0002970695495605469
ell 309, elapsed: 0.0003018379211425781
ell 308, elapsed: 0.00029778480529785156
ell 307, elapsed: 0.0003039836883544922
ell 306, elapsed: 0.0002999305725097656
ell 305, elapsed: 0.0003159046173095703
ell 304, elapsed: 0.00030803680419921875
ell 303, elapsed: 0.00030493736267089844
ell 302, elapsed: 0.00033593177795410156
ell 301, elapsed: 0.00030303001403808594
ell 300, elapsed: 0.0003139972686767578
ell 299, elapsed: 0.0002961158752441406
ell 298, elapsed: 0.0002980232238769531
ell 297, elapsed: 0.0002951622009277344
ell 296, elapsed: 0.0002949237823486328
ell 295, elapsed: 0.00030517578125
ell 294, elapsed: 0.00030303001403808594
ell 293, elapsed: 0.0003070831298828125
ell 292, elapsed: 0.00030303001403808594
ell 291, elapsed: 0.0002999305725097656
ell 290, elapsed: 0.0003001689910888672
ell 289, elapsed: 0.000347137451171875
ell 288, elapsed: 0.00030493736267089844
ell 287, elapsed: 0.0002980232238769531
ell 286, elapsed: 0.00030303001403808594
ell 285, elapsed: 0.00030303001403808594
ell 284, elapsed: 0.0002989768981933594
ell 283, elapsed: 0.00030303001403808594
ell 282, elapsed: 0.0002989768981933594
ell 281, elapsed: 0.0003001689910888672
ell 280, elapsed: 0.00029587745666503906
ell 279, elapsed: 0.00030303001403808594
ell 278, elapsed: 0.0003108978271484375
ell 277, elapsed: 0.0003399848937988281
ell 276, elapsed: 0.0003039836883544922
ell 275, elapsed: 0.0002968311309814453
ell 274, elapsed: 0.00029397010803222656
ell 273, elapsed: 0.0002989768981933594
ell 272, elapsed: 0.0002949237823486328
ell 271, elapsed: 0.0002980232238769531
ell 270, elapsed: 0.00029206275939941406
ell 269, elapsed: 0.0002949237823486328
ell 268, elapsed: 0.00029921531677246094
ell 267, elapsed: 0.00029397010803222656
ell 266, elapsed: 0.0002961158752441406
ell 265, elapsed: 0.0002989768981933594
ell 264, elapsed: 0.00038504600524902344
ell 263, elapsed: 0.0003039836883544922
ell 262, elapsed: 0.00029397010803222656
ell 261, elapsed: 0.0002999305725097656
ell 260, elapsed: 0.0002968311309814453
ell 259, elapsed: 0.0002968311309814453
ell 258, elapsed: 0.00030612945556640625
ell 257, elapsed: 0.0002989768981933594
ell 256, elapsed: 0.0003070831298828125
ell 255, elapsed: 0.00031113624572753906
ell 254, elapsed: 0.0003108978271484375
ell 253, elapsed: 0.00030612945556640625
ell 252, elapsed: 0.00036215782165527344
ell 251, elapsed: 0.0003039836883544922
ell 250, elapsed: 0.0002949237823486328
ell 249, elapsed: 0.0002961158752441406
ell 248, elapsed: 0.0003008842468261719
ell 247, elapsed: 0.0002949237823486328
ell 246, elapsed: 0.0003020763397216797
ell 245, elapsed: 0.0003139972686767578
ell 244, elapsed: 0.00031304359436035156
ell 243, elapsed: 0.0002980232238769531
ell 242, elapsed: 0.0002989768981933594
ell 241, elapsed: 0.0003120899200439453
ell 240, elapsed: 0.0003199577331542969
ell 239, elapsed: 0.0002989768981933594
ell 238, elapsed: 0.00030112266540527344
ell 237, elapsed: 0.00029587745666503906
ell 236, elapsed: 0.0002999305725097656
ell 235, elapsed: 0.0003020763397216797
ell 234, elapsed: 0.00030803680419921875
ell 233, elapsed: 0.0003161430358886719
ell 232, elapsed: 0.0002999305725097656
ell 231, elapsed: 0.00031495094299316406
ell 230, elapsed: 0.0002949237823486328
ell 229, elapsed: 0.00030684471130371094
ell 228, elapsed: 0.0002970695495605469
ell 227, elapsed: 0.0003001689910888672
ell 226, elapsed: 0.00030994415283203125
ell 225, elapsed: 0.0003070831298828125
ell 224, elapsed: 0.00030684471130371094
ell 223, elapsed: 0.00030112266540527344
ell 222, elapsed: 0.0002970695495605469
ell 221, elapsed: 0.00030612945556640625
ell 220, elapsed: 0.0003058910369873047
ell 219, elapsed: 0.000308990478515625
ell 218, elapsed: 0.0003001689910888672
ell 217, elapsed: 0.00030493736267089844
ell 216, elapsed: 0.0002970695495605469
ell 215, elapsed: 0.00036406517028808594
ell 214, elapsed: 0.00030493736267089844
ell 213, elapsed: 0.00030303001403808594
ell 212, elapsed: 0.0002999305725097656
ell 211, elapsed: 0.0003008842468261719
ell 210, elapsed: 0.00029087066650390625
ell 209, elapsed: 0.0002980232238769531
ell 208, elapsed: 0.00030803680419921875
ell 207, elapsed: 0.0002899169921875
ell 206, elapsed: 0.00029015541076660156
ell 205, elapsed: 0.00029206275939941406
ell 204, elapsed: 0.00029397010803222656
ell 203, elapsed: 0.00031304359436035156
ell 202, elapsed: 0.00031304359436035156
ell 201, elapsed: 0.0002961158752441406
ell 200, elapsed: 0.0003058910369873047
ell 199, elapsed: 0.0003008842468261719
ell 198, elapsed: 0.0003218650817871094
ell 197, elapsed: 0.00036406517028808594
ell 196, elapsed: 0.0003600120544433594
ell 195, elapsed: 0.0003559589385986328
ell 194, elapsed: 0.00035500526428222656
ell 193, elapsed: 0.00035381317138671875
ell 192, elapsed: 0.0004191398620605469
ell 191, elapsed: 0.0003750324249267578
ell 190, elapsed: 0.0003771781921386719
ell 189, elapsed: 0.00037407875061035156
ell 188, elapsed: 0.00037288665771484375
ell 187, elapsed: 0.000370025634765625
ell 186, elapsed: 0.0003628730773925781
ell 185, elapsed: 0.00037789344787597656
ell 184, elapsed: 0.00036907196044921875
ell 183, elapsed: 0.0003719329833984375
ell 182, elapsed: 0.0003840923309326172
ell 181, elapsed: 0.0003719329833984375
ell 180, elapsed: 0.0003859996795654297
ell 179, elapsed: 0.0003669261932373047
ell 178, elapsed: 0.0003771781921386719
ell 177, elapsed: 0.0003819465637207031
ell 176, elapsed: 0.0003769397735595703
ell 175, elapsed: 0.0003819465637207031
ell 174, elapsed: 0.0003819465637207031
ell 173, elapsed: 0.00041413307189941406
ell 172, elapsed: 0.0003829002380371094
ell 171, elapsed: 0.0003781318664550781
ell 170, elapsed: 0.0003879070281982422
ell 169, elapsed: 0.0003669261932373047
ell 168, elapsed: 0.0003809928894042969
ell 167, elapsed: 0.0003731250762939453
ell 166, elapsed: 0.00031495094299316406
ell 165, elapsed: 0.0002980232238769531
ell 164, elapsed: 0.0002949237823486328
ell 163, elapsed: 0.0003848075866699219
ell 162, elapsed: 0.0003790855407714844
ell 161, elapsed: 0.0003688335418701172
ell 160, elapsed: 0.0003170967102050781
ell 159, elapsed: 0.000308990478515625
ell 158, elapsed: 0.0003039836883544922
ell 157, elapsed: 0.00030803680419921875
ell 156, elapsed: 0.0002999305725097656
ell 155, elapsed: 0.0002980232238769531
ell 154, elapsed: 0.0003020763397216797
ell 153, elapsed: 0.00030994415283203125
ell 152, elapsed: 0.0003399848937988281
ell 151, elapsed: 0.0002980232238769531
ell 150, elapsed: 0.0002980232238769531
ell 149, elapsed: 0.00030112266540527344
ell 148, elapsed: 0.0003039836883544922
ell 147, elapsed: 0.0002880096435546875
ell 146, elapsed: 0.0002949237823486328
ell 145, elapsed: 0.0003020763397216797
ell 144, elapsed: 0.0003027915954589844
ell 143, elapsed: 0.0002980232238769531
ell 142, elapsed: 0.000308990478515625
ell 141, elapsed: 0.0002999305725097656
ell 140, elapsed: 0.0003390312194824219
ell 139, elapsed: 0.00038695335388183594
ell 138, elapsed: 0.0003769397735595703
ell 137, elapsed: 0.00037097930908203125
ell 136, elapsed: 0.00036406517028808594
ell 135, elapsed: 0.0003750324249267578
ell 134, elapsed: 0.0003790855407714844
ell 133, elapsed: 0.0003800392150878906
ell 132, elapsed: 0.00037789344787597656
ell 131, elapsed: 0.0003750324249267578
ell 130, elapsed: 0.0004930496215820312
ell 129, elapsed: 0.0003769397735595703
ell 128, elapsed: 0.0003769397735595703
ell 127, elapsed: 0.0002918243408203125
ell 126, elapsed: 0.0002961158752441406
ell 125, elapsed: 0.00029397010803222656
ell 124, elapsed: 0.0003070831298828125
ell 123, elapsed: 0.00030112266540527344
ell 122, elapsed: 0.0002980232238769531
ell 121, elapsed: 0.000308990478515625
ell 120, elapsed: 0.0003018379211425781
ell 119, elapsed: 0.0003559589385986328
ell 118, elapsed: 0.0003018379211425781
ell 117, elapsed: 0.00029397010803222656
ell 116, elapsed: 0.0002999305725097656
ell 115, elapsed: 0.00029397010803222656
ell 114, elapsed: 0.00030112266540527344
ell 113, elapsed: 0.0003139972686767578
ell 112, elapsed: 0.0002970695495605469
ell 111, elapsed: 0.00030803680419921875
ell 110, elapsed: 0.0002930164337158203
ell 109, elapsed: 0.0002849102020263672
ell 108, elapsed: 0.0002799034118652344
ell 107, elapsed: 0.00029206275939941406
ell 106, elapsed: 0.00029206275939941406
ell 105, elapsed: 0.0002770423889160156
ell 104, elapsed: 0.0002789497375488281
ell 103, elapsed: 0.00028204917907714844
ell 102, elapsed: 0.0002789497375488281
ell 101, elapsed: 0.0002808570861816406
ell 100, elapsed: 0.0002770423889160156
ell 99, elapsed: 0.00028204917907714844
ell 98, elapsed: 0.0002739429473876953
ell 97, elapsed: 0.0002758502960205078
ell 96, elapsed: 0.0002799034118652344
ell 95, elapsed: 0.0002799034118652344
ell 94, elapsed: 0.0002758502960205078
ell 93, elapsed: 0.0003139972686767578
ell 92, elapsed: 0.00029087066650390625
ell 91, elapsed: 0.0002949237823486328
ell 90, elapsed: 0.0002868175506591797
ell 89, elapsed: 0.0002918243408203125
ell 88, elapsed: 0.0002949237823486328
ell 87, elapsed: 0.0002911090850830078
ell 86, elapsed: 0.00030517578125
ell 85, elapsed: 0.00030684471130371094
ell 84, elapsed: 0.000308990478515625
ell 83, elapsed: 0.00031304359436035156
ell 82, elapsed: 0.0003039836883544922
ell 81, elapsed: 0.0043621063232421875
ell 80, elapsed: 0.00035881996154785156
ell 79, elapsed: 0.00030994415283203125
ell 78, elapsed: 0.0002951622009277344
ell 77, elapsed: 0.00030112266540527344
ell 76, elapsed: 0.0003039836883544922
ell 75, elapsed: 0.00029397010803222656
ell 74, elapsed: 0.00030303001403808594
ell 73, elapsed: 0.00029397010803222656
ell 72, elapsed: 0.00029397010803222656
ell 71, elapsed: 0.0003039836883544922
ell 70, elapsed: 0.0002980232238769531
ell 69, elapsed: 0.00030803680419921875
ell 68, elapsed: 0.0003108978271484375
ell 67, elapsed: 0.00030612945556640625
ell 66, elapsed: 0.00030112266540527344
ell 65, elapsed: 0.0002892017364501953
ell 64, elapsed: 0.0002989768981933594
ell 63, elapsed: 0.00029206275939941406
ell 62, elapsed: 0.0002980232238769531
ell 61, elapsed: 0.0002880096435546875
ell 60, elapsed: 0.00028896331787109375
ell 59, elapsed: 0.0002980232238769531
ell 58, elapsed: 0.0002880096435546875
ell 57, elapsed: 0.0002980232238769531
ell 56, elapsed: 0.0003268718719482422
ell 55, elapsed: 0.00029397010803222656
ell 54, elapsed: 0.0003039836883544922
ell 53, elapsed: 0.0002989768981933594
ell 52, elapsed: 0.00030303001403808594
ell 51, elapsed: 0.0003039836883544922
ell 50, elapsed: 0.00030803680419921875
ell 49, elapsed: 0.00030684471130371094
ell 48, elapsed: 0.0002980232238769531
ell 47, elapsed: 0.00031495094299316406
ell 46, elapsed: 0.0003161430358886719
ell 45, elapsed: 0.0002918243408203125
ell 44, elapsed: 0.00031304359436035156
ell 43, elapsed: 0.0002899169921875
ell 42, elapsed: 0.0002949237823486328
ell 41, elapsed: 0.00029087066650390625
ell 40, elapsed: 0.0002970695495605469
ell 39, elapsed: 0.00030112266540527344
ell 38, elapsed: 0.0002930164337158203
ell 37, elapsed: 0.00029277801513671875
ell 36, elapsed: 0.0002968311309814453
ell 35, elapsed: 0.0002999305725097656
ell 34, elapsed: 0.0003039836883544922
ell 33, elapsed: 0.0003058910369873047
ell 32, elapsed: 0.00030517578125
ell 31, elapsed: 0.00034618377685546875
ell 30, elapsed: 0.00031185150146484375
ell 29, elapsed: 0.00030422210693359375
ell 28, elapsed: 0.00030303001403808594
ell 27, elapsed: 0.00030493736267089844
ell 26, elapsed: 0.0003058910369873047
ell 25, elapsed: 0.00031280517578125
ell 24, elapsed: 0.00030684471130371094
ell 23, elapsed: 0.0003020763397216797
ell 22, elapsed: 0.00030612945556640625
ell 21, elapsed: 0.00030612945556640625
ell 20, elapsed: 0.0003070831298828125
ell 19, elapsed: 0.00034499168395996094
ell 18, elapsed: 0.00031304359436035156
ell 17, elapsed: 0.00031304359436035156
ell 16, elapsed: 0.0003070831298828125
ell 15, elapsed: 0.00030803680419921875
ell 14, elapsed: 0.00030493736267089844
ell 13, elapsed: 0.00031304359436035156
ell 12, elapsed: 0.00031113624572753906
ell 11, elapsed: 0.00030684471130371094
ell 10, elapsed: 0.00031304359436035156
ell 9, elapsed: 0.00030803680419921875
ell 8, elapsed: 0.00030493736267089844
ell 7, elapsed: 0.0003249645233154297
ell 6, elapsed: 0.0003039836883544922
ell 5, elapsed: 0.000308990478515625
ell 4, elapsed: 0.0003020763397216797
ell 3, elapsed: 0.000308990478515625
ell 2, elapsed: 0.0003018379211425781
ell 1, elapsed: 0.0002999305725097656
ell 0, elapsed: 0.0002980232238769531
  0.449602 seconds (46.03 k allocations: 3.091 MiB, 6.20% compilation time)
elapsed: 0.0003769397735595703
step:          0.047584 sec (0 allocations: 0 byte, 0.0% gc time)
swapping:      0.000478 sec (0 allocations: 0 byte, 0.0% gc time)
calc_Mellell!: 0.01088 sec (0 allocations: 0 byte, 0.0% gc time)
  t0 :  0.001246 sec (0 allocations: 0 byte, 0.0% gc time)
  tm2 : 0.070446 sec (0 allocations: 0 byte, 0.0% gc time)
  tm2s: 0.000943 sec (0 allocations: 0 byte, 0.0% gc time)
  tm4 : 0.175418 sec (0 allocations: 0 byte, 0.0% gc time)
  tp2 : 0.0 sec (0 allocations: 0 byte, 0.0% gc time)
  tp2s: 0.0 sec (0 allocations: 0 byte, 0.0% gc time)
  tp4 : 0.0 sec (0 allocations: 0 byte, 0.0% gc time)
calc_wtdll!:   0.278539 sec (9.9 k allocations: 1.047 MB, 0.0% gc time)
calc_wljj!:    0.020685 sec (689 allocations: 10.766 KB, 0.0% gc time)
mult_prefac!:  0.0 sec (0 allocations: 0 byte, 0.0% gc time)
convert:       0.0 sec (0 allocations: 0 byte, 0.0% gc time)
write:         0.02953 sec (0 allocations: 0 byte, 0.0% gc time)
test_rand_2f1: 0.0 sec (0 allocations: 0 byte, 0.0% gc time)
Closing outfile out/Ml21-cache.bin...   0.000006 seconds
  0.000416 seconds (36 allocations: 27.953 KiB)
make_phi():   0.001370 seconds (8.18 k allocations: 237.844 KiB)
  0.102011 seconds (141.90 k allocations: 3.483 MiB)
tskip:       0.000543 sec (0 allocations: 0 byte, 0.0% gc time)
tread:       0.018905 sec (17 allocations: 10.641 KB, 0.0% gc time)
tmultphi:    0.007541 sec (0 allocations: 0 byte, 0.0% gc time)
tbrfft:      0.028612 sec (0 allocations: 0 byte, 0.0% gc time)
tmultprefac: 0.015543 sec (0 allocations: 0 byte, 0.0% gc time)
toutfunc:    0.027967 sec (127.507 k allocations: 2.312 MB, 0.0% gc time)
Testing R=1.0 ... passed
Calculating fmax: 
  dlrec    = 4
  dlrecRg1 = -4
  q=1.1, R=0.9:	  0.239948 seconds (105.72 k allocations: 15.273 MiB)

  0.240099 seconds (105.77 k allocations: 15.307 MiB)
ℓ = 1202
Δℓ = 4
ΔℓRg1 = -4
N = 1600
q = 1.1
kmin = 1.0e-5
kmax = 100000.00000000004
χ0 = 0.023029999999999995
RR = RR.tsv
ℓmax = ℓmax.bin
f21 = f21.bin
kmin = 1.0e-5
kmax = 100000.0
dlrec    = 4
dlrecRg1 = -4
Output size: 5741568 bytes = 0.005347251892089844 GiB
Output size: 51264 bytes = 4.774332046508789e-5 GiB
Reading 'out/F21EllCache'...   0.000866 seconds (197 allocations: 84.203 KiB)
ellmax: 1202
lmaxcache: 1202
fell[:,1,1] = ComplexF64[1.3482014726274674e-57 - 3.302141236118086e-73im, 1.357860004724329e-57 - 3.3257978169518355e-73im]
ell 1202, elapsed: 1.811981201171875e-5
ell 1201, elapsed: 0.0002791881561279297
ell 1200, elapsed: 0.00030112266540527344
ell 1199, elapsed: 0.00027179718017578125
ell 1198, elapsed: 0.0002651214599609375
ell 1002, elapsed: 0.008360147476196289
ell 1001, elapsed: 0.0002810955047607422
ell 1000, elapsed: 0.0002639293670654297
ell 999, elapsed: 0.0002651214599609375
ell 998, elapsed: 0.00026297569274902344
ell 902, elapsed: 0.004248857498168945
ell 901, elapsed: 0.0002770423889160156
ell 900, elapsed: 0.0002689361572265625
ell 899, elapsed: 0.00026798248291015625
ell 898, elapsed: 0.00026798248291015625
ell 802, elapsed: 0.004277944564819336
ell 801, elapsed: 0.0002689361572265625
ell 800, elapsed: 0.0002651214599609375
ell 799, elapsed: 0.00026607513427734375
ell 798, elapsed: 0.00026488304138183594
ell 702, elapsed: 0.00426793098449707
ell 701, elapsed: 0.0002751350402832031
ell 700, elapsed: 0.00026607513427734375
ell 699, elapsed: 0.0002651214599609375
ell 698, elapsed: 0.00026798248291015625
ell 602, elapsed: 0.004240989685058594
ell 601, elapsed: 0.0002720355987548828
ell 600, elapsed: 0.00026488304138183594
ell 599, elapsed: 0.000270843505859375
ell 598, elapsed: 0.0003151893615722656
ell 502, elapsed: 0.004235982894897461
ell 501, elapsed: 0.0002751350402832031
ell 500, elapsed: 0.0002570152282714844
ell 499, elapsed: 0.0002560615539550781
ell 498, elapsed: 0.0002579689025878906
ell 402, elapsed: 0.004173994064331055
ell 401, elapsed: 0.00026798248291015625
ell 400, elapsed: 0.0002598762512207031
ell 399, elapsed: 0.0002579689025878906
ell 398, elapsed: 0.0002617835998535156
ell 302, elapsed: 0.004180908203125
ell 301, elapsed: 0.00027108192443847656
ell 300, elapsed: 0.00026416778564453125
ell 299, elapsed: 0.00045800209045410156
ell 298, elapsed: 0.0002598762512207031
ell 202, elapsed: 0.004179954528808594
ell 201, elapsed: 0.00026798248291015625
ell 200, elapsed: 0.0002620220184326172
ell 199, elapsed: 0.0002620220184326172
ell 198, elapsed: 0.0002608299255371094
ell 152, elapsed: 0.0021371841430664062
ell 151, elapsed: 0.0002617835998535156
ell 150, elapsed: 0.0002601146697998047
ell 149, elapsed: 0.0002601146697998047
ell 148, elapsed: 0.0002620220184326172
ell 127, elapsed: 0.0011050701141357422
ell 126, elapsed: 0.00025200843811035156
ell 125, elapsed: 0.0002560615539550781
ell 124, elapsed: 0.00025200843811035156
ell 123, elapsed: 0.0002551078796386719
ell 114, elapsed: 0.0006470680236816406
ell 113, elapsed: 0.0002551078796386719
ell 112, elapsed: 0.004194974899291992
ell 111, elapsed: 0.00029921531677246094
ell 110, elapsed: 0.0002601146697998047
ell 102, elapsed: 0.0005908012390136719
ell 101, elapsed: 0.00025582313537597656
ell 100, elapsed: 0.0002570152282714844
ell 99, elapsed: 0.0002570152282714844
ell 98, elapsed: 0.0002570152282714844
ell 97, elapsed: 0.000308990478515625
ell 96, elapsed: 0.0002989768981933594
ell 95, elapsed: 0.0002980232238769531
ell 94, elapsed: 0.0003428459167480469
ell 93, elapsed: 0.0002918243408203125
ell 92, elapsed: 0.0002951622009277344
ell 91, elapsed: 0.00028014183044433594
ell 90, elapsed: 0.00030493736267089844
ell 89, elapsed: 0.00028204917907714844
ell 88, elapsed: 0.0002899169921875
ell 87, elapsed: 0.0002999305725097656
ell 86, elapsed: 0.0002880096435546875
ell 85, elapsed: 0.0002951622009277344
ell 84, elapsed: 0.00029206275939941406
ell 83, elapsed: 0.00028705596923828125
ell 82, elapsed: 0.00029397010803222656
ell 81, elapsed: 0.00032401084899902344
ell 80, elapsed: 0.00029778480529785156
ell 79, elapsed: 0.0002961158752441406
ell 78, elapsed: 0.0002961158752441406
ell 77, elapsed: 0.00030517578125
ell 76, elapsed: 0.0002961158752441406
ell 75, elapsed: 0.00029921531677246094
ell 74, elapsed: 0.0002989768981933594
ell 73, elapsed: 0.0002968311309814453
ell 72, elapsed: 0.0002999305725097656
ell 71, elapsed: 0.0003020763397216797
ell 70, elapsed: 0.0002999305725097656
ell 69, elapsed: 0.0003180503845214844
ell 68, elapsed: 0.00030994415283203125
ell 67, elapsed: 0.0003020763397216797
ell 66, elapsed: 0.0002980232238769531
ell 65, elapsed: 0.00030303001403808594
ell 64, elapsed: 0.0002951622009277344
ell 63, elapsed: 0.0002930164337158203
ell 62, elapsed: 0.0003020763397216797
ell 61, elapsed: 0.00029397010803222656
ell 60, elapsed: 0.00030493736267089844
ell 59, elapsed: 0.0002970695495605469
ell 58, elapsed: 0.0002949237823486328
ell 57, elapsed: 0.0003020763397216797
ell 56, elapsed: 0.0003368854522705078
ell 55, elapsed: 0.00030303001403808594
ell 54, elapsed: 0.0002999305725097656
ell 53, elapsed: 0.00029587745666503906
ell 52, elapsed: 0.00029087066650390625
ell 51, elapsed: 0.0002961158752441406
ell 50, elapsed: 0.0003020763397216797
ell 49, elapsed: 0.0002980232238769531
ell 48, elapsed: 0.0002999305725097656
ell 47, elapsed: 0.0002980232238769531
ell 46, elapsed: 0.00030612945556640625
ell 45, elapsed: 0.00030493736267089844
ell 44, elapsed: 0.0003299713134765625
ell 43, elapsed: 0.00030112266540527344
ell 42, elapsed: 0.0002989768981933594
ell 41, elapsed: 0.0003070831298828125
ell 40, elapsed: 0.0003020763397216797
ell 39, elapsed: 0.0002980232238769531
ell 38, elapsed: 0.00029587745666503906
ell 37, elapsed: 0.0003039836883544922
ell 36, elapsed: 0.0002961158752441406
ell 35, elapsed: 0.0003001689910888672
ell 34, elapsed: 0.0002911090850830078
ell 33, elapsed: 0.0003120899200439453
ell 32, elapsed: 0.0002989768981933594
ell 31, elapsed: 0.0003590583801269531
ell 30, elapsed: 0.0003039836883544922
ell 29, elapsed: 0.0002970695495605469
ell 28, elapsed: 0.0003077983856201172
ell 27, elapsed: 0.0002980232238769531
ell 26, elapsed: 0.00030303001403808594
ell 25, elapsed: 0.0003058910369873047
ell 24, elapsed: 0.0002989768981933594
ell 23, elapsed: 0.00029778480529785156
ell 22, elapsed: 0.0002999305725097656
ell 21, elapsed: 0.0003008842468261719
ell 20, elapsed: 0.0003027915954589844
ell 19, elapsed: 0.0003409385681152344
ell 18, elapsed: 0.00030517578125
ell 17, elapsed: 0.0002970695495605469
ell 16, elapsed: 0.0002989768981933594
ell 15, elapsed: 0.000308990478515625
ell 14, elapsed: 0.0002968311309814453
ell 13, elapsed: 0.00030303001403808594
ell 12, elapsed: 0.0002949237823486328
ell 11, elapsed: 0.0003039836883544922
ell 10, elapsed: 0.0003058910369873047
ell 9, elapsed: 0.00030803680419921875
ell 8, elapsed: 0.0003070831298828125
ell 7, elapsed: 0.00032901763916015625
ell 6, elapsed: 0.0003039836883544922
ell 5, elapsed: 0.00030994415283203125
ell 4, elapsed: 0.0002999305725097656
ell 3, elapsed: 0.0003039836883544922
ell 2, elapsed: 0.0002970695495605469
ell 1, elapsed: 0.0002951622009277344
ell 0, elapsed: 0.0003039836883544922
  0.098991 seconds (11.51 k allocations: 719.594 KiB)
elapsed: 0.00037384033203125
step:          0.04774 sec (0 allocations: 0 byte, 0.0% gc time)
swapping:      0.000322 sec (0 allocations: 0 byte, 0.0% gc time)
calc_Mellell!: 0.000819 sec (0 allocations: 0 byte, 0.0% gc time)
  t0 :  0.000247 sec (0 allocations: 0 byte, 0.0% gc time)
  tm2 : 0.0098 sec (0 allocations: 0 byte, 0.0% gc time)
  tm2s: 0.00018 sec (0 allocations: 0 byte, 0.0% gc time)
  tm4 : 0.023515 sec (0 allocations: 0 byte, 0.0% gc time)
  tp2 : 0.0 sec (0 allocations: 0 byte, 0.0% gc time)
  tp2s: 0.0 sec (0 allocations: 0 byte, 0.0% gc time)
  tp4 : 0.0 sec (0 allocations: 0 byte, 0.0% gc time)
calc_wtdll!:   0.034135 sec (1.344 k allocations: 147.0 KB, 0.0% gc time)
calc_wljj!:    0.001985 sec (6 allocations: 96 byte, 0.0% gc time)
mult_prefac!:  0.0 sec (0 allocations: 0 byte, 0.0% gc time)
convert:       0.0 sec (0 allocations: 0 byte, 0.0% gc time)
write:         0.002733 sec (0 allocations: 0 byte, 0.0% gc time)
test_rand_2f1: 0.0 sec (0 allocations: 0 byte, 0.0% gc time)
Closing outfile out/Ml21-cache.bin...   0.000006 seconds
  0.000245 seconds (36 allocations: 27.953 KiB)
make_phi():   0.001396 seconds (8.18 k allocations: 237.844 KiB)
  0.010918 seconds (11.65 k allocations: 308.688 KiB)
tskip:       1.3e-5 sec (0 allocations: 0 byte, 0.0% gc time)
tread:       0.001925 sec (17 allocations: 2.125 KB, 0.0% gc time)
tmultphi:    0.000902 sec (0 allocations: 0 byte, 0.0% gc time)
tbrfft:      0.002909 sec (0 allocations: 0 byte, 0.0% gc time)
tmultprefac: 0.001783 sec (0 allocations: 0 byte, 0.0% gc time)
toutfunc:    0.003172 sec (10.304 k allocations: 196.0 KB, 0.0% gc time)
Testing R=0.9 ... passed
Calculating fmax: 
  dlrec    = 4
  dlrecRg1 = -4
  q=1.1, R=0.8:	  0.199684 seconds (103.21 k allocations: 14.840 MiB)

  0.199848 seconds (103.26 k allocations: 14.874 MiB)
ℓ = 1202
Δℓ = 4
ΔℓRg1 = -4
N = 1600
q = 1.1
kmin = 1.0e-5
kmax = 100000.00000000004
χ0 = 0.023029999999999995
RR = RR.tsv
ℓmax = ℓmax.bin
f21 = f21.bin
kmin = 1.0e-5
kmax = 100000.0
dlrec    = 4
dlrecRg1 = -4
Output size: 5741568 bytes = 0.005347251892089844 GiB
Output size: 51264 bytes = 4.774332046508789e-5 GiB
Reading 'out/F21EllCache'...   0.024630 seconds (197 allocations: 84.203 KiB, 95.32% gc time)
ellmax: 1202
lmaxcache: 1202
fell[:,1,1] = ComplexF64[7.519068145690986e-120 - 1.8416405474382574e-135im, 7.541664537386155e-120 - 1.847175067190611e-135im]
ell 1202, elapsed: 1.6927719116210938e-5
ell 1201, elapsed: 0.00042700767517089844
ell 1200, elapsed: 0.0002548694610595703
ell 1199, elapsed: 0.00026607513427734375
ell 1198, elapsed: 0.00027489662170410156
ell 1002, elapsed: 0.007982015609741211
ell 1001, elapsed: 0.0002319812774658203
ell 1000, elapsed: 0.00021791458129882812
ell 999, elapsed: 0.00021696090698242188
ell 998, elapsed: 0.00023508071899414062
ell 902, elapsed: 0.0038230419158935547
ell 901, elapsed: 0.00021505355834960938
ell 900, elapsed: 0.00021505355834960938
ell 899, elapsed: 0.00021386146545410156
ell 898, elapsed: 0.00021409988403320312
ell 802, elapsed: 0.0039010047912597656
ell 801, elapsed: 0.00023984909057617188
ell 800, elapsed: 0.00023698806762695312
ell 799, elapsed: 0.00023698806762695312
ell 798, elapsed: 0.0002410411834716797
ell 702, elapsed: 0.003820180892944336
ell 701, elapsed: 0.0002651214599609375
ell 700, elapsed: 0.0003039836883544922
ell 699, elapsed: 0.00029397010803222656
ell 698, elapsed: 0.0002892017364501953
ell 602, elapsed: 0.004842042922973633
ell 601, elapsed: 0.00031113624572753906
ell 600, elapsed: 0.0003039836883544922
ell 599, elapsed: 0.0003039836883544922
ell 598, elapsed: 0.00030303001403808594
ell 502, elapsed: 0.004795074462890625
ell 501, elapsed: 0.00030994415283203125
ell 500, elapsed: 0.0003719329833984375
ell 499, elapsed: 0.00026988983154296875
ell 498, elapsed: 0.00026106834411621094
ell 402, elapsed: 0.004363059997558594
ell 401, elapsed: 0.0003139972686767578
ell 400, elapsed: 0.0003008842468261719
ell 399, elapsed: 0.00030612945556640625
ell 398, elapsed: 0.00030803680419921875
ell 302, elapsed: 0.004478931427001953
ell 301, elapsed: 0.0003428459167480469
ell 300, elapsed: 0.0002989768981933594
ell 299, elapsed: 0.0002989768981933594
ell 298, elapsed: 0.0003020763397216797
ell 202, elapsed: 0.004023075103759766
ell 201, elapsed: 0.00024008750915527344
ell 200, elapsed: 0.00023698806762695312
ell 199, elapsed: 0.00023794174194335938
ell 198, elapsed: 0.0002372264862060547
ell 152, elapsed: 0.0020210742950439453
ell 151, elapsed: 0.00026297569274902344
ell 150, elapsed: 0.0002570152282714844
ell 149, elapsed: 0.00024199485778808594
ell 148, elapsed: 0.0002598762512207031
ell 127, elapsed: 0.0010979175567626953
ell 126, elapsed: 0.00021696090698242188
ell 125, elapsed: 0.00021505355834960938
ell 124, elapsed: 0.00021409988403320312
ell 123, elapsed: 0.00022292137145996094
ell 114, elapsed: 0.0005590915679931641
ell 113, elapsed: 0.00028896331787109375
ell 112, elapsed: 0.0002238750457763672
ell 111, elapsed: 0.00021910667419433594
ell 110, elapsed: 0.00021982192993164062
ell 102, elapsed: 0.0005249977111816406
ell 101, elapsed: 0.00021886825561523438
ell 100, elapsed: 0.00022101402282714844
ell 99, elapsed: 0.00021910667419433594
ell 98, elapsed: 0.00021886825561523438
ell 97, elapsed: 0.00025010108947753906
ell 96, elapsed: 0.000263214111328125
ell 95, elapsed: 0.0002498626708984375
ell 94, elapsed: 0.0002601146697998047
ell 93, elapsed: 0.0002548694610595703
ell 92, elapsed: 0.0002701282501220703
ell 91, elapsed: 0.000270843505859375
ell 90, elapsed: 0.00026607513427734375
ell 89, elapsed: 0.0002579689025878906
ell 88, elapsed: 0.00026798248291015625
ell 87, elapsed: 0.00025916099548339844
ell 86, elapsed: 0.0002639293670654297
ell 85, elapsed: 0.0002579689025878906
ell 84, elapsed: 0.0002620220184326172
ell 83, elapsed: 0.0002651214599609375
ell 82, elapsed: 0.0002560615539550781
ell 81, elapsed: 0.0002639293670654297
ell 80, elapsed: 0.0002617835998535156
ell 79, elapsed: 0.0002570152282714844
ell 78, elapsed: 0.00026297569274902344
ell 77, elapsed: 0.00029015541076660156
ell 76, elapsed: 0.00026607513427734375
ell 75, elapsed: 0.00025391578674316406
ell 74, elapsed: 0.0002548694610595703
ell 73, elapsed: 0.00026106834411621094
ell 72, elapsed: 0.00025582313537597656
ell 71, elapsed: 0.00026106834411621094
ell 70, elapsed: 0.0002570152282714844
ell 69, elapsed: 0.0002560615539550781
ell 68, elapsed: 0.0002589225769042969
ell 67, elapsed: 0.00025200843811035156
ell 66, elapsed: 0.0002620220184326172
ell 65, elapsed: 0.0002510547637939453
ell 64, elapsed: 0.0002551078796386719
ell 63, elapsed: 0.0002961158752441406
ell 62, elapsed: 0.0002608299255371094
ell 61, elapsed: 0.0002560615539550781
ell 60, elapsed: 0.00029397010803222656
ell 59, elapsed: 0.0003440380096435547
ell 58, elapsed: 0.0002560615539550781
ell 57, elapsed: 0.0002510547637939453
ell 56, elapsed: 0.00026798248291015625
[...]
ell 780, elapsed: 0.0005500316619873047
ell 779, elapsed: 0.0005421638488769531
ell 778, elapsed: 0.0005528926849365234
ell 772, elapsed: 0.0007729530334472656
ell 771, elapsed: 0.0004508495330810547
ell 770, elapsed: 0.0004639625549316406
ell 769, elapsed: 0.0004551410675048828
ell 768, elapsed: 0.00046896934509277344
ell 762, elapsed: 0.0007967948913574219
ell 761, elapsed: 0.0005249977111816406
ell 760, elapsed: 0.0005018711090087891
ell 759, elapsed: 0.0004749298095703125
ell 758, elapsed: 0.00048804283142089844
ell 752, elapsed: 0.0008349418640136719
ell 751, elapsed: 0.00046896934509277344
ell 750, elapsed: 0.0004949569702148438
ell 749, elapsed: 0.0004749298095703125
ell 748, elapsed: 0.0005497932434082031
ell 742, elapsed: 0.0008668899536132812
ell 741, elapsed: 0.0004658699035644531
ell 740, elapsed: 0.000469207763671875
ell 739, elapsed: 0.0004589557647705078
ell 738, elapsed: 0.00045800209045410156
ell 732, elapsed: 0.0008749961853027344
ell 731, elapsed: 0.0004680156707763672
ell 730, elapsed: 0.0004642009735107422
ell 729, elapsed: 0.0004649162292480469
ell 728, elapsed: 0.00046515464782714844
ell 722, elapsed: 0.0008330345153808594
ell 721, elapsed: 0.00047087669372558594
ell 720, elapsed: 0.0004820823669433594
ell 719, elapsed: 0.0005929470062255859
ell 718, elapsed: 0.0004951953887939453
ell 712, elapsed: 0.0008599758148193359
ell 711, elapsed: 0.0004749298095703125
ell 710, elapsed: 0.000637054443359375
ell 709, elapsed: 0.0006430149078369141
ell 708, elapsed: 0.0006890296936035156
ell 702, elapsed: 0.0014081001281738281
ell 701, elapsed: 0.0005848407745361328
ell 700, elapsed: 0.0004980564117431641
ell 699, elapsed: 0.0004968643188476562
ell 698, elapsed: 0.0006010532379150391
ell 692, elapsed: 0.0013890266418457031
ell 691, elapsed: 0.0006260871887207031
ell 690, elapsed: 0.0005180835723876953
ell 689, elapsed: 0.0005040168762207031
ell 688, elapsed: 0.0005860328674316406
ell 682, elapsed: 0.0013189315795898438
ell 681, elapsed: 0.0005609989166259766
ell 680, elapsed: 0.0005168914794921875
ell 679, elapsed: 0.0005090236663818359
ell 678, elapsed: 0.0005099773406982422
ell 672, elapsed: 0.0012519359588623047
ell 671, elapsed: 0.0006570816040039062
ell 670, elapsed: 0.0006690025329589844
ell 669, elapsed: 0.0006630420684814453
ell 668, elapsed: 0.0005819797515869141
ell 662, elapsed: 0.0013229846954345703
ell 661, elapsed: 0.0005359649658203125
ell 660, elapsed: 0.0005099773406982422
ell 659, elapsed: 0.0005049705505371094
ell 658, elapsed: 0.0005080699920654297
ell 652, elapsed: 0.0009529590606689453
ell 651, elapsed: 0.000492095947265625
ell 650, elapsed: 0.0005040168762207031
ell 649, elapsed: 0.0004899501800537109
ell 648, elapsed: 0.0005028247833251953
ell 642, elapsed: 0.0008270740509033203
ell 641, elapsed: 0.00047707557678222656
ell 640, elapsed: 0.0004961490631103516
ell 639, elapsed: 0.000614166259765625
ell 638, elapsed: 0.0006592273712158203
ell 632, elapsed: 0.0013360977172851562
ell 631, elapsed: 0.0006411075592041016
ell 630, elapsed: 0.0007112026214599609
ell 629, elapsed: 0.0006458759307861328
ell 628, elapsed: 0.0006580352783203125
ell 622, elapsed: 0.0012700557708740234
ell 621, elapsed: 0.0006439685821533203
ell 620, elapsed: 0.0006718635559082031
ell 619, elapsed: 0.0006549358367919922
ell 618, elapsed: 0.0006501674652099609
ell 612, elapsed: 0.0008890628814697266
ell 611, elapsed: 0.0004820823669433594
ell 610, elapsed: 0.0004911422729492188
ell 609, elapsed: 0.0005888938903808594
ell 608, elapsed: 0.0006449222564697266
ell 602, elapsed: 0.001249074935913086
ell 601, elapsed: 0.0006349086761474609
ell 600, elapsed: 0.0005099773406982422
ell 599, elapsed: 0.0005388259887695312
ell 598, elapsed: 0.0006558895111083984
ell 592, elapsed: 0.0009031295776367188
ell 591, elapsed: 0.00048613548278808594
ell 590, elapsed: 0.0004928112030029297
ell 589, elapsed: 0.0004780292510986328
ell 588, elapsed: 0.0004889965057373047
ell 582, elapsed: 0.0009391307830810547
ell 581, elapsed: 0.0004839897155761719
ell 580, elapsed: 0.0004889965057373047
ell 579, elapsed: 0.0004730224609375
ell 578, elapsed: 0.0004849433898925781
ell 572, elapsed: 0.0008020401000976562
ell 571, elapsed: 0.0004949569702148438
ell 570, elapsed: 0.0004718303680419922
ell 569, elapsed: 0.00046706199645996094
ell 568, elapsed: 0.0004680156707763672
ell 562, elapsed: 0.0008099079132080078
ell 561, elapsed: 0.0004680156707763672
ell 560, elapsed: 0.0004718303680419922
ell 559, elapsed: 0.0004839897155761719
ell 558, elapsed: 0.0005071163177490234
ell 552, elapsed: 0.0008060932159423828
ell 551, elapsed: 0.00046706199645996094
ell 550, elapsed: 0.0004680156707763672
ell 549, elapsed: 0.0004649162292480469
ell 548, elapsed: 0.0004680156707763672
ell 542, elapsed: 0.0007810592651367188
ell 541, elapsed: 0.0004811286926269531
ell 540, elapsed: 0.00046706199645996094
ell 539, elapsed: 0.0004649162292480469
ell 538, elapsed: 0.0004668235778808594
ell 532, elapsed: 0.0007920265197753906
ell 531, elapsed: 0.0004680156707763672
ell 530, elapsed: 0.0004649162292480469
ell 529, elapsed: 0.0004639625549316406
ell 528, elapsed: 0.0005350112915039062
ell 522, elapsed: 0.0007939338684082031
ell 521, elapsed: 0.0004661083221435547
ell 520, elapsed: 0.00046896934509277344
ell 519, elapsed: 0.0004730224609375
ell 518, elapsed: 0.00046896934509277344
ell 512, elapsed: 0.0008549690246582031
ell 511, elapsed: 0.00047206878662109375
ell 510, elapsed: 0.00047206878662109375
ell 509, elapsed: 0.0004749298095703125
ell 508, elapsed: 0.0004718303680419922
ell 502, elapsed: 0.0007879734039306641
ell 501, elapsed: 0.0004718303680419922
ell 500, elapsed: 0.0004458427429199219
ell 499, elapsed: 0.0004639625549316406
ell 498, elapsed: 0.0004611015319824219
ell 492, elapsed: 0.0007560253143310547
ell 491, elapsed: 0.0004429817199707031
ell 490, elapsed: 0.0004570484161376953
ell 489, elapsed: 0.00045108795166015625
ell 488, elapsed: 0.00045013427734375
ell 482, elapsed: 0.0007948875427246094
ell 481, elapsed: 0.00044798851013183594
ell 480, elapsed: 0.00044798851013183594
ell 479, elapsed: 0.0004489421844482422
ell 478, elapsed: 0.0004470348358154297
ell 472, elapsed: 0.0007538795471191406
ell 471, elapsed: 0.00044798851013183594
ell 470, elapsed: 0.0004429817199707031
ell 469, elapsed: 0.00045800209045410156
ell 468, elapsed: 0.0004429817199707031
ell 462, elapsed: 0.00074005126953125
ell 461, elapsed: 0.00044798851013183594
ell 460, elapsed: 0.0004467964172363281
ell 459, elapsed: 0.0004429817199707031
ell 458, elapsed: 0.0004439353942871094
ell 452, elapsed: 0.0007660388946533203
ell 451, elapsed: 0.00044608116149902344
ell 450, elapsed: 0.0004470348358154297
ell 449, elapsed: 0.0004439353942871094
ell 448, elapsed: 0.00044608116149902344
ell 442, elapsed: 0.0007510185241699219
ell 441, elapsed: 0.0004429817199707031
ell 440, elapsed: 0.0004448890686035156
ell 439, elapsed: 0.0005359649658203125
ell 438, elapsed: 0.00047397613525390625
ell 432, elapsed: 0.0007958412170410156
ell 431, elapsed: 0.0004680156707763672
ell 430, elapsed: 0.000469207763671875
ell 429, elapsed: 0.0004620552062988281
ell 428, elapsed: 0.0004649162292480469
ell 422, elapsed: 0.0008449554443359375
ell 421, elapsed: 0.0004630088806152344
ell 420, elapsed: 0.0004639625549316406
ell 419, elapsed: 0.0004649162292480469
ell 418, elapsed: 0.0004658699035644531
ell 412, elapsed: 0.0008130073547363281
ell 411, elapsed: 0.000469207763671875
ell 410, elapsed: 0.0004680156707763672
ell 409, elapsed: 0.000492095947265625
ell 408, elapsed: 0.0004718303680419922
ell 402, elapsed: 0.0008299350738525391
ell 401, elapsed: 0.0004680156707763672
ell 400, elapsed: 0.00047206878662109375
ell 399, elapsed: 0.00045990943908691406
ell 398, elapsed: 0.00048089027404785156
ell 392, elapsed: 0.0008890628814697266
ell 391, elapsed: 0.00047397613525390625
ell 390, elapsed: 0.00047707557678222656
ell 389, elapsed: 0.0004839897155761719
ell 388, elapsed: 0.0004839897155761719
ell 382, elapsed: 0.0008559226989746094
ell 381, elapsed: 0.0004799365997314453
ell 380, elapsed: 0.0005080699920654297
ell 379, elapsed: 0.0005280971527099609
ell 378, elapsed: 0.0004999637603759766
ell 372, elapsed: 0.0008230209350585938
ell 371, elapsed: 0.00047397613525390625
ell 370, elapsed: 0.0004780292510986328
ell 369, elapsed: 0.0004761219024658203
ell 368, elapsed: 0.0005578994750976562
ell 362, elapsed: 0.0009160041809082031
ell 361, elapsed: 0.0004749298095703125
ell 360, elapsed: 0.00047206878662109375
ell 359, elapsed: 0.00046896934509277344
ell 358, elapsed: 0.0004711151123046875
ell 352, elapsed: 0.0008740425109863281
ell 351, elapsed: 0.0005359649658203125
ell 350, elapsed: 0.0005338191986083984
ell 349, elapsed: 0.0004742145538330078
ell 348, elapsed: 0.0004761219024658203
ell 342, elapsed: 0.0008249282836914062
ell 341, elapsed: 0.0004730224609375
ell 340, elapsed: 0.0005259513854980469
ell 339, elapsed: 0.000537872314453125
ell 338, elapsed: 0.0005428791046142578
ell 332, elapsed: 0.0008401870727539062
ell 331, elapsed: 0.00047397613525390625
ell 330, elapsed: 0.0005350112915039062
ell 329, elapsed: 0.0005178451538085938
ell 328, elapsed: 0.0005071163177490234
ell 322, elapsed: 0.0008189678192138672
ell 321, elapsed: 0.00047206878662109375
ell 320, elapsed: 0.0004839897155761719
ell 319, elapsed: 0.0004889965057373047
ell 318, elapsed: 0.0004889965057373047
ell 312, elapsed: 0.0009109973907470703
ell 311, elapsed: 0.0005810260772705078
ell 310, elapsed: 0.0005459785461425781
ell 309, elapsed: 0.0004820823669433594
ell 308, elapsed: 0.0004858970642089844
ell 302, elapsed: 0.0008378028869628906
ell 301, elapsed: 0.0004839897155761719
ell 300, elapsed: 0.0005681514739990234
ell 299, elapsed: 0.0005428791046142578
ell 298, elapsed: 0.0005409717559814453
ell 292, elapsed: 0.0008289813995361328
ell 291, elapsed: 0.00048804283142089844
ell 290, elapsed: 0.0004899501800537109
ell 289, elapsed: 0.0004820823669433594
ell 288, elapsed: 0.0005371570587158203
ell 282, elapsed: 0.0008230209350585938
ell 281, elapsed: 0.00047588348388671875
ell 280, elapsed: 0.00047206878662109375
ell 279, elapsed: 0.00046896934509277344
ell 278, elapsed: 0.00046896934509277344
ell 272, elapsed: 0.0008299350738525391
ell 271, elapsed: 0.0005619525909423828
ell 270, elapsed: 0.0005340576171875
ell 269, elapsed: 0.0004951953887939453
ell 268, elapsed: 0.0004889965057373047
ell 262, elapsed: 0.0009379386901855469
ell 261, elapsed: 0.00048089027404785156
ell 260, elapsed: 0.0005040168762207031
ell 259, elapsed: 0.0005750656127929688
ell 258, elapsed: 0.0005049705505371094
ell 252, elapsed: 0.0008981227874755859
ell 251, elapsed: 0.0004849433898925781
ell 250, elapsed: 0.0005550384521484375
ell 249, elapsed: 0.0005218982696533203
ell 248, elapsed: 0.0005578994750976562
ell 242, elapsed: 0.0008549690246582031
ell 241, elapsed: 0.0004820823669433594
ell 240, elapsed: 0.0004889965057373047
ell 239, elapsed: 0.0004799365997314453
ell 238, elapsed: 0.0004849433898925781
ell 232, elapsed: 0.0008130073547363281
ell 231, elapsed: 0.0005700588226318359
ell 230, elapsed: 0.0005450248718261719
ell 229, elapsed: 0.0005409717559814453
ell 228, elapsed: 0.0005459785461425781
ell 222, elapsed: 0.0009388923645019531
ell 221, elapsed: 0.0005500316619873047
ell 220, elapsed: 0.0005941390991210938
ell 219, elapsed: 0.0005419254302978516
ell 218, elapsed: 0.0005509853363037109
ell 212, elapsed: 0.0009629726409912109
ell 211, elapsed: 0.0005521774291992188
ell 210, elapsed: 0.0005590915679931641
ell 209, elapsed: 0.0005769729614257812
ell 208, elapsed: 0.0005540847778320312
ell 202, elapsed: 0.0009601116180419922
ell 201, elapsed: 0.0005450248718261719
ell 200, elapsed: 0.0005528926849365234
ell 199, elapsed: 0.0005450248718261719
ell 198, elapsed: 0.0005550384521484375
ell 192, elapsed: 0.0009529590606689453
ell 191, elapsed: 0.0005438327789306641
ell 190, elapsed: 0.0005478858947753906
ell 189, elapsed: 0.0005409717559814453
ell 188, elapsed: 0.0005548000335693359
ell 182, elapsed: 0.0009670257568359375
ell 181, elapsed: 0.0004630088806152344
ell 180, elapsed: 0.00046896934509277344
ell 179, elapsed: 0.0004551410675048828
ell 178, elapsed: 0.0004630088806152344
ell 172, elapsed: 0.0007569789886474609
ell 171, elapsed: 0.00045013427734375
ell 170, elapsed: 0.00045490264892578125
ell 169, elapsed: 0.00047016143798828125
ell 168, elapsed: 0.0004551410675048828
ell 162, elapsed: 0.0007488727569580078
ell 161, elapsed: 0.0004448890686035156
ell 160, elapsed: 0.0004489421844482422
ell 159, elapsed: 0.0004520416259765625
ell 158, elapsed: 0.0004489421844482422
ell 152, elapsed: 0.0007979869842529297
ell 151, elapsed: 0.0004639625549316406
ell 150, elapsed: 0.0004451274871826172
ell 149, elapsed: 0.00045013427734375
ell 148, elapsed: 0.0004439353942871094
ell 142, elapsed: 0.0007481575012207031
ell 141, elapsed: 0.00044798851013183594
ell 140, elapsed: 0.00044798851013183594
ell 139, elapsed: 0.00046896934509277344
ell 138, elapsed: 0.000453948974609375
ell 132, elapsed: 0.0007460117340087891
ell 131, elapsed: 0.00044608116149902344
ell 130, elapsed: 0.0004489421844482422
ell 129, elapsed: 0.00044798851013183594
ell 128, elapsed: 0.0004489421844482422
ell 122, elapsed: 0.0007359981536865234
ell 121, elapsed: 0.00046896934509277344
ell 120, elapsed: 0.00048804283142089844
ell 119, elapsed: 0.00046706199645996094
ell 118, elapsed: 0.0004899501800537109
ell 112, elapsed: 0.0009119510650634766
ell 111, elapsed: 0.00045299530029296875
ell 110, elapsed: 0.0004680156707763672
ell 109, elapsed: 0.0005209445953369141
ell 108, elapsed: 0.0004558563232421875
ell 102, elapsed: 0.0007491111755371094
ell 101, elapsed: 0.001981973648071289
ell 100, elapsed: 0.002206087112426758
ell 99, elapsed: 0.002171039581298828
ell 98, elapsed: 0.0021867752075195312
ell 92, elapsed: 0.004075050354003906
ell 91, elapsed: 0.002189159393310547
ell 90, elapsed: 0.0021810531616210938
ell 89, elapsed: 0.002251148223876953
ell 88, elapsed: 0.002259969711303711
ell 82, elapsed: 0.004503965377807617
ell 81, elapsed: 0.002351999282836914
ell 80, elapsed: 0.0023658275604248047
ell 79, elapsed: 0.0023298263549804688
ell 78, elapsed: 0.0023391246795654297
ell 72, elapsed: 0.004395008087158203
ell 71, elapsed: 0.0022029876708984375
ell 70, elapsed: 0.002331972122192383
ell 69, elapsed: 0.0023479461669921875
ell 68, elapsed: 0.002315998077392578
ell 62, elapsed: 0.004496097564697266
ell 61, elapsed: 0.002373218536376953
ell 60, elapsed: 0.0023200511932373047
ell 59, elapsed: 0.0022711753845214844
ell 58, elapsed: 0.0022890567779541016
ell 52, elapsed: 0.0044901371002197266
ell 51, elapsed: 0.0023241043090820312
ell 50, elapsed: 0.002370119094848633
ell 49, elapsed: 0.002458810806274414
ell 48, elapsed: 0.002334117889404297
ell 42, elapsed: 0.0044879913330078125
ell 41, elapsed: 0.0023469924926757812
ell 40, elapsed: 0.0023920536041259766
ell 39, elapsed: 0.002348184585571289
ell 38, elapsed: 0.0023839473724365234
ell 32, elapsed: 0.004372835159301758
ell 31, elapsed: 0.0021691322326660156
ell 30, elapsed: 0.002309083938598633
ell 29, elapsed: 0.002310037612915039
ell 28, elapsed: 0.002295970916748047
ell 22, elapsed: 0.004241943359375
ell 21, elapsed: 0.002207040786743164
ell 20, elapsed: 0.002171039581298828
ell 19, elapsed: 0.0021970272064208984
ell 18, elapsed: 0.002156972885131836
ell 12, elapsed: 0.004142045974731445
ell 11, elapsed: 0.0022819042205810547
ell 10, elapsed: 0.002396821975708008
ell 9, elapsed: 0.0025451183319091797
ell 8, elapsed: 0.002525806427001953
  0.471327 seconds (68.56 k allocations: 12.176 MiB)
elapsed: 0.0029489994049072266
step:          0.041882 sec (0 allocations: 0 byte, 0.0% gc time)
swapping:      0.000349 sec (0 allocations: 0 byte, 0.0% gc time)
calc_Mellell!: 0.016675 sec (0 allocations: 0 byte, 0.0% gc time)
  t0 :  0.00545 sec (0 allocations: 0 byte, 0.0% gc time)
  tm2 : 0.046939 sec (0 allocations: 0 byte, 0.0% gc time)
  tm2s: 0.004668 sec (0 allocations: 0 byte, 0.0% gc time)
  tm4 : 0.103985 sec (0 allocations: 0 byte, 0.0% gc time)
  tp2 : 0.0 sec (0 allocations: 0 byte, 0.0% gc time)
  tp2s: 0.0 sec (0 allocations: 0 byte, 0.0% gc time)
  tp4 : 0.0 sec (0 allocations: 0 byte, 0.0% gc time)
calc_wtdll!:   0.347126 sec (48.6 k allocations: 11.096 MB, 0.0% gc time)
calc_wljj!:    0.016161 sec (69 allocations: 1.078 KB, 0.0% gc time)
mult_prefac!:  0.0 sec (0 allocations: 0 byte, 0.0% gc time)
convert:       0.0 sec (0 allocations: 0 byte, 0.0% gc time)
write:         0.024973 sec (0 allocations: 0 byte, 0.0% gc time)
test_rand_2f1: 0.0 sec (0 allocations: 0 byte, 0.0% gc time)
Closing outfile out/MlCache/MlCache.bin...   0.000008 seconds
xi, l=0, nu=0:   0.264226 seconds (602.98 k allocations: 32.977 MiB, 99.43% compilation time)
xi, l=0, nu=-2:  0.001697 seconds (114 allocations: 148.969 KiB)
Created 'out/xi.tsv'.
  q=1.1, R=0.6:	  0.438140 seconds (264.58 k allocations: 38.109 MiB, 4.22% gc time)
  q=1.1, R=0.7:	  0.502000 seconds (276.43 k allocations: 40.113 MiB, 2.63% gc time)
  q=1.1, R=0.8:	  0.514727 seconds (271.87 k allocations: 39.334 MiB, 4.20% gc time)
  q=1.1, R=0.9:	  0.535885 seconds (266.68 k allocations: 38.464 MiB, 1.16% gc time)
  q=1.1, R=0.998:	 14.480425 seconds (114.96 k allocations: 7.588 MiB)
  q=1.1, R=1.0:	  0.003235 seconds (8.20 k allocations: 704.344 KiB)

ℓ = 1000
Δℓ = 4
ΔℓRg1 = -4
N = 4096
q = 1.1
kmin = 1.0e-5
kmax = 1000.0
χ0 = 0.001
RR = RR.tsv
ℓmax = ℓmax.bin
f21 = f21.bin
kmin = 1.0e-5
kmax = 1000.0
dlrec    = 4
dlrecRg1 = -4
Output size: 1573632 bytes = 0.0014655590057373047 GiB
Output size: 786816 bytes = 0.0007327795028686523 GiB
Reading 'out/F21EllCache'...   0.001360 seconds (198 allocations: 533.078 KiB)
ellmax: 1002
lmaxcache: 1000
fell[:,1,1] = ComplexF64[1.726292812820208e-224 - 4.2281979352226965e-240im, 1.7282693092099638e-224 - 4.233038955177178e-240im]
ell 1002, elapsed: 2.5033950805664062e-5
ell 1001, elapsed: 0.0007548332214355469
ell 1000, elapsed: 0.000782012939453125
ell 999, elapsed: 0.004282951354980469
ell 998, elapsed: 0.004240989685058594
ell 44, elapsed: 0.6289708614349365
ell 43, elapsed: 0.003782987594604492
ell 42, elapsed: 0.0037221908569335938
ell 41, elapsed: 0.0036458969116210938
ell 40, elapsed: 0.0038509368896484375
  0.658855 seconds (4.59 k allocations: 322.266 KiB)
elapsed: 0.004586935043334961
step:          0.618336 sec (0 allocations: 0 byte, 0.0% gc time)
swapping:      0.000366 sec (0 allocations: 0 byte, 0.0% gc time)
calc_Mellell!: 0.000741 sec (0 allocations: 0 byte, 0.0% gc time)
  t0 :  0.000516 sec (0 allocations: 0 byte, 0.0% gc time)
  tm2 : 0.007319 sec (0 allocations: 0 byte, 0.0% gc time)
  tm2s: 0.000485 sec (0 allocations: 0 byte, 0.0% gc time)
  tm4 : 0.018671 sec (0 allocations: 0 byte, 0.0% gc time)
  tp2 : 0.0 sec (0 allocations: 0 byte, 0.0% gc time)
  tp2s: 0.0 sec (0 allocations: 0 byte, 0.0% gc time)
  tp4 : 0.0 sec (0 allocations: 0 byte, 0.0% gc time)
calc_wtdll!:   0.027148 sec (480 allocations: 52.5 KB, 0.0% gc time)
calc_wljj!:    0.000762 sec (1 allocations: 16 byte, 0.0% gc time)
mult_prefac!:  0.0 sec (0 allocations: 0 byte, 0.0% gc time)
convert:       0.0 sec (0 allocations: 0 byte, 0.0% gc time)
write:         0.000777 sec (0 allocations: 0 byte, 0.0% gc time)
test_rand_2f1: 0.0 sec (0 allocations: 0 byte, 0.0% gc time)
Closing outfile out/MlCache/MlCache.bin...   0.000007 seconds
  0.367507 seconds (38 allocations: 66.859 KiB)
make_phi():   0.006082 seconds (65 allocations: 275.984 KiB)
  0.037269 seconds (11.42 k allocations: 711.960 KiB, 92.44% compilation time)
tskip:       0.0 sec (0 allocations: 0 byte, 0.0% gc time)
tread:       0.000519 sec (17 allocations: 1.266 KB, 0.0% gc time)
tmultphi:    0.000169 sec (0 allocations: 0 byte, 0.0% gc time)
tbrfft:      0.000796 sec (0 allocations: 0 byte, 0.0% gc time)
tmultprefac: 0.000357 sec (0 allocations: 0 byte, 0.0% gc time)
toutfunc:    0.000162 sec (0 allocations: 0 byte, 0.0% gc time)
Created 'out/wl42_jj00.tsv'.
Created 'out/wl42_jj02.tsv'.
    Testing TwoFAST tests passed 
