Julia Version 1.6.0-DEV.1093
Commit 28330a2fef (2020-09-30 14:46 UTC)
Platform Info:
  OS: Linux (x86_64-linux-gnu)
  CPU: Intel(R) Xeon(R) Silver 4114 CPU @ 2.20GHz
  WORD_SIZE: 64
  LIBM: libopenlibm
  LLVM: libLLVM-10.0.1 (ORCJIT, skylake-avx512)
Environment:
  JULIA_DEPOT_PATH = ::/usr/local/share/julia
  JULIA_NUM_THREADS = 2

  Resolving package versions...
  Installed Reexport ───────────────────── v0.2.0
  Installed IntelOpenMP_jll ────────────── v2018.0.3+0
  Installed OpenSpecFun_jll ────────────── v0.5.3+3
  Installed MKL_jll ────────────────────── v2020.2.254+0
  Installed AbstractFFTs ───────────────── v0.5.0
  Installed BinaryProvider ─────────────── v0.5.10
  Installed FFTW ───────────────────────── v1.2.4
  Installed CompilerSupportLibraries_jll ─ v0.3.3+0
  Installed Readables ──────────────────── v0.3.3
  Installed GenericSVD ─────────────────── v0.3.0
  Installed FFTW_jll ───────────────────── v3.3.9+5
  Installed SpecialFunctions ───────────── v0.10.3
  Installed TwoFAST ────────────────────── v0.1.3
  Installed GenericSchur ───────────────── v0.4.0
  Installed ArbNumerics ────────────────── v1.2.1
Updating `~/.julia/environments/v1.6/Project.toml`
  [0dd23c3e] + TwoFAST v0.1.3
Updating `~/.julia/environments/v1.6/Manifest.toml`
  [621f4979] + AbstractFFTs v0.5.0
  [7e558dbc] + ArbNumerics v1.2.1
  [b99e7846] + BinaryProvider v0.5.10
  [e66e0078] + CompilerSupportLibraries_jll v0.3.3+0
  [7a1cc6ca] + FFTW v1.2.4
  [f5851436] + FFTW_jll v3.3.9+5
  [01680d73] + GenericSVD v0.3.0
  [c145ed77] + GenericSchur v0.4.0
  [1d5cc7b8] + IntelOpenMP_jll v2018.0.3+0
  [856f044c] + MKL_jll v2020.2.254+0
  [efe28fd5] + OpenSpecFun_jll v0.5.3+3
  [0d4725de] + Readables v0.3.3
  [189a3867] + Reexport v0.2.0
  [276daf66] + SpecialFunctions v0.10.3
  [0dd23c3e] + TwoFAST v0.1.3
  [56f22d72] + Artifacts
  [2a0f44e3] + Base64
  [ade2ca70] + Dates
  [8bb1440f] + DelimitedFiles
  [8ba89e20] + Distributed
  [b77e0a4c] + InteractiveUtils
  [76f85450] + LibGit2
  [8f399da3] + Libdl
  [37e2e46d] + LinearAlgebra
  [56ddb016] + Logging
  [d6f4376e] + Markdown
  [a63ad114] + Mmap
  [44cfe95a] + Pkg
  [de0858da] + Printf
  [3fa0cd96] + REPL
  [9a3f8284] + Random
  [ea8e919c] + SHA
  [9e88b42a] + Serialization
  [6462fe0b] + Sockets
  [fa267f1f] + TOML
  [8dfed614] + Test
  [cf7118a7] + UUIDs
  [4ec0a83e] + Unicode
   Building FFTW ───────→ `~/.julia/scratchspaces/44cfe95a-1eb2-52ea-b672-e2afdf69b78f/8b7c16b56936047ca41bf25effa137ae0b381ae8/build.log`
   Building ArbNumerics → `~/.julia/scratchspaces/44cfe95a-1eb2-52ea-b672-e2afdf69b78f/329a81d67c64e3a51c176a243b6424fbe39213d0/build.log`
    Testing TwoFAST
Status `/tmp/jl_BMuUgh/Project.toml`
  [7e558dbc] ArbNumerics v1.2.1
  [39dd38d3] Dierckx v0.5.0
  [7a1cc6ca] FFTW v1.2.4
  [276daf66] SpecialFunctions v0.10.3
  [0dd23c3e] TwoFAST v0.1.3
  [8bb1440f] DelimitedFiles
  [37e2e46d] LinearAlgebra
  [56ddb016] Logging
  [8dfed614] Test
Status `/tmp/jl_BMuUgh/Manifest.toml`
  [621f4979] AbstractFFTs v0.5.0
  [7e558dbc] ArbNumerics v1.2.1
  [b99e7846] BinaryProvider v0.5.10
  [e66e0078] CompilerSupportLibraries_jll v0.3.3+0
  [39dd38d3] Dierckx v0.5.0
  [cd4c43a9] Dierckx_jll v0.0.1+0
  [7a1cc6ca] FFTW v1.2.4
  [f5851436] FFTW_jll v3.3.9+5
  [01680d73] GenericSVD v0.3.0
  [c145ed77] GenericSchur v0.4.0
  [1d5cc7b8] IntelOpenMP_jll v2018.0.3+0
  [856f044c] MKL_jll v2020.2.254+0
  [efe28fd5] OpenSpecFun_jll v0.5.3+3
  [0d4725de] Readables v0.3.3
  [189a3867] Reexport v0.2.0
  [276daf66] SpecialFunctions v0.10.3
  [0dd23c3e] TwoFAST v0.1.3
  [56f22d72] Artifacts
  [2a0f44e3] Base64
  [ade2ca70] Dates
  [8bb1440f] DelimitedFiles
  [8ba89e20] Distributed
  [b77e0a4c] InteractiveUtils
  [76f85450] LibGit2
  [8f399da3] Libdl
  [37e2e46d] LinearAlgebra
  [56ddb016] Logging
  [d6f4376e] Markdown
  [a63ad114] Mmap
  [44cfe95a] Pkg
  [de0858da] Printf
  [3fa0cd96] REPL
  [9a3f8284] Random
  [ea8e919c] SHA
  [9e88b42a] Serialization
  [6462fe0b] Sockets
  [fa267f1f] TOML
  [8dfed614] Test
  [cf7118a7] UUIDs
  [4ec0a83e] Unicode
    Testing Running tests...
WARNING: could not import Printf.ini_hex into ArbNumerics
WARNING: could not import Printf.ini_HEX into ArbNumerics
t = 0.0 sec (0 allocations: 0 byte, 0.0% gc time)
typeof(t) = NamedTuple{(:value, :time, :bytes, :gctime, :gcstats), Tuple{DataType, Float64, Int64, Float64, Base.GC_Diff}}
TwoFAST.PerformanceStats.TimedType = Union{NamedTuple{(:value, :time, :bytes, :gctime, :gcstats), Tuple{T, Float64, Int64, Float64, Base.GC_Diff}}, Tuple{Any, Float64, Int64, Float64, Base.GC_Diff}} where T
t = 0.0 sec (0 allocations: 0 byte, 0.0% gc time)
t: 0.0 sec (0 allocations: 0 byte, 0.0% gc time)
Testing ξ(r), ℓ=0, ν=-1 ... passed
Testing ξ(r), ℓ=0, ν=0 ... passed
Testing ξ(r), ℓ=0, ν=1 ... passed
Testing ξ(r), ℓ=0, ν=2 ... passed
Testing ξ(r), ℓ=0, ν=3 ... passed
Testing ξ(r), ℓ=1, ν=0 ... passed
Testing ξ(r), ℓ=1, ν=1 ... passed
Testing ξ(r), ℓ=1, ν=2 ... passed
Testing ξ(r), ℓ=1, ν=3 ... passed
Testing ξ(r), ℓ=2, ν=-1 ... passed
Testing ξ(r), ℓ=2, ν=0 ... passed
Testing ξ(r), ℓ=2, ν=1 ... passed
Testing ξ(r), ℓ=2, ν=2 ... passed
Testing ξ(r), ℓ=2, ν=3 ... passed
Testing ξ(r), ℓ=3, ν=-1 ... passed
Testing ξ(r), ℓ=3, ν=0 ... passed
Testing ξ(r), ℓ=3, ν=1 ... passed
Testing ξ(r), ℓ=3, ν=2 ... passed
Testing ξ(r), ℓ=3, ν=3 ... passed
Testing ξ(r), ℓ=4, ν=-1 ... passed
Testing ξ(r), ℓ=4, ν=0 ... passed
Testing ξ(r), ℓ=4, ν=1 ... passed
Testing ξ(r), ℓ=4, ν=2 ... passed
Testing ξ(r), ℓ=4, ν=3 ... passed
Testing ξ(r) ... passed
Testing ξ′(r) ... passed
Testing ξ″(r) ... passed
Calculating fmax: 
  dlrec    = 4
  dlrecRg1 = -4
  q=1.1, R=1.1:	  5.030988 seconds (842.63 k allocations: 53.873 MiB, 0.56% gc time, 88.44% compilation time)

  5.049247 seconds (855.13 k allocations: 54.661 MiB, 0.56% gc time, 88.46% compilation time)
ℓ = 1202
Δℓ = 4
ΔℓRg1 = -4
N = 1600
q = 1.1
kmin = 1.0e-5
kmax = 100000.00000000004
χ0 = 0.023029999999999995
RR = RR.tsv
ℓmax = ℓmax.bin
f21 = f21.bin
kmin = 1.0e-5
kmax = 100000.0
dlrec    = 4
dlrecRg1 = -4
Output size: 5741568 bytes = 0.005347251892089844 GiB
Output size: 51264 bytes = 4.774332046508789e-5 GiB
Reading 'out/F21EllCache'...   0.734078 seconds (395.09 k allocations: 23.199 MiB, 99.62% compilation time)
ellmax: 1202
lmaxcache: 1202
fell[:,1,1] = ComplexF64[3.9583795592771634e-52 - 9.695233714158177e-68im, 3.990121772925759e-52 - 9.772979714843386e-68im]
ell 1202, elapsed: 3.814697265625e-5
ell 1201, elapsed: 1.4118211269378662
ell 1200, elapsed: 0.0007190704345703125
ell 1199, elapsed: 0.0006771087646484375
ell 1198, elapsed: 0.0010640621185302734
ell 1002, elapsed: 0.013608217239379883
ell 1001, elapsed: 0.0006399154663085938
ell 1000, elapsed: 0.0006189346313476562
ell 999, elapsed: 0.0006909370422363281
ell 998, elapsed: 0.0006241798400878906
ell 902, elapsed: 0.006857872009277344
ell 901, elapsed: 0.0006349086761474609
ell 900, elapsed: 0.0006148815155029297
ell 899, elapsed: 0.0006160736083984375
ell 898, elapsed: 0.0006151199340820312
ell 802, elapsed: 0.0067980289459228516
ell 801, elapsed: 0.0006401538848876953
ell 800, elapsed: 0.00061798095703125
ell 799, elapsed: 0.0006189346313476562
ell 798, elapsed: 0.0006170272827148438
ell 702, elapsed: 0.006766080856323242
ell 701, elapsed: 0.0006310939788818359
ell 700, elapsed: 0.0006158351898193359
ell 699, elapsed: 0.0007090568542480469
ell 698, elapsed: 0.0006191730499267578
ell 602, elapsed: 0.006704092025756836
ell 601, elapsed: 0.000637054443359375
ell 600, elapsed: 0.0006251335144042969
ell 599, elapsed: 0.0006160736083984375
ell 598, elapsed: 0.0006158351898193359
ell 502, elapsed: 0.006754875183105469
ell 501, elapsed: 0.0006299018859863281
ell 500, elapsed: 0.0006201267242431641
ell 499, elapsed: 0.0006208419799804688
ell 498, elapsed: 0.0006899833679199219
ell 402, elapsed: 0.0067539215087890625
ell 401, elapsed: 0.0006811618804931641
ell 400, elapsed: 0.0007178783416748047
ell 399, elapsed: 0.0006740093231201172
ell 398, elapsed: 0.0006730556488037109
ell 302, elapsed: 0.0073549747467041016
ell 301, elapsed: 0.0006830692291259766
ell 300, elapsed: 0.0006740093231201172
ell 299, elapsed: 0.0006740093231201172
ell 298, elapsed: 0.0007238388061523438
ell 202, elapsed: 0.007276058197021484
ell 201, elapsed: 0.0007319450378417969
ell 200, elapsed: 0.000553131103515625
ell 199, elapsed: 0.0005390644073486328
ell 198, elapsed: 0.0005409717559814453
ell 152, elapsed: 0.003173828125
ell 151, elapsed: 0.0005469322204589844
ell 150, elapsed: 0.0005390644073486328
ell 149, elapsed: 0.0005390644073486328
ell 148, elapsed: 0.0005400180816650391
ell 127, elapsed: 0.0017960071563720703
ell 126, elapsed: 0.0005438327789306641
ell 125, elapsed: 0.0005390644073486328
ell 124, elapsed: 0.000537872314453125
ell 123, elapsed: 0.0005390644073486328
ell 114, elapsed: 0.0011479854583740234
ell 113, elapsed: 0.0005450248718261719
ell 112, elapsed: 0.0005381107330322266
ell 111, elapsed: 0.0005400180816650391
ell 110, elapsed: 0.0005400180816650391
ell 102, elapsed: 0.0009870529174804688
ell 101, elapsed: 0.0006568431854248047
ell 100, elapsed: 0.0005459785461425781
ell 99, elapsed: 0.0005419254302978516
ell 98, elapsed: 0.0005440711975097656
ell 97, elapsed: 0.0006170272827148438
ell 96, elapsed: 0.0006020069122314453
ell 95, elapsed: 0.0007181167602539062
ell 94, elapsed: 0.0006098747253417969
ell 93, elapsed: 0.0006129741668701172
ell 92, elapsed: 0.0006098747253417969
ell 91, elapsed: 0.0006079673767089844
ell 90, elapsed: 0.0006139278411865234
ell 89, elapsed: 0.0007011890411376953
ell 88, elapsed: 0.0006449222564697266
ell 87, elapsed: 0.0006229877471923828
ell 86, elapsed: 0.000621795654296875
ell 85, elapsed: 0.0006279945373535156
ell 84, elapsed: 0.0006220340728759766
ell 83, elapsed: 0.0007309913635253906
ell 82, elapsed: 0.0006301403045654297
ell 81, elapsed: 0.0006208419799804688
ell 80, elapsed: 0.0006258487701416016
ell 79, elapsed: 0.0006198883056640625
ell 78, elapsed: 0.0006339550018310547
ell 77, elapsed: 0.0007290840148925781
ell 76, elapsed: 0.0006029605865478516
ell 75, elapsed: 0.000614166259765625
ell 74, elapsed: 0.0006110668182373047
ell 73, elapsed: 0.00061798095703125
ell 72, elapsed: 0.0006029605865478516
ell 71, elapsed: 0.0007319450378417969
ell 70, elapsed: 0.0006310939788818359
ell 69, elapsed: 0.0006079673767089844
ell 68, elapsed: 0.0006289482116699219
ell 67, elapsed: 0.0006148815155029297
ell 66, elapsed: 0.0006210803985595703
ell 65, elapsed: 0.0007350444793701172
ell 64, elapsed: 0.0006229877471923828
ell 63, elapsed: 0.0006759166717529297
ell 62, elapsed: 0.0006930828094482422
ell 61, elapsed: 0.0006899833679199219
ell 60, elapsed: 0.0006890296936035156
ell 59, elapsed: 0.0007121562957763672
ell 58, elapsed: 0.0008411407470703125
ell 57, elapsed: 0.0007541179656982422
ell 56, elapsed: 0.000576019287109375
ell 55, elapsed: 0.0006291866302490234
ell 54, elapsed: 0.0007278919219970703
ell 53, elapsed: 0.0006279945373535156
ell 52, elapsed: 0.0006508827209472656
ell 51, elapsed: 0.000637054443359375
ell 50, elapsed: 0.0005879402160644531
ell 49, elapsed: 0.0006198883056640625
ell 48, elapsed: 0.0005669593811035156
ell 47, elapsed: 0.0007328987121582031
ell 46, elapsed: 0.0006330013275146484
ell 45, elapsed: 0.0005729198455810547
ell 44, elapsed: 0.0006730556488037109
ell 43, elapsed: 0.0006320476531982422
ell 42, elapsed: 0.0006668567657470703
ell 41, elapsed: 0.0006070137023925781
ell 40, elapsed: 0.0006070137023925781
ell 39, elapsed: 0.0006070137023925781
ell 38, elapsed: 0.0006051063537597656
ell 37, elapsed: 0.0006060600280761719
ell 36, elapsed: 0.0006339550018310547
ell 35, elapsed: 0.0006208419799804688
ell 34, elapsed: 0.0006079673767089844
ell 33, elapsed: 0.0006120204925537109
ell 32, elapsed: 0.0006041526794433594
ell 31, elapsed: 0.0008499622344970703
ell 30, elapsed: 0.0006661415100097656
ell 29, elapsed: 0.0007648468017578125
ell 28, elapsed: 0.0007758140563964844
ell 27, elapsed: 0.0007638931274414062
ell 26, elapsed: 0.0007658004760742188
ell 25, elapsed: 0.0007779598236083984
ell 24, elapsed: 0.0007870197296142578
ell 23, elapsed: 0.0007660388946533203
ell 22, elapsed: 0.0006930828094482422
ell 21, elapsed: 0.0006029605865478516
ell 20, elapsed: 0.0006129741668701172
ell 19, elapsed: 0.0007410049438476562
ell 18, elapsed: 0.00086212158203125
ell 17, elapsed: 0.0007369518280029297
ell 16, elapsed: 0.000614166259765625
ell 15, elapsed: 0.0006067752838134766
ell 14, elapsed: 0.0007030963897705078
ell 13, elapsed: 0.0006241798400878906
ell 12, elapsed: 0.0006070137023925781
ell 11, elapsed: 0.0006020069122314453
ell 10, elapsed: 0.0006129741668701172
ell 9, elapsed: 0.0006020069122314453
ell 8, elapsed: 0.000743865966796875
ell 7, elapsed: 0.0007548332214355469
ell 6, elapsed: 0.0007519721984863281
ell 5, elapsed: 0.0007560253143310547
ell 4, elapsed: 0.0008368492126464844
ell 3, elapsed: 0.0008440017700195312
ell 2, elapsed: 0.0007529258728027344
ell 1, elapsed: 0.0007221698760986328
ell 0, elapsed: 0.0006117820739746094
  2.026815 seconds (1.38 M allocations: 74.490 MiB, 1.22% gc time, 90.98% compilation time)
elapsed: 0.0007321834564208984
step:          0.42894 sec (311.138 k allocations: 16.962 MB, 0.0% gc time)
swapping:      0.000554 sec (0 allocations: 0 byte, 0.0% gc time)
calc_Mellell!: 0.147997 sec (135.74 k allocations: 7.433 MB, 0.0% gc time)
  t0 :  0.0 sec (0 allocations: 0 byte, 0.0% gc time)
  tm2 : 0.0 sec (0 allocations: 0 byte, 0.0% gc time)
  tm2s: 0.0 sec (0 allocations: 0 byte, 0.0% gc time)
  tm4 : 0.0 sec (0 allocations: 0 byte, 0.0% gc time)
  tp2 : 0.0 sec (0 allocations: 0 byte, 0.0% gc time)
  tp2s: 0.0 sec (0 allocations: 0 byte, 0.0% gc time)
  tp4 : 0.0 sec (0 allocations: 0 byte, 0.0% gc time)
calc_wtdll!:   0.996962 sec (509.626 k allocations: 28.202 MB, 2.47% gc time)
calc_wljj!:    0.003853 sec (6 allocations: 96 byte, 0.0% gc time)
mult_prefac!:  0.0 sec (0 allocations: 0 byte, 0.0% gc time)
convert:       0.0 sec (0 allocations: 0 byte, 0.0% gc time)
write:         0.004133 sec (0 allocations: 0 byte, 0.0% gc time)
test_rand_2f1: 0.0 sec (0 allocations: 0 byte, 0.0% gc time)
Closing outfile out/Ml21-cache.bin...   0.000007 seconds
  1.227886 seconds (246.49 k allocations: 14.233 MiB, 35.39% compilation time)
make_phi():   0.013998 seconds (8.18 k allocations: 237.844 KiB)
  0.260341 seconds (87.57 k allocations: 4.749 MiB, 92.64% compilation time)
tskip:       2.3e-5 sec (0 allocations: 0 byte, 0.0% gc time)
tread:       0.002609 sec (17 allocations: 2.125 KB, 0.0% gc time)
tmultphi:    0.046792 sec (21.425 k allocations: 1.287 MB, 0.0% gc time)
tbrfft:      0.004367 sec (0 allocations: 0 byte, 0.0% gc time)
tmultprefac: 0.003958 sec (0 allocations: 0 byte, 0.0% gc time)
toutfunc:    0.162346 sec (64.484 k allocations: 3.33 MB, 0.0% gc time)
Testing R=1.1 ... passed
Calculating fmax: 
  dlrec    = 4
  dlrecRg1 = -4
  q=1.1, R=1.0:	  0.001624 seconds (3.20 k allocations: 275.344 KiB)

  0.001782 seconds (3.25 k allocations: 309.984 KiB)
ℓ = 1202
Δℓ = 4
ΔℓRg1 = -4
N = 1600
q = 1.1
kmin = 1.0e-5
kmax = 100000.00000000004
χ0 = 0.023029999999999995
RR = RR.tsv
ℓmax = ℓmax.bin
f21 = f21.bin
kmin = 1.0e-5
kmax = 100000.0
dlrec    = 4
dlrecRg1 = -4
Output size: 61465536 bytes = 0.05724424123764038 GiB
Output size: 51264 bytes = 4.774332046508789e-5 GiB
Reading 'out/F21EllCache'...   0.001144 seconds (197 allocations: 84.203 KiB)
ellmax: 1202
lmaxcache: 1202
fell[:,1,1] = ComplexF64[809.6031528389767 - 1.9829558194077161e-13im, 0.0 + 0.0im]
ell 1202, elapsed: 2.9802322387695312e-5
ell 1201, elapsed: 0.01593184471130371
ell 1200, elapsed: 0.01618504524230957
ell 1199, elapsed: 0.00039196014404296875
ell 1198, elapsed: 0.00037097930908203125
ell 1197, elapsed: 0.0004611015319824219
ell 1196, elapsed: 0.0004620552062988281
ell 1195, elapsed: 0.0004470348358154297
ell 1194, elapsed: 0.0004730224609375
ell 1193, elapsed: 0.00045990943908691406
ell 1192, elapsed: 0.00045990943908691406
ell 1191, elapsed: 0.00044608116149902344
ell 1190, elapsed: 0.0004611015319824219
ell 1189, elapsed: 0.0004470348358154297
ell 1188, elapsed: 0.00045609474182128906
ell 1187, elapsed: 0.0004570484161376953
ell 1186, elapsed: 0.0004489421844482422
ell 1185, elapsed: 0.0004420280456542969
ell 1184, elapsed: 0.00045299530029296875
ell 1183, elapsed: 0.00045990943908691406
ell 1182, elapsed: 0.000453948974609375
ell 1181, elapsed: 0.00045490264892578125
ell 1180, elapsed: 0.0004458427429199219
ell 1179, elapsed: 0.0004420280456542969
ell 1178, elapsed: 0.0004601478576660156
ell 1177, elapsed: 0.0004730224609375
ell 1176, elapsed: 0.0004680156707763672
ell 1175, elapsed: 0.00043487548828125
ell 1174, elapsed: 0.0004601478576660156
ell 1173, elapsed: 0.0004069805145263672
ell 1172, elapsed: 0.0004451274871826172
ell 1171, elapsed: 0.00044989585876464844
ell 1170, elapsed: 0.00045299530029296875
ell 1169, elapsed: 0.0004730224609375
ell 1168, elapsed: 0.00045609474182128906
ell 1167, elapsed: 0.00044918060302734375
ell 1166, elapsed: 0.0004570484161376953
ell 1165, elapsed: 0.00042891502380371094
ell 1164, elapsed: 0.00045990943908691406
ell 1163, elapsed: 0.0004611015319824219
ell 1162, elapsed: 0.0004520416259765625
ell 1161, elapsed: 0.0004940032958984375
ell 1160, elapsed: 0.00038695335388183594
ell 1159, elapsed: 0.0004379749298095703
ell 1158, elapsed: 0.000453948974609375
ell 1157, elapsed: 0.000392913818359375
ell 1156, elapsed: 0.0003960132598876953
ell 1155, elapsed: 0.0003910064697265625
ell 1154, elapsed: 0.00039005279541015625
ell 1153, elapsed: 0.0003960132598876953
ell 1152, elapsed: 0.0004107952117919922
ell 1151, elapsed: 0.0003960132598876953
ell 1150, elapsed: 0.0004019737243652344
ell 1149, elapsed: 0.00039696693420410156
ell 1148, elapsed: 0.0003998279571533203
ell 1147, elapsed: 0.0003972053527832031
ell 1146, elapsed: 0.0004239082336425781
ell 1145, elapsed: 0.00044798851013183594
ell 1144, elapsed: 0.0004401206970214844
ell 1143, elapsed: 0.00046896934509277344
ell 1142, elapsed: 0.00045418739318847656
ell 1141, elapsed: 0.00045490264892578125
ell 1140, elapsed: 0.0004050731658935547
ell 1139, elapsed: 0.00039696693420410156
ell 1138, elapsed: 0.0003910064697265625
ell 1137, elapsed: 0.0004208087921142578
ell 1136, elapsed: 0.0004467964172363281
ell 1135, elapsed: 0.0004379749298095703
ell 1134, elapsed: 0.0004940032958984375
ell 1133, elapsed: 0.00039887428283691406
ell 1132, elapsed: 0.0004448890686035156
ell 1131, elapsed: 0.0004570484161376953
ell 1130, elapsed: 0.0004551410675048828
ell 1129, elapsed: 0.000453948974609375
ell 1128, elapsed: 0.00041604042053222656
ell 1127, elapsed: 0.00039505958557128906
ell 1126, elapsed: 0.0004138946533203125
ell 1125, elapsed: 0.0004620552062988281
ell 1124, elapsed: 0.00046181678771972656
ell 1123, elapsed: 0.0004608631134033203
ell 1122, elapsed: 0.0004451274871826172
ell 1121, elapsed: 0.0004558563232421875
ell 1120, elapsed: 0.00040602684020996094
ell 1119, elapsed: 0.00039196014404296875
ell 1118, elapsed: 0.0004220008850097656
ell 1117, elapsed: 0.0004968643188476562
ell 1116, elapsed: 0.0005497932434082031
ell 1115, elapsed: 0.0005428791046142578
ell 1114, elapsed: 0.0004889965057373047
ell 1113, elapsed: 0.0004699230194091797
ell 1112, elapsed: 0.00039505958557128906
ell 1111, elapsed: 0.00044608116149902344
ell 1110, elapsed: 0.0014729499816894531
ell 1109, elapsed: 0.00041413307189941406
ell 1108, elapsed: 0.0004401206970214844
ell 1107, elapsed: 0.00045108795166015625
ell 1106, elapsed: 0.0004489421844482422
ell 1105, elapsed: 0.0004100799560546875
ell 1104, elapsed: 0.0003979206085205078
ell 1103, elapsed: 0.0010170936584472656
ell 1102, elapsed: 0.0004601478576660156
ell 1101, elapsed: 0.00046706199645996094
ell 1100, elapsed: 0.00045299530029296875
ell 1099, elapsed: 0.00043892860412597656
ell 1098, elapsed: 0.00045490264892578125
ell 1097, elapsed: 0.00045800209045410156
ell 1096, elapsed: 0.0006070137023925781
ell 1095, elapsed: 0.0004558563232421875
ell 1094, elapsed: 0.0004000663757324219
ell 1093, elapsed: 0.0004410743713378906
ell 1092, elapsed: 0.0004570484161376953
ell 1091, elapsed: 0.00045990943908691406
ell 1090, elapsed: 0.00045990943908691406
ell 1089, elapsed: 0.0004398822784423828
ell 1088, elapsed: 0.0004680156707763672
ell 1087, elapsed: 0.00045299530029296875
ell 1086, elapsed: 0.0004019737243652344
ell 1085, elapsed: 0.00043702125549316406
ell 1084, elapsed: 0.000453948974609375
ell 1083, elapsed: 0.000453948974609375
ell 1082, elapsed: 0.00045299530029296875
ell 1081, elapsed: 0.0004551410675048828
ell 1080, elapsed: 0.0011639595031738281
ell 1079, elapsed: 0.00044608116149902344
ell 1078, elapsed: 0.0004470348358154297
ell 1077, elapsed: 0.000453948974609375
ell 1076, elapsed: 0.0004711151123046875
ell 1075, elapsed: 0.00046896934509277344
ell 1074, elapsed: 0.0003879070281982422
ell 1073, elapsed: 0.0004029273986816406
ell 1072, elapsed: 0.00041103363037109375
ell 1071, elapsed: 0.00043201446533203125
ell 1070, elapsed: 0.00044417381286621094
ell 1069, elapsed: 0.0004360675811767578
ell 1068, elapsed: 0.0004451274871826172
ell 1067, elapsed: 0.0004410743713378906
ell 1066, elapsed: 0.0004620552062988281
ell 1065, elapsed: 0.00045299530029296875
ell 1064, elapsed: 0.00045609474182128906
ell 1063, elapsed: 0.00045013427734375
ell 1062, elapsed: 0.0004489421844482422
ell 1061, elapsed: 0.00042819976806640625
ell 1060, elapsed: 0.00045680999755859375
ell 1059, elapsed: 0.0004439353942871094
ell 1058, elapsed: 0.0004589557647705078
ell 1057, elapsed: 0.0003979206085205078
ell 1056, elapsed: 0.0004570484161376953
ell 1055, elapsed: 0.0004639625549316406
ell 1054, elapsed: 0.00043487548828125
ell 1053, elapsed: 0.0004608631134033203
ell 1052, elapsed: 0.0003979206085205078
ell 1051, elapsed: 0.0004248619079589844
ell 1050, elapsed: 0.0004520416259765625
ell 1049, elapsed: 0.0004570484161376953
ell 1048, elapsed: 0.0004591941833496094
ell 1047, elapsed: 0.0006129741668701172
ell 1046, elapsed: 0.00043392181396484375
ell 1045, elapsed: 0.00042319297790527344
ell 1044, elapsed: 0.0004558563232421875
ell 1043, elapsed: 0.0004508495330810547
ell 1042, elapsed: 0.0004448890686035156
ell 1041, elapsed: 0.000453948974609375
ell 1040, elapsed: 0.00045609474182128906
ell 1039, elapsed: 0.0004749298095703125
ell 1038, elapsed: 0.0004589557647705078
ell 1037, elapsed: 0.00044918060302734375
ell 1036, elapsed: 0.00045180320739746094
ell 1035, elapsed: 0.00047087669372558594
ell 1034, elapsed: 0.0004048347473144531
ell 1033, elapsed: 0.0004341602325439453
ell 1032, elapsed: 0.00045609474182128906
ell 1031, elapsed: 0.0004761219024658203
ell 1030, elapsed: 0.00047588348388671875
ell 1029, elapsed: 0.0004410743713378906
ell 1028, elapsed: 0.0004558563232421875
ell 1027, elapsed: 0.00045680999755859375
ell 1026, elapsed: 0.0004451274871826172
ell 1025, elapsed: 0.0004329681396484375
ell 1024, elapsed: 0.00045990943908691406
ell 1023, elapsed: 0.0004680156707763672
ell 1022, elapsed: 0.0004668235778808594
ell 1021, elapsed: 0.00039696693420410156
ell 1020, elapsed: 0.000392913818359375
ell 1019, elapsed: 0.00043892860412597656
ell 1018, elapsed: 0.00045299530029296875
ell 1017, elapsed: 0.00039005279541015625
ell 1016, elapsed: 0.0004260540008544922
ell 1015, elapsed: 0.000453948974609375
ell 1014, elapsed: 0.00047206878662109375
ell 1013, elapsed: 0.0004088878631591797
ell 1012, elapsed: 0.0004100799560546875
ell 1011, elapsed: 0.0004000663757324219
ell 1010, elapsed: 0.0004019737243652344
ell 1009, elapsed: 0.00039696693420410156
ell 1008, elapsed: 0.000408172607421875
ell 1007, elapsed: 0.00039196014404296875
ell 1006, elapsed: 0.0003998279571533203
ell 1005, elapsed: 0.00040793418884277344
ell 1004, elapsed: 0.0003941059112548828
ell 1003, elapsed: 0.0004439353942871094
ell 1002, elapsed: 0.0004489421844482422
ell 1001, elapsed: 0.0004379749298095703
ell 1000, elapsed: 0.00045299530029296875
ell 999, elapsed: 0.0004489421844482422
ell 998, elapsed: 0.0004591941833496094
ell 997, elapsed: 0.0004398822784423828
ell 996, elapsed: 0.00047397613525390625
ell 995, elapsed: 0.0004048347473144531
ell 994, elapsed: 0.0004279613494873047
ell 993, elapsed: 0.0004649162292480469
ell 992, elapsed: 0.0004520416259765625
ell 991, elapsed: 0.0004391670227050781
ell 990, elapsed: 0.000453948974609375
ell 989, elapsed: 0.0004570484161376953
ell 988, elapsed: 0.00051116943359375
ell 987, elapsed: 0.0004050731658935547
ell 986, elapsed: 0.00040793418884277344
ell 985, elapsed: 0.0004019737243652344
ell 984, elapsed: 0.00043201446533203125
ell 983, elapsed: 0.000453948974609375
ell 982, elapsed: 0.0003769397735595703
ell 981, elapsed: 0.000392913818359375
ell 980, elapsed: 0.00038695335388183594
ell 979, elapsed: 0.0004150867462158203
ell 978, elapsed: 0.00039196014404296875
ell 977, elapsed: 0.0003879070281982422
ell 976, elapsed: 0.00038886070251464844
ell 975, elapsed: 0.00039196014404296875
ell 974, elapsed: 0.0003979206085205078
ell 973, elapsed: 0.00043010711669921875
ell 972, elapsed: 0.0004649162292480469
ell 971, elapsed: 0.00043201446533203125
ell 970, elapsed: 0.0004639625549316406
ell 969, elapsed: 0.0004611015319824219
ell 968, elapsed: 0.0004210472106933594
ell 967, elapsed: 0.00044798851013183594
ell 966, elapsed: 0.0003948211669921875
ell 965, elapsed: 0.0003800392150878906
ell 964, elapsed: 0.00039887428283691406
ell 963, elapsed: 0.00038695335388183594
ell 962, elapsed: 0.0004038810729980469
ell 961, elapsed: 0.00045680999755859375
ell 960, elapsed: 0.0004000663757324219
ell 959, elapsed: 0.0003941059112548828
ell 958, elapsed: 0.0004200935363769531
ell 957, elapsed: 0.0004398822784423828
ell 956, elapsed: 0.0004050731658935547
ell 955, elapsed: 0.00038695335388183594
ell 954, elapsed: 0.0004258155822753906
ell 953, elapsed: 0.0004401206970214844
ell 952, elapsed: 0.0004010200500488281
ell 951, elapsed: 0.0003910064697265625
ell 950, elapsed: 0.0003871917724609375
ell 949, elapsed: 0.0003910064697265625
ell 948, elapsed: 0.0003879070281982422
ell 947, elapsed: 0.0003800392150878906
ell 946, elapsed: 0.00039505958557128906
ell 945, elapsed: 0.00038886070251464844
ell 944, elapsed: 0.0004000663757324219
ell 943, elapsed: 0.0004229545593261719
ell 942, elapsed: 0.0004639625549316406
ell 941, elapsed: 0.00039505958557128906
ell 940, elapsed: 0.000392913818359375
ell 939, elapsed: 0.0003960132598876953
ell 938, elapsed: 0.00038695335388183594
ell 937, elapsed: 0.0003788471221923828
ell 936, elapsed: 0.0003948211669921875
ell 935, elapsed: 0.00038504600524902344
ell 934, elapsed: 0.0003910064697265625
ell 933, elapsed: 0.0003998279571533203
ell 932, elapsed: 0.00038504600524902344
ell 931, elapsed: 0.0004291534423828125
ell 930, elapsed: 0.0004410743713378906
ell 929, elapsed: 0.0003960132598876953
ell 928, elapsed: 0.0003910064697265625
ell 927, elapsed: 0.0004088878631591797
ell 926, elapsed: 0.00038909912109375
ell 925, elapsed: 0.00038814544677734375
ell 924, elapsed: 0.0003921985626220703
ell 923, elapsed: 0.00041103363037109375
ell 922, elapsed: 0.000392913818359375
ell 921, elapsed: 0.00039386749267578125
ell 920, elapsed: 0.00039315223693847656
ell 919, elapsed: 0.0003979206085205078
ell 918, elapsed: 0.00042510032653808594
ell 917, elapsed: 0.00045108795166015625
ell 916, elapsed: 0.00039005279541015625
ell 915, elapsed: 0.00039005279541015625
ell 914, elapsed: 0.00040984153747558594
ell 913, elapsed: 0.0003859996795654297
ell 912, elapsed: 0.00039005279541015625
ell 911, elapsed: 0.0003879070281982422
ell 910, elapsed: 0.0003859996795654297
ell 909, elapsed: 0.0004000663757324219
ell 908, elapsed: 0.0003848075866699219
ell 907, elapsed: 0.0003859996795654297
ell 906, elapsed: 0.0003910064697265625
ell 905, elapsed: 0.0003859996795654297
ell 904, elapsed: 0.00041413307189941406
ell 903, elapsed: 0.0003879070281982422
ell 902, elapsed: 0.0004000663757324219
ell 901, elapsed: 0.0003898143768310547
ell 900, elapsed: 0.00039196014404296875
ell 899, elapsed: 0.0003910064697265625
ell 898, elapsed: 0.00038814544677734375
ell 897, elapsed: 0.0003941059112548828
ell 896, elapsed: 0.0003941059112548828
ell 895, elapsed: 0.0004849433898925781
ell 894, elapsed: 0.00047397613525390625
ell 893, elapsed: 0.0004451274871826172
ell 892, elapsed: 0.00045609474182128906
ell 891, elapsed: 0.00038909912109375
ell 890, elapsed: 0.000392913818359375
ell 889, elapsed: 0.0004010200500488281
ell 888, elapsed: 0.00039196014404296875
ell 887, elapsed: 0.000392913818359375
ell 886, elapsed: 0.0004248619079589844
ell 885, elapsed: 0.00039696693420410156
ell 884, elapsed: 0.000392913818359375
ell 883, elapsed: 0.0003821849822998047
ell 882, elapsed: 0.0003859996795654297
ell 881, elapsed: 0.0003819465637207031
ell 880, elapsed: 0.0004239082336425781
ell 879, elapsed: 0.00044989585876464844
ell 878, elapsed: 0.0004448890686035156
ell 877, elapsed: 0.0004489421844482422
ell 876, elapsed: 0.00039696693420410156
ell 875, elapsed: 0.0003910064697265625
ell 874, elapsed: 0.00043201446533203125
ell 873, elapsed: 0.0004398822784423828
ell 872, elapsed: 0.00038695335388183594
ell 871, elapsed: 0.0004191398620605469
ell 870, elapsed: 0.0004451274871826172
ell 869, elapsed: 0.00044798851013183594
ell 868, elapsed: 0.0004799365997314453
ell 867, elapsed: 0.00042700767517089844
ell 866, elapsed: 0.000453948974609375
ell 865, elapsed: 0.00044608116149902344
ell 864, elapsed: 0.0004391670227050781
ell 863, elapsed: 0.00039696693420410156
ell 862, elapsed: 0.00039887428283691406
ell 861, elapsed: 0.00039315223693847656
ell 860, elapsed: 0.0003979206085205078
ell 859, elapsed: 0.0004420280456542969
ell 858, elapsed: 0.0004470348358154297
ell 857, elapsed: 0.00045013427734375
ell 856, elapsed: 0.00039315223693847656
ell 855, elapsed: 0.00039696693420410156
ell 854, elapsed: 0.0004200935363769531
ell 853, elapsed: 0.0004458427429199219
ell 852, elapsed: 0.00039696693420410156
ell 851, elapsed: 0.00042891502380371094
ell 850, elapsed: 0.00042891502380371094
ell 849, elapsed: 0.0004420280456542969
ell 848, elapsed: 0.0004470348358154297
ell 847, elapsed: 0.00042891502380371094
ell 846, elapsed: 0.0004420280456542969
ell 845, elapsed: 0.00043392181396484375
ell 844, elapsed: 0.00044798851013183594
ell 843, elapsed: 0.0003941059112548828
ell 842, elapsed: 0.0004940032958984375
ell 841, elapsed: 0.0004010200500488281
ell 840, elapsed: 0.0004169940948486328
ell 839, elapsed: 0.0004458427429199219
ell 838, elapsed: 0.00043201446533203125
ell 837, elapsed: 0.00044798851013183594
ell 836, elapsed: 0.00044608116149902344
ell 835, elapsed: 0.0003991127014160156
ell 834, elapsed: 0.00039386749267578125
ell 833, elapsed: 0.0004730224609375
ell 832, elapsed: 0.0004019737243652344
ell 831, elapsed: 0.00039386749267578125
ell 830, elapsed: 0.0004220008850097656
ell 829, elapsed: 0.0004458427429199219
ell 828, elapsed: 0.00040602684020996094
ell 827, elapsed: 0.00039887428283691406
ell 826, elapsed: 0.00042510032653808594
ell 825, elapsed: 0.00044417381286621094
ell 824, elapsed: 0.0004029273986816406
ell 823, elapsed: 0.00039005279541015625
ell 822, elapsed: 0.0004010200500488281
ell 821, elapsed: 0.00039196014404296875
ell 820, elapsed: 0.00039696693420410156
ell 819, elapsed: 0.0003948211669921875
ell 818, elapsed: 0.0003981590270996094
ell 817, elapsed: 0.000392913818359375
ell 816, elapsed: 0.0003941059112548828
ell 815, elapsed: 0.0004730224609375
ell 814, elapsed: 0.0003991127014160156
ell 813, elapsed: 0.00039696693420410156
ell 812, elapsed: 0.000392913818359375
ell 811, elapsed: 0.0003840923309326172
ell 810, elapsed: 0.0003948211669921875
ell 809, elapsed: 0.00039315223693847656
ell 808, elapsed: 0.0003972053527832031
ell 807, elapsed: 0.00039196014404296875
ell 806, elapsed: 0.0004718303680419922
ell 805, elapsed: 0.0003981590270996094
ell 804, elapsed: 0.0004439353942871094
ell 803, elapsed: 0.0004520416259765625
ell 802, elapsed: 0.00040411949157714844
ell 801, elapsed: 0.0004248619079589844
ell 800, elapsed: 0.00044608116149902344
ell 799, elapsed: 0.0004439353942871094
ell 798, elapsed: 0.0004458427429199219
ell 797, elapsed: 0.0004868507385253906
ell 796, elapsed: 0.00039505958557128906
ell 795, elapsed: 0.00039696693420410156
ell 794, elapsed: 0.0004420280456542969
ell 793, elapsed: 0.0004439353942871094
ell 792, elapsed: 0.00038695335388183594
ell 791, elapsed: 0.0003948211669921875
ell 790, elapsed: 0.0004360675811767578
ell 789, elapsed: 0.0004429817199707031
ell 788, elapsed: 0.0004761219024658203
ell 787, elapsed: 0.00038814544677734375
ell 786, elapsed: 0.00038886070251464844
ell 785, elapsed: 0.000392913818359375
ell 784, elapsed: 0.0003910064697265625
ell 783, elapsed: 0.00039005279541015625
ell 782, elapsed: 0.00038504600524902344
ell 781, elapsed: 0.0003879070281982422
ell 780, elapsed: 0.00042700767517089844
ell 779, elapsed: 0.000514984130859375
ell 778, elapsed: 0.00039005279541015625
ell 777, elapsed: 0.00043201446533203125
ell 776, elapsed: 0.0004410743713378906
ell 775, elapsed: 0.0003960132598876953
ell 774, elapsed: 0.0003910064697265625
ell 773, elapsed: 0.0004138946533203125
ell 772, elapsed: 0.0004401206970214844
ell 771, elapsed: 0.0004088878631591797
ell 770, elapsed: 0.0004849433898925781
ell 769, elapsed: 0.0004379749298095703
ell 768, elapsed: 0.000453948974609375
ell 767, elapsed: 0.0003840923309326172
ell 766, elapsed: 0.00039196014404296875
ell 765, elapsed: 0.0003838539123535156
ell 764, elapsed: 0.00039196014404296875
ell 763, elapsed: 0.0004329681396484375
ell 762, elapsed: 0.0004410743713378906
ell 761, elapsed: 0.0004668235778808594
ell 760, elapsed: 0.000392913818359375
ell 759, elapsed: 0.0003859996795654297
ell 758, elapsed: 0.000392913818359375
ell 757, elapsed: 0.00039005279541015625
ell 756, elapsed: 0.00039386749267578125
ell 755, elapsed: 0.000392913818359375
ell 754, elapsed: 0.0003879070281982422
ell 753, elapsed: 0.0003979206085205078
ell 752, elapsed: 0.0005180835723876953
ell 751, elapsed: 0.0004401206970214844
ell 750, elapsed: 0.0003998279571533203
ell 749, elapsed: 0.00038814544677734375
ell 748, elapsed: 0.00040793418884277344
ell 747, elapsed: 0.000392913818359375
ell 746, elapsed: 0.0003960132598876953
ell 745, elapsed: 0.00038695335388183594
ell 744, elapsed: 0.0004019737243652344
ell 743, elapsed: 0.0004792213439941406
ell 742, elapsed: 0.0005390644073486328
ell 741, elapsed: 0.00044798851013183594
ell 740, elapsed: 0.0005090236663818359
ell 739, elapsed: 0.0004420280456542969
ell 738, elapsed: 0.00045299530029296875
ell 737, elapsed: 0.0004429817199707031
ell 736, elapsed: 0.000453948974609375
ell 735, elapsed: 0.0004680156707763672
ell 734, elapsed: 0.00045108795166015625
ell 733, elapsed: 0.00039696693420410156
ell 732, elapsed: 0.0003898143768310547
ell 731, elapsed: 0.00039505958557128906
ell 730, elapsed: 0.0003871917724609375
ell 729, elapsed: 0.0003910064697265625
ell 728, elapsed: 0.00039505958557128906
ell 727, elapsed: 0.00039196014404296875
ell 726, elapsed: 0.0004680156707763672
ell 725, elapsed: 0.0004010200500488281
ell 724, elapsed: 0.00046515464782714844
ell 723, elapsed: 0.0004858970642089844
ell 722, elapsed: 0.0004620552062988281
ell 721, elapsed: 0.00039887428283691406
ell 720, elapsed: 0.00038909912109375
ell 719, elapsed: 0.00039005279541015625
ell 718, elapsed: 0.00039196014404296875
ell 717, elapsed: 0.0005259513854980469
ell 716, elapsed: 0.0004489421844482422
ell 715, elapsed: 0.0003910064697265625
ell 714, elapsed: 0.00039315223693847656
ell 713, elapsed: 0.00043892860412597656
ell 712, elapsed: 0.0004398822784423828
ell 711, elapsed: 0.00044608116149902344
ell 710, elapsed: 0.00038886070251464844
ell 709, elapsed: 0.00039505958557128906
ell 708, elapsed: 0.0004940032958984375
ell 707, elapsed: 0.00044608116149902344
ell 706, elapsed: 0.00044798851013183594
ell 705, elapsed: 0.0004410743713378906
ell 704, elapsed: 0.0004329681396484375
ell 703, elapsed: 0.0004451274871826172
ell 702, elapsed: 0.0004279613494873047
ell 701, elapsed: 0.0004489421844482422
ell 700, elapsed: 0.0004839897155761719
ell 699, elapsed: 0.0003998279571533203
ell 698, elapsed: 0.00039696693420410156
ell 697, elapsed: 0.000392913818359375
ell 696, elapsed: 0.00039505958557128906
ell 695, elapsed: 0.0003910064697265625
ell 694, elapsed: 0.00045418739318847656
ell 693, elapsed: 0.00045800209045410156
ell 692, elapsed: 0.0003960132598876953
ell 691, elapsed: 0.00047397613525390625
ell 690, elapsed: 0.00039696693420410156
ell 689, elapsed: 0.00039505958557128906
ell 688, elapsed: 0.00041794776916503906
ell 687, elapsed: 0.0004401206970214844
ell 686, elapsed: 0.00045800209045410156
ell 685, elapsed: 0.0004119873046875
ell 684, elapsed: 0.00039696693420410156
ell 683, elapsed: 0.00039505958557128906
ell 682, elapsed: 0.0005660057067871094
ell 681, elapsed: 0.0004401206970214844
ell 680, elapsed: 0.0003960132598876953
ell 679, elapsed: 0.000431060791015625
ell 678, elapsed: 0.0004379749298095703
ell 677, elapsed: 0.0004382133483886719
ell 676, elapsed: 0.0004868507385253906
ell 675, elapsed: 0.0004410743713378906
ell 674, elapsed: 0.0004520416259765625
ell 673, elapsed: 0.0006899833679199219
ell 672, elapsed: 0.0005359649658203125
ell 671, elapsed: 0.00045180320739746094
ell 670, elapsed: 0.00045490264892578125
ell 669, elapsed: 0.00038909912109375
ell 668, elapsed: 0.000431060791015625
ell 667, elapsed: 0.0004401206970214844
ell 666, elapsed: 0.00045609474182128906
ell 665, elapsed: 0.00045490264892578125
ell 664, elapsed: 0.00043892860412597656
ell 663, elapsed: 0.0004520416259765625
ell 662, elapsed: 0.00044608116149902344
ell 661, elapsed: 0.00044798851013183594
ell 660, elapsed: 0.0004429817199707031
ell 659, elapsed: 0.0004508495330810547
ell 658, elapsed: 0.0003948211669921875
ell 657, elapsed: 0.00044083595275878906
ell 656, elapsed: 0.00044608116149902344
ell 655, elapsed: 0.00044918060302734375
ell 654, elapsed: 0.00039315223693847656
ell 653, elapsed: 0.00043702125549316406
ell 652, elapsed: 0.00044798851013183594
ell 651, elapsed: 0.00044989585876464844
ell 650, elapsed: 0.0004448890686035156
ell 649, elapsed: 0.0004730224609375
ell 648, elapsed: 0.00040793418884277344
ell 647, elapsed: 0.000392913818359375
ell 646, elapsed: 0.0004010200500488281
ell 645, elapsed: 0.00039196014404296875
ell 644, elapsed: 0.0004189014434814453
ell 643, elapsed: 0.0004429817199707031
ell 642, elapsed: 0.00045108795166015625
ell 641, elapsed: 0.0004649162292480469
ell 640, elapsed: 0.00043010711669921875
ell 639, elapsed: 0.00039696693420410156
ell 638, elapsed: 0.0004401206970214844
ell 637, elapsed: 0.00045013427734375
ell 636, elapsed: 0.00044608116149902344
ell 635, elapsed: 0.00044417381286621094
ell 634, elapsed: 0.0006701946258544922
ell 633, elapsed: 0.0007281303405761719
ell 632, elapsed: 0.0004909038543701172
ell 631, elapsed: 0.00044798851013183594
ell 630, elapsed: 0.0004458427429199219
ell 629, elapsed: 0.00045418739318847656
ell 628, elapsed: 0.0004520416259765625
ell 627, elapsed: 0.00044798851013183594
ell 626, elapsed: 0.0004677772521972656
ell 625, elapsed: 0.0005109310150146484
ell 624, elapsed: 0.00044798851013183594
ell 623, elapsed: 0.00043010711669921875
ell 622, elapsed: 0.00047707557678222656
ell 621, elapsed: 0.0004470348358154297
ell 620, elapsed: 0.00044798851013183594
ell 619, elapsed: 0.0005598068237304688
ell 618, elapsed: 0.0004520416259765625
ell 617, elapsed: 0.00045299530029296875
ell 616, elapsed: 0.0004799365997314453
ell 615, elapsed: 0.00044608116149902344
ell 614, elapsed: 0.00044798851013183594
ell 613, elapsed: 0.0004520416259765625
ell 612, elapsed: 0.0004489421844482422
ell 611, elapsed: 0.00045299530029296875
ell 610, elapsed: 0.0004570484161376953
ell 609, elapsed: 0.00044798851013183594
ell 608, elapsed: 0.0005648136138916016
ell 607, elapsed: 0.00044798851013183594
ell 606, elapsed: 0.000453948974609375
ell 605, elapsed: 0.00045108795166015625
ell 604, elapsed: 0.000453948974609375
ell 603, elapsed: 0.0004570484161376953
ell 602, elapsed: 0.0004470348358154297
ell 601, elapsed: 0.0004639625549316406
ell 600, elapsed: 0.0005779266357421875
ell 599, elapsed: 0.00045990943908691406
ell 598, elapsed: 0.00044798851013183594
ell 597, elapsed: 0.00045108795166015625
ell 596, elapsed: 0.0004448890686035156
ell 595, elapsed: 0.0004489421844482422
ell 594, elapsed: 0.00045108795166015625
ell 593, elapsed: 0.0004508495330810547
ell 592, elapsed: 0.0005769729614257812
ell 591, elapsed: 0.00045299530029296875
ell 590, elapsed: 0.0004551410675048828
ell 589, elapsed: 0.0004601478576660156
ell 588, elapsed: 0.00045490264892578125
ell 587, elapsed: 0.00046896934509277344
ell 586, elapsed: 0.0004630088806152344
ell 585, elapsed: 0.0004630088806152344
ell 584, elapsed: 0.0004680156707763672
ell 583, elapsed: 0.0004608631134033203
ell 582, elapsed: 0.00045609474182128906
ell 581, elapsed: 0.0004611015319824219
ell 580, elapsed: 0.0004470348358154297
ell 579, elapsed: 0.0004451274871826172
ell 578, elapsed: 0.0004429817199707031
ell 577, elapsed: 0.0004458427429199219
ell 576, elapsed: 0.0005679130554199219
ell 575, elapsed: 0.00044417381286621094
ell 574, elapsed: 0.00045990943908691406
ell 573, elapsed: 0.0004279613494873047
ell 572, elapsed: 0.0004401206970214844
ell 571, elapsed: 0.0004470348358154297
ell 570, elapsed: 0.00044989585876464844
ell 569, elapsed: 0.00045013427734375
ell 568, elapsed: 0.0005509853363037109
ell 567, elapsed: 0.0004551410675048828
ell 566, elapsed: 0.00045800209045410156
ell 565, elapsed: 0.0004520416259765625
ell 564, elapsed: 0.00044608116149902344
ell 563, elapsed: 0.00037097930908203125
ell 562, elapsed: 0.0003750324249267578
ell 561, elapsed: 0.0003859996795654297
ell 560, elapsed: 0.0005199909210205078
ell 559, elapsed: 0.0004489421844482422
ell 558, elapsed: 0.0004451274871826172
ell 557, elapsed: 0.00043201446533203125
ell 556, elapsed: 0.00043511390686035156
ell 555, elapsed: 0.0004279613494873047
ell 554, elapsed: 0.0004329681396484375
ell 553, elapsed: 0.00039505958557128906
ell 552, elapsed: 0.00038504600524902344
ell 551, elapsed: 0.0005068778991699219
ell 550, elapsed: 0.0004558563232421875
ell 549, elapsed: 0.00042510032653808594
ell 548, elapsed: 0.00043892860412597656
ell 547, elapsed: 0.00043392181396484375
ell 546, elapsed: 0.0004367828369140625
ell 545, elapsed: 0.0004341602325439453
ell 544, elapsed: 0.000469207763671875
ell 543, elapsed: 0.0005059242248535156
ell 542, elapsed: 0.0004200935363769531
ell 541, elapsed: 0.0004239082336425781
ell 540, elapsed: 0.00043487548828125
ell 539, elapsed: 0.0004279613494873047
ell 538, elapsed: 0.00042700767517089844
ell 537, elapsed: 0.00043010711669921875
ell 536, elapsed: 0.0004169940948486328
ell 535, elapsed: 0.00043201446533203125
ell 534, elapsed: 0.0004999637603759766
ell 533, elapsed: 0.0004229545593261719
ell 532, elapsed: 0.0004429817199707031
ell 531, elapsed: 0.00037980079650878906
ell 530, elapsed: 0.00041604042053222656
ell 529, elapsed: 0.00043511390686035156
ell 528, elapsed: 0.0003979206085205078
ell 527, elapsed: 0.0003910064697265625
ell 526, elapsed: 0.0003800392150878906
ell 525, elapsed: 0.00047588348388671875
ell 524, elapsed: 0.0004467964172363281
ell 523, elapsed: 0.0004391670227050781
ell 522, elapsed: 0.00042510032653808594
ell 521, elapsed: 0.00043201446533203125
ell 520, elapsed: 0.0003838539123535156
ell 519, elapsed: 0.00037789344787597656
ell 518, elapsed: 0.0004119873046875
ell 517, elapsed: 0.0004379749298095703
ell 516, elapsed: 0.0004818439483642578
ell 515, elapsed: 0.0004291534423828125
ell 514, elapsed: 0.0004668235778808594
ell 513, elapsed: 0.00047087669372558594
ell 512, elapsed: 0.000453948974609375
ell 511, elapsed: 0.00040793418884277344
ell 510, elapsed: 0.0004138946533203125
ell 509, elapsed: 0.00042700767517089844
ell 508, elapsed: 0.0005190372467041016
ell 507, elapsed: 0.000453948974609375
ell 506, elapsed: 0.00043702125549316406
ell 505, elapsed: 0.00043892860412597656
ell 504, elapsed: 0.00037789344787597656
ell 503, elapsed: 0.0003829002380371094
ell 502, elapsed: 0.00037598609924316406
ell 501, elapsed: 0.0003800392150878906
ell 500, elapsed: 0.00037980079650878906
ell 499, elapsed: 0.0004980564117431641
ell 498, elapsed: 0.0004429817199707031
ell 497, elapsed: 0.00043702125549316406
ell 496, elapsed: 0.00038313865661621094
ell 495, elapsed: 0.0003809928894042969
ell 494, elapsed: 0.0003829002380371094
ell 493, elapsed: 0.00038504600524902344
ell 492, elapsed: 0.0003819465637207031
ell 491, elapsed: 0.00043702125549316406
ell 490, elapsed: 0.0005140304565429688
ell 489, elapsed: 0.00044798851013183594
ell 488, elapsed: 0.0004329681396484375
ell 487, elapsed: 0.0004329681396484375
ell 486, elapsed: 0.0004429817199707031
ell 485, elapsed: 0.00043082237243652344
ell 484, elapsed: 0.00039696693420410156
ell 483, elapsed: 0.0004088878631591797
ell 482, elapsed: 0.0004258155822753906
ell 481, elapsed: 0.0005548000335693359
ell 480, elapsed: 0.00043320655822753906
ell 479, elapsed: 0.00042891502380371094
ell 478, elapsed: 0.00045299530029296875
ell 477, elapsed: 0.0005040168762207031
ell 476, elapsed: 0.00043082237243652344
ell 475, elapsed: 0.0004329681396484375
ell 474, elapsed: 0.0003790855407714844
ell 473, elapsed: 0.0004291534423828125
ell 472, elapsed: 0.0004558563232421875
ell 471, elapsed: 0.0004439353942871094
ell 470, elapsed: 0.0004420280456542969
ell 469, elapsed: 0.0004429817199707031
ell 468, elapsed: 0.0004329681396484375
ell 467, elapsed: 0.00044798851013183594
ell 466, elapsed: 0.00045800209045410156
ell 465, elapsed: 0.0004429817199707031
ell 464, elapsed: 0.00047588348388671875
ell 463, elapsed: 0.0004420280456542969
ell 462, elapsed: 0.0003941059112548828
ell 461, elapsed: 0.0004417896270751953
ell 460, elapsed: 0.0004429817199707031
ell 459, elapsed: 0.00039005279541015625
ell 458, elapsed: 0.0004169940948486328
ell 457, elapsed: 0.0004398822784423828
ell 456, elapsed: 0.0004239082336425781
ell 455, elapsed: 0.0004439353942871094
ell 454, elapsed: 0.00044989585876464844
ell 453, elapsed: 0.00039005279541015625
ell 452, elapsed: 0.0004229545593261719
ell 451, elapsed: 0.0004401206970214844
ell 450, elapsed: 0.0004458427429199219
ell 449, elapsed: 0.00046515464782714844
ell 448, elapsed: 0.0004649162292480469
ell 447, elapsed: 0.0004851818084716797
ell 446, elapsed: 0.0004620552062988281
ell 445, elapsed: 0.0004630088806152344
ell 444, elapsed: 0.00040602684020996094
ell 443, elapsed: 0.0003991127014160156
ell 442, elapsed: 0.0003981590270996094
ell 441, elapsed: 0.0003871917724609375
ell 440, elapsed: 0.0003972053527832031
ell 439, elapsed: 0.0003960132598876953
ell 438, elapsed: 0.0004029273986816406
ell 437, elapsed: 0.00039386749267578125
ell 436, elapsed: 0.00039696693420410156
ell 435, elapsed: 0.0004210472106933594
ell 434, elapsed: 0.0004448890686035156
ell 433, elapsed: 0.00041103363037109375
ell 432, elapsed: 0.0003979206085205078
ell 431, elapsed: 0.0004010200500488281
ell 430, elapsed: 0.0004000663757324219
ell 429, elapsed: 0.0004010200500488281
ell 428, elapsed: 0.0003910064697265625
ell 427, elapsed: 0.00039005279541015625
ell 426, elapsed: 0.0003879070281982422
ell 425, elapsed: 0.00038695335388183594
ell 424, elapsed: 0.0004520416259765625
ell 423, elapsed: 0.0004470348358154297
ell 422, elapsed: 0.0004570484161376953
ell 421, elapsed: 0.0003991127014160156
ell 420, elapsed: 0.0004220008850097656
ell 419, elapsed: 0.00043702125549316406
ell 418, elapsed: 0.0004439353942871094
ell 417, elapsed: 0.0004010200500488281
ell 416, elapsed: 0.0003910064697265625
ell 415, elapsed: 0.0003879070281982422
ell 414, elapsed: 0.00039005279541015625
ell 413, elapsed: 0.0004019737243652344
ell 412, elapsed: 0.0004019737243652344
ell 411, elapsed: 0.0004169940948486328
ell 410, elapsed: 0.00044608116149902344
ell 409, elapsed: 0.0004620552062988281
ell 408, elapsed: 0.00038313865661621094
ell 407, elapsed: 0.0003871917724609375
ell 406, elapsed: 0.00038504600524902344
ell 405, elapsed: 0.00038504600524902344
ell 404, elapsed: 0.0003819465637207031
ell 403, elapsed: 0.0003829002380371094
ell 402, elapsed: 0.00037789344787597656
ell 401, elapsed: 0.00039505958557128906
ell 400, elapsed: 0.00043392181396484375
ell 399, elapsed: 0.00045990943908691406
ell 398, elapsed: 0.0003960132598876953
ell 397, elapsed: 0.0004031658172607422
ell 396, elapsed: 0.0003800392150878906
ell 395, elapsed: 0.0003838539123535156
ell 394, elapsed: 0.0003800392150878906
ell 393, elapsed: 0.0003859996795654297
ell 392, elapsed: 0.0003948211669921875
ell 391, elapsed: 0.0003859996795654297
ell 390, elapsed: 0.0004010200500488281
ell 389, elapsed: 0.0004391670227050781
ell 388, elapsed: 0.0004401206970214844
ell 387, elapsed: 0.00039386749267578125
ell 386, elapsed: 0.00038504600524902344
ell 385, elapsed: 0.0003910064697265625
ell 384, elapsed: 0.0004138946533203125
ell 383, elapsed: 0.0004220008850097656
ell 382, elapsed: 0.000392913818359375
ell 381, elapsed: 0.0003821849822998047
ell 380, elapsed: 0.0003910064697265625
ell 379, elapsed: 0.00038909912109375
ell 378, elapsed: 0.00040912628173828125
ell 377, elapsed: 0.0004019737243652344
ell 376, elapsed: 0.0003991127014160156
ell 375, elapsed: 0.0003910064697265625
ell 374, elapsed: 0.00040793418884277344
ell 373, elapsed: 0.00046515464782714844
ell 372, elapsed: 0.00043392181396484375
ell 371, elapsed: 0.0003781318664550781
ell 370, elapsed: 0.0003840923309326172
ell 369, elapsed: 0.0003809928894042969
ell 368, elapsed: 0.0003840923309326172
ell 367, elapsed: 0.0004181861877441406
ell 366, elapsed: 0.0004401206970214844
ell 365, elapsed: 0.00038695335388183594
ell 364, elapsed: 0.0004189014434814453
ell 363, elapsed: 0.0004019737243652344
ell 362, elapsed: 0.0004379749298095703
ell 361, elapsed: 0.000431060791015625
ell 360, elapsed: 0.0003898143768310547
ell 359, elapsed: 0.00038313865661621094
ell 358, elapsed: 0.0003829002380371094
ell 357, elapsed: 0.00039315223693847656
ell 356, elapsed: 0.0004239082336425781
ell 355, elapsed: 0.0005419254302978516
ell 354, elapsed: 0.0004398822784423828
ell 353, elapsed: 0.0003859996795654297
ell 352, elapsed: 0.0003771781921386719
ell 351, elapsed: 0.00041294097900390625
ell 350, elapsed: 0.0004341602325439453
ell 349, elapsed: 0.00040411949157714844
ell 348, elapsed: 0.0004241466522216797
ell 347, elapsed: 0.0004451274871826172
ell 346, elapsed: 0.0005371570587158203
ell 345, elapsed: 0.0004038810729980469
ell 344, elapsed: 0.00043392181396484375
ell 343, elapsed: 0.0004367828369140625
ell 342, elapsed: 0.0003750324249267578
ell 341, elapsed: 0.000392913818359375
ell 340, elapsed: 0.00038504600524902344
ell 339, elapsed: 0.00038313865661621094
ell 338, elapsed: 0.0003840923309326172
ell 337, elapsed: 0.00048089027404785156
ell 336, elapsed: 0.0004220008850097656
ell 335, elapsed: 0.00045180320739746094
ell 334, elapsed: 0.00043392181396484375
ell 333, elapsed: 0.0004417896270751953
ell 332, elapsed: 0.00043082237243652344
ell 331, elapsed: 0.00043201446533203125
ell 330, elapsed: 0.0004448890686035156
ell 329, elapsed: 0.0005381107330322266
ell 328, elapsed: 0.00043392181396484375
ell 327, elapsed: 0.0004420280456542969
ell 326, elapsed: 0.00045299530029296875
ell 325, elapsed: 0.00044608116149902344
ell 324, elapsed: 0.0004220008850097656
ell 323, elapsed: 0.00039887428283691406
ell 322, elapsed: 0.00039386749267578125
ell 321, elapsed: 0.0004279613494873047
ell 320, elapsed: 0.0005650520324707031
ell 319, elapsed: 0.0003910064697265625
ell 318, elapsed: 0.0004029273986816406
ell 317, elapsed: 0.00039005279541015625
ell 316, elapsed: 0.0004031658172607422
ell 315, elapsed: 0.00042891502380371094
ell 314, elapsed: 0.00043892860412597656
ell 313, elapsed: 0.0004379749298095703
ell 312, elapsed: 0.00043392181396484375
ell 311, elapsed: 0.0004639625549316406
ell 310, elapsed: 0.0004382133483886719
ell 309, elapsed: 0.00045108795166015625
ell 308, elapsed: 0.0004489421844482422
ell 307, elapsed: 0.00040602684020996094
ell 306, elapsed: 0.0003960132598876953
ell 305, elapsed: 0.00042700767517089844
ell 304, elapsed: 0.0004429817199707031
ell 303, elapsed: 0.0005650520324707031
ell 302, elapsed: 0.0004508495330810547
ell 301, elapsed: 0.0004470348358154297
ell 300, elapsed: 0.0004508495330810547
ell 299, elapsed: 0.0004420280456542969
ell 298, elapsed: 0.000453948974609375
ell 297, elapsed: 0.00044798851013183594
ell 296, elapsed: 0.0004520416259765625
ell 295, elapsed: 0.0005309581756591797
ell 294, elapsed: 0.0004589557647705078
ell 293, elapsed: 0.00045299530029296875
ell 292, elapsed: 0.00045108795166015625
ell 291, elapsed: 0.00045609474182128906
ell 290, elapsed: 0.0004451274871826172
ell 289, elapsed: 0.00045490264892578125
ell 288, elapsed: 0.0004520416259765625
ell 287, elapsed: 0.0005540847778320312
ell 286, elapsed: 0.0004668235778808594
ell 285, elapsed: 0.0004551410675048828
ell 284, elapsed: 0.0003941059112548828
ell 283, elapsed: 0.00039005279541015625
ell 282, elapsed: 0.0003840923309326172
ell 281, elapsed: 0.00038504600524902344
ell 280, elapsed: 0.0003819465637207031
ell 279, elapsed: 0.0003972053527832031
ell 278, elapsed: 0.0004999637603759766
ell 277, elapsed: 0.00047278404235839844
ell 276, elapsed: 0.0004470348358154297
ell 275, elapsed: 0.0004429817199707031
ell 274, elapsed: 0.0004391670227050781
ell 273, elapsed: 0.0004010200500488281
ell 272, elapsed: 0.0003800392150878906
ell 271, elapsed: 0.00038504600524902344
ell 270, elapsed: 0.00037789344787597656
ell 269, elapsed: 0.00048089027404785156
ell 268, elapsed: 0.0004050731658935547
ell 267, elapsed: 0.00039196014404296875
ell 266, elapsed: 0.0003829002380371094
ell 265, elapsed: 0.0003819465637207031
ell 264, elapsed: 0.0003838539123535156
ell 263, elapsed: 0.0003809928894042969
ell 262, elapsed: 0.0003829002380371094
ell 261, elapsed: 0.0003800392150878906
ell 260, elapsed: 0.00047397613525390625
ell 259, elapsed: 0.0003910064697265625
ell 258, elapsed: 0.00038886070251464844
ell 257, elapsed: 0.0003910064697265625
ell 256, elapsed: 0.0003879070281982422
ell 255, elapsed: 0.0003829002380371094
ell 254, elapsed: 0.00038695335388183594
ell 253, elapsed: 0.0003800392150878906
ell 252, elapsed: 0.0003898143768310547
ell 251, elapsed: 0.0003840923309326172
ell 250, elapsed: 0.00047397613525390625
ell 249, elapsed: 0.00040411949157714844
ell 248, elapsed: 0.0003871917724609375
ell 247, elapsed: 0.0003859996795654297
ell 246, elapsed: 0.0003819465637207031
ell 245, elapsed: 0.0003800392150878906
ell 244, elapsed: 0.00038909912109375
ell 243, elapsed: 0.00039887428283691406
ell 242, elapsed: 0.00039887428283691406
ell 241, elapsed: 0.0004749298095703125
ell 240, elapsed: 0.00039696693420410156
ell 239, elapsed: 0.00039696693420410156
ell 238, elapsed: 0.0003921985626220703
ell 237, elapsed: 0.000392913818359375
ell 236, elapsed: 0.0003898143768310547
ell 235, elapsed: 0.00038909912109375
ell 234, elapsed: 0.0004229545593261719
ell 233, elapsed: 0.0004470348358154297
ell 232, elapsed: 0.0004930496215820312
ell 231, elapsed: 0.0004000663757324219
ell 230, elapsed: 0.0004038810729980469
ell 229, elapsed: 0.000392913818359375
ell 228, elapsed: 0.00038504600524902344
ell 227, elapsed: 0.00041103363037109375
ell 226, elapsed: 0.00043010711669921875
ell 225, elapsed: 0.00045299530029296875
ell 224, elapsed: 0.00039505958557128906
ell 223, elapsed: 0.0004899501800537109
ell 222, elapsed: 0.000408172607421875
ell 221, elapsed: 0.00039315223693847656
ell 220, elapsed: 0.00042891502380371094
ell 219, elapsed: 0.0004367828369140625
ell 218, elapsed: 0.0003859996795654297
ell 217, elapsed: 0.0003991127014160156
ell 216, elapsed: 0.0003829002380371094
ell 215, elapsed: 0.000392913818359375
ell 214, elapsed: 0.00047016143798828125
ell 213, elapsed: 0.00040078163146972656
ell 212, elapsed: 0.00038695335388183594
ell 211, elapsed: 0.0004220008850097656
ell 210, elapsed: 0.0004608631134033203
ell 209, elapsed: 0.000392913818359375
ell 208, elapsed: 0.0004131793975830078
ell 207, elapsed: 0.0004489421844482422
ell 206, elapsed: 0.0004019737243652344
ell 205, elapsed: 0.0005412101745605469
ell 204, elapsed: 0.00047206878662109375
ell 203, elapsed: 0.00045490264892578125
ell 202, elapsed: 0.0003898143768310547
ell 201, elapsed: 0.00045299530029296875
ell 200, elapsed: 0.00045680999755859375
ell 199, elapsed: 0.00044918060302734375
ell 198, elapsed: 0.00041103363037109375
ell 197, elapsed: 0.007174015045166016
ell 196, elapsed: 0.0005338191986083984
ell 195, elapsed: 0.0005471706390380859
ell 194, elapsed: 0.0004909038543701172
ell 193, elapsed: 0.0004642009735107422
ell 192, elapsed: 0.0004119873046875
ell 191, elapsed: 0.00040793418884277344
ell 190, elapsed: 0.00044798851013183594
ell 189, elapsed: 0.0004520416259765625
ell 188, elapsed: 0.0004229545593261719
ell 187, elapsed: 0.0004019737243652344
ell 186, elapsed: 0.0005259513854980469
ell 185, elapsed: 0.0004589557647705078
ell 184, elapsed: 0.0004050731658935547
ell 183, elapsed: 0.0004448890686035156
ell 182, elapsed: 0.00045013427734375
ell 181, elapsed: 0.0004019737243652344
ell 180, elapsed: 0.0004420280456542969
ell 179, elapsed: 0.00044608116149902344
ell 178, elapsed: 0.0005559921264648438
ell 177, elapsed: 0.0004520416259765625
ell 176, elapsed: 0.000453948974609375
ell 175, elapsed: 0.00045108795166015625
ell 174, elapsed: 0.00045108795166015625
ell 173, elapsed: 0.00045299530029296875
ell 172, elapsed: 0.0004010200500488281
ell 171, elapsed: 0.0003910064697265625
ell 170, elapsed: 0.0003960132598876953
ell 169, elapsed: 0.0004119873046875
ell 168, elapsed: 0.0004401206970214844
ell 167, elapsed: 0.0004608631134033203
ell 166, elapsed: 0.00046181678771972656
ell 165, elapsed: 0.0004360675811767578
ell 164, elapsed: 0.00039005279541015625
ell 163, elapsed: 0.0003879070281982422
ell 162, elapsed: 0.0003859996795654297
ell 161, elapsed: 0.00048089027404785156
ell 160, elapsed: 0.0003879070281982422
ell 159, elapsed: 0.00038909912109375
ell 158, elapsed: 0.0003941059112548828
ell 157, elapsed: 0.00038504600524902344
ell 156, elapsed: 0.00038909912109375
ell 155, elapsed: 0.00038504600524902344
ell 154, elapsed: 0.00038313865661621094
ell 153, elapsed: 0.00039196014404296875
ell 152, elapsed: 0.0003809928894042969
ell 151, elapsed: 0.0004801750183105469
ell 150, elapsed: 0.0003819465637207031
ell 149, elapsed: 0.0003829002380371094
ell 148, elapsed: 0.0003879070281982422
ell 147, elapsed: 0.0003790855407714844
ell 146, elapsed: 0.0003829002380371094
ell 145, elapsed: 0.0003800392150878906
ell 144, elapsed: 0.00039005279541015625
ell 143, elapsed: 0.000370025634765625
ell 142, elapsed: 0.0004639625549316406
ell 141, elapsed: 0.0003960132598876953
ell 140, elapsed: 0.0004000663757324219
ell 139, elapsed: 0.0004429817199707031
ell 138, elapsed: 0.0004608631134033203
ell 137, elapsed: 0.00039505958557128906
ell 136, elapsed: 0.00039696693420410156
ell 135, elapsed: 0.0004379749298095703
ell 134, elapsed: 0.0004630088806152344
ell 133, elapsed: 0.0005130767822265625
ell 132, elapsed: 0.0003809928894042969
ell 131, elapsed: 0.0003829002380371094
ell 130, elapsed: 0.0004010200500488281
ell 129, elapsed: 0.0003910064697265625
ell 128, elapsed: 0.0004429817199707031
ell 127, elapsed: 0.0004291534423828125
ell 126, elapsed: 0.00039505958557128906
ell 125, elapsed: 0.0003910064697265625
ell 124, elapsed: 0.0004889965057373047
ell 123, elapsed: 0.0004589557647705078
ell 122, elapsed: 0.0004429817199707031
ell 121, elapsed: 0.00039196014404296875
ell 120, elapsed: 0.0003979206085205078
ell 119, elapsed: 0.0004429817199707031
ell 118, elapsed: 0.0004520416259765625
ell 117, elapsed: 0.0004429817199707031
ell 116, elapsed: 0.0005388259887695312
ell 115, elapsed: 0.0004589557647705078
ell 114, elapsed: 0.000453948974609375
ell 113, elapsed: 0.0004220008850097656
ell 112, elapsed: 0.0004489421844482422
ell 111, elapsed: 0.00045490264892578125
ell 110, elapsed: 0.00044608116149902344
ell 109, elapsed: 0.00045180320739746094
ell 108, elapsed: 0.0004088878631591797
ell 107, elapsed: 0.0005359649658203125
ell 106, elapsed: 0.00045013427734375
ell 105, elapsed: 0.00045609474182128906
ell 104, elapsed: 0.0004639625549316406
ell 103, elapsed: 0.00045609474182128906
ell 102, elapsed: 0.0004611015319824219
ell 101, elapsed: 0.0004508495330810547
ell 100, elapsed: 0.00045609474182128906
ell 99, elapsed: 0.0005488395690917969
ell 98, elapsed: 0.0004570484161376953
ell 97, elapsed: 0.0004570484161376953
ell 96, elapsed: 0.0004088878631591797
ell 95, elapsed: 0.0004000663757324219
ell 94, elapsed: 0.00041604042053222656
ell 93, elapsed: 0.0004451274871826172
ell 92, elapsed: 0.0004038810729980469
ell 91, elapsed: 0.0004899501800537109
ell 90, elapsed: 0.0003819465637207031
ell 89, elapsed: 0.0003979206085205078
ell 88, elapsed: 0.000392913818359375
ell 87, elapsed: 0.00039887428283691406
ell 86, elapsed: 0.0003788471221923828
ell 85, elapsed: 0.00038695335388183594
ell 84, elapsed: 0.00039005279541015625
ell 83, elapsed: 0.00039005279541015625
ell 82, elapsed: 0.0003800392150878906
ell 81, elapsed: 0.0005049705505371094
ell 80, elapsed: 0.00044989585876464844
ell 79, elapsed: 0.0003859996795654297
ell 78, elapsed: 0.00039196014404296875
ell 77, elapsed: 0.0003838539123535156
ell 76, elapsed: 0.00039386749267578125
ell 75, elapsed: 0.00040602684020996094
ell 74, elapsed: 0.0004258155822753906
ell 73, elapsed: 0.0004458427429199219
ell 72, elapsed: 0.0004630088806152344
ell 71, elapsed: 0.0003838539123535156
ell 70, elapsed: 0.0003991127014160156
ell 69, elapsed: 0.0003921985626220703
ell 68, elapsed: 0.0004031658172607422
ell 67, elapsed: 0.0004191398620605469
ell 66, elapsed: 0.0004420280456542969
ell 65, elapsed: 0.0004029273986816406
ell 64, elapsed: 0.0005261898040771484
ell 63, elapsed: 0.0004799365997314453
ell 62, elapsed: 0.0004558563232421875
ell 61, elapsed: 0.00038313865661621094
ell 60, elapsed: 0.0003979206085205078
ell 59, elapsed: 0.0004379749298095703
ell 58, elapsed: 0.0004470348358154297
ell 57, elapsed: 0.0004239082336425781
ell 56, elapsed: 0.0004448890686035156
ell 55, elapsed: 0.0005409717559814453
ell 54, elapsed: 0.00045490264892578125
ell 53, elapsed: 0.0003948211669921875
ell 52, elapsed: 0.0004138946533203125
ell 51, elapsed: 0.0004470348358154297
ell 50, elapsed: 0.00040793418884277344
ell 49, elapsed: 0.00042700767517089844
ell 48, elapsed: 0.00045490264892578125
ell 47, elapsed: 0.0005269050598144531
ell 46, elapsed: 0.0004520416259765625
ell 45, elapsed: 0.0004429817199707031
ell 44, elapsed: 0.0004298686981201172
ell 43, elapsed: 0.0004570484161376953
ell 42, elapsed: 0.0004379749298095703
ell 41, elapsed: 0.0004379749298095703
ell 40, elapsed: 0.00039696693420410156
ell 39, elapsed: 0.00039005279541015625
ell 38, elapsed: 0.0005061626434326172
ell 37, elapsed: 0.0004379749298095703
ell 36, elapsed: 0.00045108795166015625
ell 35, elapsed: 0.00040602684020996094
ell 34, elapsed: 0.00039196014404296875
ell 33, elapsed: 0.0003960132598876953
ell 32, elapsed: 0.00039386749267578125
ell 31, elapsed: 0.0003960132598876953
ell 30, elapsed: 0.00039505958557128906
ell 29, elapsed: 0.0004470348358154297
ell 28, elapsed: 0.00044798851013183594
ell 27, elapsed: 0.00039505958557128906
ell 26, elapsed: 0.00045490264892578125
ell 25, elapsed: 0.0004489421844482422
ell 24, elapsed: 0.00039696693420410156
ell 23, elapsed: 0.000453948974609375
ell 22, elapsed: 0.00045609474182128906
ell 21, elapsed: 0.0005490779876708984
ell 20, elapsed: 0.0004410743713378906
ell 19, elapsed: 0.00040721893310546875
ell 18, elapsed: 0.00040793418884277344
ell 17, elapsed: 0.0004398822784423828
ell 16, elapsed: 0.00045180320739746094
ell 15, elapsed: 0.00045180320739746094
ell 14, elapsed: 0.0004470348358154297
ell 13, elapsed: 0.0004980564117431641
ell 12, elapsed: 0.00044989585876464844
ell 11, elapsed: 0.0004711151123046875
ell 10, elapsed: 0.0004050731658935547
ell 9, elapsed: 0.00040411949157714844
ell 8, elapsed: 0.00039315223693847656
ell 7, elapsed: 0.0004019737243652344
ell 6, elapsed: 0.0004000663757324219
ell 5, elapsed: 0.00038695335388183594
ell 4, elapsed: 0.0005137920379638672
ell 3, elapsed: 0.0004169940948486328
ell 2, elapsed: 0.0004470348358154297
ell 1, elapsed: 0.0004591941833496094
ell 0, elapsed: 0.00040411949157714844
  0.593368 seconds (46.03 k allocations: 3.091 MiB, 5.27% compilation time)
elapsed: 0.0005381107330322266
step:          0.06401 sec (0 allocations: 0 byte, 0.0% gc time)
swapping:      0.000595 sec (0 allocations: 0 byte, 0.0% gc time)
calc_Mellell!: 0.010499 sec (0 allocations: 0 byte, 0.0% gc time)
  t0 :  0.002009 sec (0 allocations: 0 byte, 0.0% gc time)
  tm2 : 0.08895 sec (0 allocations: 0 byte, 0.0% gc time)
  tm2s: 0.001297 sec (0 allocations: 0 byte, 0.0% gc time)
  tm4 : 0.245819 sec (0 allocations: 0 byte, 0.0% gc time)
  tp2 : 0.0 sec (0 allocations: 0 byte, 0.0% gc time)
  tp2s: 0.0 sec (0 allocations: 0 byte, 0.0% gc time)
  tp4 : 0.0 sec (0 allocations: 0 byte, 0.0% gc time)
calc_wtdll!:   0.373158 sec (9.9 k allocations: 1.047 MB, 0.0% gc time)
calc_wljj!:    0.041672 sec (689 allocations: 10.766 KB, 0.0% gc time)
mult_prefac!:  0.0 sec (0 allocations: 0 byte, 0.0% gc time)
convert:       0.0 sec (0 allocations: 0 byte, 0.0% gc time)
write:         0.041719 sec (0 allocations: 0 byte, 0.0% gc time)
test_rand_2f1: 0.0 sec (0 allocations: 0 byte, 0.0% gc time)
Closing outfile out/Ml21-cache.bin...   0.000012 seconds
  0.000601 seconds (36 allocations: 27.953 KiB)
make_phi():   0.002973 seconds (8.18 k allocations: 237.844 KiB)
  0.199060 seconds (141.90 k allocations: 3.483 MiB)
tskip:       0.00097 sec (0 allocations: 0 byte, 0.0% gc time)
tread:       0.030045 sec (17 allocations: 10.641 KB, 0.0% gc time)
tmultphi:    0.021156 sec (0 allocations: 0 byte, 0.0% gc time)
tbrfft:      0.048113 sec (0 allocations: 0 byte, 0.0% gc time)
tmultprefac: 0.038224 sec (0 allocations: 0 byte, 0.0% gc time)
toutfunc:    0.055632 sec (127.507 k allocations: 2.312 MB, 0.0% gc time)
Testing R=1.0 ... passed
Calculating fmax: 
  dlrec    = 4
  dlrecRg1 = -4
  q=1.1, R=0.9:	  0.543062 seconds (105.76 k allocations: 15.287 MiB)

  0.543913 seconds (105.81 k allocations: 15.321 MiB)
ℓ = 1202
Δℓ = 4
ΔℓRg1 = -4
N = 1600
q = 1.1
kmin = 1.0e-5
kmax = 100000.00000000004
χ0 = 0.023029999999999995
RR = RR.tsv
ℓmax = ℓmax.bin
f21 = f21.bin
kmin = 1.0e-5
kmax = 100000.0
dlrec    = 4
dlrecRg1 = -4
Output size: 5741568 bytes = 0.005347251892089844 GiB
Output size: 51264 bytes = 4.774332046508789e-5 GiB
Reading 'out/F21EllCache'...   0.001809 seconds (197 allocations: 84.203 KiB)
ellmax: 1202
lmaxcache: 1202
fell[:,1,1] = ComplexF64[1.3482014726274674e-57 - 3.302141236118086e-73im, 1.357860004724329e-57 - 3.3257978169518355e-73im]
ell 1202, elapsed: 4.1961669921875e-5
ell 1201, elapsed: 0.0004630088806152344
ell 1200, elapsed: 0.0003859996795654297
ell 1199, elapsed: 0.0003731250762939453
ell 1198, elapsed: 0.0003719329833984375
ell 1002, elapsed: 0.01030588150024414
ell 1001, elapsed: 0.0005249977111816406
ell 1000, elapsed: 0.0003421306610107422
ell 999, elapsed: 0.0003371238708496094
ell 998, elapsed: 0.00032806396484375
ell 902, elapsed: 0.005206108093261719
ell 901, elapsed: 0.00037598609924316406
ell 900, elapsed: 0.0003788471221923828
ell 899, elapsed: 0.0003581047058105469
ell 898, elapsed: 0.0005009174346923828
ell 802, elapsed: 0.0052089691162109375
ell 801, elapsed: 0.0003399848937988281
ell 800, elapsed: 0.0003261566162109375
ell 799, elapsed: 0.0003311634063720703
ell 798, elapsed: 0.00033211708068847656
ell 702, elapsed: 0.005337953567504883
ell 701, elapsed: 0.0004298686981201172
ell 700, elapsed: 0.00043010711669921875
ell 699, elapsed: 0.0004119873046875
ell 698, elapsed: 0.00040793418884277344
ell 602, elapsed: 0.005366086959838867
ell 601, elapsed: 0.00043511390686035156
ell 600, elapsed: 0.00041604042053222656
ell 599, elapsed: 0.0004329681396484375
ell 598, elapsed: 0.0004608631134033203
ell 502, elapsed: 0.005383968353271484
ell 501, elapsed: 0.00046515464782714844
ell 500, elapsed: 0.00046706199645996094
ell 499, elapsed: 0.0004100799560546875
ell 498, elapsed: 0.0004439353942871094
ell 402, elapsed: 0.005315065383911133
ell 401, elapsed: 0.00042891502380371094
ell 400, elapsed: 0.00041294097900390625
ell 399, elapsed: 0.00040602684020996094
ell 398, elapsed: 0.0004050731658935547
ell 302, elapsed: 0.0052640438079833984
ell 301, elapsed: 0.0004680156707763672
ell 300, elapsed: 0.00045800209045410156
ell 299, elapsed: 0.00044918060302734375
ell 298, elapsed: 0.0004010200500488281
ell 202, elapsed: 0.005267143249511719
ell 201, elapsed: 0.0005218982696533203
ell 200, elapsed: 0.0004668235778808594
ell 199, elapsed: 0.00044417381286621094
ell 198, elapsed: 0.00045013427734375
ell 152, elapsed: 0.0029261112213134766
ell 151, elapsed: 0.00041294097900390625
ell 150, elapsed: 0.0004069805145263672
ell 149, elapsed: 0.0004000663757324219
ell 148, elapsed: 0.00040602684020996094
ell 127, elapsed: 0.0015180110931396484
ell 126, elapsed: 0.00041413307189941406
ell 125, elapsed: 0.0004131793975830078
ell 124, elapsed: 0.00040602684020996094
ell 123, elapsed: 0.00040411949157714844
ell 114, elapsed: 0.0009279251098632812
ell 113, elapsed: 0.0004048347473144531
ell 112, elapsed: 0.0004048347473144531
ell 111, elapsed: 0.0004010200500488281
ell 110, elapsed: 0.0004119873046875
ell 102, elapsed: 0.0008299350738525391
ell 101, elapsed: 0.0004317760467529297
ell 100, elapsed: 0.0004119873046875
ell 99, elapsed: 0.00040411949157714844
ell 98, elapsed: 0.0004038810729980469
ell 97, elapsed: 0.0004849433898925781
ell 96, elapsed: 0.0005018711090087891
ell 95, elapsed: 0.0005328655242919922
ell 94, elapsed: 0.0005619525909423828
ell 93, elapsed: 0.000514984130859375
ell 92, elapsed: 0.00047898292541503906
ell 91, elapsed: 0.0004749298095703125
ell 90, elapsed: 0.0004718303680419922
ell 89, elapsed: 0.00047016143798828125
ell 88, elapsed: 0.0005459785461425781
ell 87, elapsed: 0.0005390644073486328
ell 86, elapsed: 0.0005309581756591797
ell 85, elapsed: 0.0005040168762207031
ell 84, elapsed: 0.000469207763671875
ell 83, elapsed: 0.00047588348388671875
ell 82, elapsed: 0.0005321502685546875
ell 81, elapsed: 0.0004699230194091797
ell 80, elapsed: 0.0004699230194091797
ell 79, elapsed: 0.00047397613525390625
ell 78, elapsed: 0.00046515464782714844
ell 77, elapsed: 0.00047707557678222656
ell 76, elapsed: 0.0004971027374267578
ell 75, elapsed: 0.0005321502685546875
ell 74, elapsed: 0.00047206878662109375
ell 73, elapsed: 0.00046896934509277344
ell 72, elapsed: 0.0004711151123046875
ell 71, elapsed: 0.00046706199645996094
ell 70, elapsed: 0.0004699230194091797
ell 69, elapsed: 0.0005440711975097656
ell 68, elapsed: 0.0005090236663818359
ell 67, elapsed: 0.0005311965942382812
ell 66, elapsed: 0.0005121231079101562
ell 65, elapsed: 0.0005109310150146484
ell 64, elapsed: 0.0005159378051757812
ell 63, elapsed: 0.0005159378051757812
ell 62, elapsed: 0.0004961490631103516
ell 61, elapsed: 0.00046896934509277344
ell 60, elapsed: 0.00047898292541503906
ell 59, elapsed: 0.0004851818084716797
ell 58, elapsed: 0.0005180835723876953
ell 57, elapsed: 0.0005600452423095703
ell 56, elapsed: 0.00047206878662109375
ell 55, elapsed: 0.00048089027404785156
ell 54, elapsed: 0.0005218982696533203
ell 53, elapsed: 0.0005161762237548828
ell 52, elapsed: 0.00047206878662109375
ell 51, elapsed: 0.0005080699920654297
ell 50, elapsed: 0.0004839897155761719
ell 49, elapsed: 0.0004749298095703125
ell 48, elapsed: 0.000476837158203125
ell 47, elapsed: 0.0004780292510986328
ell 46, elapsed: 0.0004799365997314453
ell 45, elapsed: 0.0005090236663818359
ell 44, elapsed: 0.0004730224609375
ell 43, elapsed: 0.0005500316619873047
ell 42, elapsed: 0.0005528926849365234
ell 41, elapsed: 0.0005171298980712891
ell 40, elapsed: 0.0005161762237548828
ell 39, elapsed: 0.0005369186401367188
ell 38, elapsed: 0.0005490779876708984
ell 37, elapsed: 0.0005340576171875
ell 36, elapsed: 0.0005269050598144531
ell 35, elapsed: 0.0005431175231933594
ell 34, elapsed: 0.0004928112030029297
ell 33, elapsed: 0.0005030632019042969
ell 32, elapsed: 0.00047397613525390625
ell 31, elapsed: 0.0004699230194091797
ell 30, elapsed: 0.0004699230194091797
ell 29, elapsed: 0.0004730224609375
ell 28, elapsed: 0.0004680156707763672
ell 27, elapsed: 0.0004799365997314453
ell 26, elapsed: 0.0004849433898925781
ell 25, elapsed: 0.0004677772521972656
ell 24, elapsed: 0.0004718303680419922
ell 23, elapsed: 0.0004658699035644531
ell 22, elapsed: 0.00047206878662109375
ell 21, elapsed: 0.00049591064453125
ell 20, elapsed: 0.0005650520324707031
ell 19, elapsed: 0.0005118846893310547
ell 18, elapsed: 0.0005030632019042969
ell 17, elapsed: 0.0005159378051757812
ell 16, elapsed: 0.0004680156707763672
ell 15, elapsed: 0.00047397613525390625
ell 14, elapsed: 0.0005321502685546875
ell 13, elapsed: 0.0005159378051757812
ell 12, elapsed: 0.00046896934509277344
ell 11, elapsed: 0.00047087669372558594
ell 10, elapsed: 0.0004799365997314453
ell 9, elapsed: 0.0004699230194091797
ell 8, elapsed: 0.0004978179931640625
ell 7, elapsed: 0.0004658699035644531
ell 6, elapsed: 0.0005140304565429688
ell 5, elapsed: 0.0005359649658203125
ell 4, elapsed: 0.0005669593811035156
ell 3, elapsed: 0.000492095947265625
ell 2, elapsed: 0.0004820823669433594
ell 1, elapsed: 0.0004820823669433594
ell 0, elapsed: 0.0005059242248535156
  0.154690 seconds (11.51 k allocations: 719.594 KiB)
elapsed: 0.0011589527130126953
step:          0.05851 sec (0 allocations: 0 byte, 0.0% gc time)
swapping:      0.000466 sec (0 allocations: 0 byte, 0.0% gc time)
calc_Mellell!: 0.001768 sec (0 allocations: 0 byte, 0.0% gc time)
  t0 :  0.000385 sec (0 allocations: 0 byte, 0.0% gc time)
  tm2 : 0.013615 sec (0 allocations: 0 byte, 0.0% gc time)
  tm2s: 0.000273 sec (0 allocations: 0 byte, 0.0% gc time)
  tm4 : 0.032893 sec (0 allocations: 0 byte, 0.0% gc time)
  tp2 : 0.0 sec (0 allocations: 0 byte, 0.0% gc time)
  tp2s: 0.0 sec (0 allocations: 0 byte, 0.0% gc time)
  tp4 : 0.0 sec (0 allocations: 0 byte, 0.0% gc time)
calc_wtdll!:   0.048176 sec (1.344 k allocations: 147.0 KB, 0.0% gc time)
calc_wljj!:    0.003182 sec (6 allocations: 96 byte, 0.0% gc time)
mult_prefac!:  0.0 sec (0 allocations: 0 byte, 0.0% gc time)
convert:       0.0 sec (0 allocations: 0 byte, 0.0% gc time)
write:         0.004277 sec (0 allocations: 0 byte, 0.0% gc time)
test_rand_2f1: 0.0 sec (0 allocations: 0 byte, 0.0% gc time)
Closing outfile out/Ml21-cache.bin...   0.000007 seconds
  0.000702 seconds (36 allocations: 27.953 KiB)
make_phi():   0.002846 seconds (8.18 k allocations: 237.844 KiB)
  0.018569 seconds (11.65 k allocations: 308.688 KiB)
tskip:       2.2e-5 sec (0 allocations: 0 byte, 0.0% gc time)
tread:       0.002708 sec (17 allocations: 2.125 KB, 0.0% gc time)
tmultphi:    0.002014 sec (0 allocations: 0 byte, 0.0% gc time)
tbrfft:      0.0042 sec (0 allocations: 0 byte, 0.0% gc time)
tmultprefac: 0.003746 sec (0 allocations: 0 byte, 0.0% gc time)
toutfunc:    0.005407 sec (10.304 k allocations: 196.0 KB, 0.0% gc time)
Testing R=0.9 ... passed
Calculating fmax: 
  dlrec    = 4
  dlrecRg1 = -4
  q=1.1, R=0.8:	  0.460852 seconds (103.25 k allocations: 14.856 MiB, 8.67% gc time)

  0.461143 seconds (103.31 k allocations: 14.891 MiB, 8.67% gc time)
ℓ = 1202
Δℓ = 4
ΔℓRg1 = -4
N = 1600
q = 1.1
kmin = 1.0e-5
kmax = 100000.00000000004
χ0 = 0.023029999999999995
RR = RR.tsv
ℓmax = ℓmax.bin
f21 = f21.bin
kmin = 1.0e-5
kmax = 100000.0
dlrec    = 4
dlrecRg1 = -4
Output size: 5741568 bytes = 0.005347251892089844 GiB
Output size: 51264 bytes = 4.774332046508789e-5 GiB
Reading 'out/F21EllCache'...   0.001420 seconds (197 allocations: 84.203 KiB)
ellmax: 1202
lmaxcache: 1202
fell[:,1,1] = ComplexF64[7.519068145690986e-120 - 1.8416405474382574e-135im, 7.541664537386155e-120 - 1.847175067190611e-135im]
ell 1202, elapsed: 2.4080276489257812e-5
ell 1201, elapsed: 0.0004010200500488281
ell 1200, elapsed: 0.00036406517028808594
ell 1199, elapsed: 0.0005249977111816406
ell 1198, elapsed: 0.0003437995910644531
ell 1002, elapsed: 0.010169029235839844
ell 1001, elapsed: 0.0003521442413330078
ell 1000, elapsed: 0.00033783912658691406
ell 999, elapsed: 0.0003731250762939453
ell 998, elapsed: 0.0003921985626220703
ell 902, elapsed: 0.005261898040771484
ell 901, elapsed: 0.00034308433532714844
ell 900, elapsed: 0.0003268718719482422
ell 899, elapsed: 0.00032806396484375
ell 898, elapsed: 0.00032806396484375
ell 802, elapsed: 0.005200862884521484
ell 801, elapsed: 0.00035691261291503906
ell 800, elapsed: 0.0003719329833984375
ell 799, elapsed: 0.0003731250762939453
ell 798, elapsed: 0.00037217140197753906
ell 702, elapsed: 0.00537109375
ell 701, elapsed: 0.0003402233123779297
ell 700, elapsed: 0.0003399848937988281
ell 699, elapsed: 0.00032806396484375
ell 698, elapsed: 0.00032591819763183594
ell 602, elapsed: 0.005160093307495117
ell 601, elapsed: 0.0003459453582763672
ell 600, elapsed: 0.0003688335418701172
ell 599, elapsed: 0.00037097930908203125
ell 598, elapsed: 0.0003249645233154297
ell 502, elapsed: 0.0051898956298828125
ell 501, elapsed: 0.0003368854522705078
ell 500, elapsed: 0.0003609657287597656
ell 499, elapsed: 0.0003719329833984375
ell 498, elapsed: 0.0003490447998046875
ell 402, elapsed: 0.005136966705322266
ell 401, elapsed: 0.00035190582275390625
ell 400, elapsed: 0.0003790855407714844
ell 399, elapsed: 0.000331878662109375
ell 398, elapsed: 0.00033092498779296875
ell 302, elapsed: 0.0052950382232666016
ell 301, elapsed: 0.00034999847412109375
ell 300, elapsed: 0.00033020973205566406
ell 299, elapsed: 0.00033092498779296875
ell 298, elapsed: 0.0003299713134765625
ell 202, elapsed: 0.005203962326049805
ell 201, elapsed: 0.0003418922424316406
ell 200, elapsed: 0.0003311634063720703
ell 199, elapsed: 0.00032806396484375
ell 198, elapsed: 0.0003509521484375
ell 152, elapsed: 0.0027959346771240234
ell 151, elapsed: 0.0003440380096435547
ell 150, elapsed: 0.0003349781036376953
ell 149, elapsed: 0.00033092498779296875
ell 148, elapsed: 0.0003311634063720703
ell 127, elapsed: 0.0016109943389892578
ell 126, elapsed: 0.00034117698669433594
ell 125, elapsed: 0.0003361701965332031
ell 124, elapsed: 0.0003261566162109375
ell 123, elapsed: 0.00032401084899902344
ell 114, elapsed: 0.0007979869842529297
ell 113, elapsed: 0.00033092498779296875
ell 112, elapsed: 0.00032401084899902344
ell 111, elapsed: 0.00032210350036621094
ell 110, elapsed: 0.0004990100860595703
ell 102, elapsed: 0.0007710456848144531
ell 101, elapsed: 0.0003218650817871094
ell 100, elapsed: 0.0003211498260498047
ell 99, elapsed: 0.0003209114074707031
ell 98, elapsed: 0.0003209114074707031
ell 97, elapsed: 0.00038695335388183594
ell 96, elapsed: 0.00039005279541015625
ell 95, elapsed: 0.0003809928894042969
ell 94, elapsed: 0.0004999637603759766
ell 93, elapsed: 0.0003859996795654297
ell 92, elapsed: 0.0003819465637207031
ell 91, elapsed: 0.00038814544677734375
ell 90, elapsed: 0.0003859996795654297
ell 89, elapsed: 0.0003859996795654297
ell 88, elapsed: 0.00038695335388183594
ell 87, elapsed: 0.0003941059112548828
ell 86, elapsed: 0.00038909912109375
ell 85, elapsed: 0.00041294097900390625
ell 84, elapsed: 0.0004019737243652344
ell 83, elapsed: 0.0003829002380371094
ell 82, elapsed: 0.0003879070281982422
ell 81, elapsed: 0.00038695335388183594
ell 80, elapsed: 0.0003859996795654297
ell 79, elapsed: 0.0003859996795654297
ell 78, elapsed: 0.0003879070281982422
ell 77, elapsed: 0.0003829002380371094
ell 76, elapsed: 0.00037789344787597656
ell 75, elapsed: 0.0004889965057373047
ell 74, elapsed: 0.0003879070281982422
ell 73, elapsed: 0.0003800392150878906
ell 72, elapsed: 0.0003859996795654297
ell 71, elapsed: 0.00038504600524902344
ell 70, elapsed: 0.0003821849822998047
ell 69, elapsed: 0.00037980079650878906
ell 68, elapsed: 0.0003809928894042969
ell 67, elapsed: 0.0003819465637207031
ell 66, elapsed: 0.0003800392150878906
ell 65, elapsed: 0.0005030632019042969
ell 64, elapsed: 0.00041604042053222656
ell 63, elapsed: 0.00043010711669921875
ell 62, elapsed: 0.00038814544677734375
ell 61, elapsed: 0.0003859996795654297
ell 60, elapsed: 0.0003960132598876953
ell 59, elapsed: 0.0003979206085205078
ell 58, elapsed: 0.00038909912109375
ell 57, elapsed: 0.00039196014404296875
ell 56, elapsed: 0.00049591064453125
ell 55, elapsed: 0.0004100799560546875
[...]
ell 782, elapsed: 0.0014951229095458984
ell 781, elapsed: 0.0007510185241699219
ell 780, elapsed: 0.0008370876312255859
ell 779, elapsed: 0.0007531642913818359
ell 778, elapsed: 0.0007698535919189453
ell 772, elapsed: 0.0014638900756835938
ell 771, elapsed: 0.0008089542388916016
ell 770, elapsed: 0.0007488727569580078
ell 769, elapsed: 0.0007700920104980469
ell 768, elapsed: 0.0007770061492919922
ell 762, elapsed: 0.001422882080078125
ell 761, elapsed: 0.0007679462432861328
ell 760, elapsed: 0.0007898807525634766
ell 759, elapsed: 0.0007350444793701172
ell 758, elapsed: 0.0007729530334472656
ell 752, elapsed: 0.0014150142669677734
ell 751, elapsed: 0.000782012939453125
ell 750, elapsed: 0.0007460117340087891
ell 749, elapsed: 0.0007750988006591797
ell 748, elapsed: 0.0007641315460205078
ell 742, elapsed: 0.0014388561248779297
ell 741, elapsed: 0.0007441043853759766
ell 740, elapsed: 0.0007679462432861328
ell 739, elapsed: 0.0007359981536865234
ell 738, elapsed: 0.0008578300476074219
ell 732, elapsed: 0.001458883285522461
ell 731, elapsed: 0.0007538795471191406
ell 730, elapsed: 0.000743865966796875
ell 729, elapsed: 0.0007681846618652344
ell 728, elapsed: 0.0007410049438476562
ell 722, elapsed: 0.0014998912811279297
ell 721, elapsed: 0.0007581710815429688
ell 720, elapsed: 0.0007560253143310547
ell 719, elapsed: 0.0007550716400146484
ell 718, elapsed: 0.0007541179656982422
ell 712, elapsed: 0.0014040470123291016
ell 711, elapsed: 0.0007381439208984375
ell 710, elapsed: 0.0008311271667480469
ell 709, elapsed: 0.0007741451263427734
ell 708, elapsed: 0.000762939453125
ell 702, elapsed: 0.0014331340789794922
ell 701, elapsed: 0.0007457733154296875
ell 700, elapsed: 0.0007460117340087891
ell 699, elapsed: 0.0007350444793701172
ell 698, elapsed: 0.0007460117340087891
ell 692, elapsed: 0.0013921260833740234
ell 691, elapsed: 0.00074005126953125
ell 690, elapsed: 0.0007410049438476562
ell 689, elapsed: 0.0007350444793701172
ell 688, elapsed: 0.0007419586181640625
ell 682, elapsed: 0.0013861656188964844
ell 681, elapsed: 0.0007390975952148438
ell 680, elapsed: 0.0007669925689697266
ell 679, elapsed: 0.0007457733154296875
ell 678, elapsed: 0.0007410049438476562
ell 672, elapsed: 0.0013890266418457031
ell 671, elapsed: 0.0007538795471191406
ell 670, elapsed: 0.0007469654083251953
ell 669, elapsed: 0.0007529258728027344
ell 668, elapsed: 0.0007619857788085938
ell 662, elapsed: 0.0013909339904785156
ell 661, elapsed: 0.0007381439208984375
ell 660, elapsed: 0.0007560253143310547
ell 659, elapsed: 0.0007500648498535156
ell 658, elapsed: 0.0008261203765869141
ell 652, elapsed: 0.001422882080078125
ell 651, elapsed: 0.0007359981536865234
ell 650, elapsed: 0.0007741451263427734
ell 649, elapsed: 0.0007469654083251953
ell 648, elapsed: 0.00074005126953125
ell 642, elapsed: 0.0014040470123291016
ell 641, elapsed: 0.0008251667022705078
ell 640, elapsed: 0.0007939338684082031
ell 639, elapsed: 0.0008451938629150391
ell 638, elapsed: 0.000759124755859375
ell 632, elapsed: 0.0014119148254394531
ell 631, elapsed: 0.0007600784301757812
ell 630, elapsed: 0.0008280277252197266
ell 629, elapsed: 0.0007801055908203125
ell 628, elapsed: 0.0008368492126464844
ell 622, elapsed: 0.0015630722045898438
ell 621, elapsed: 0.0008380413055419922
ell 620, elapsed: 0.0008580684661865234
ell 619, elapsed: 0.0008511543273925781
ell 618, elapsed: 0.000865936279296875
ell 612, elapsed: 0.0015439987182617188
ell 611, elapsed: 0.0007579326629638672
ell 610, elapsed: 0.0007431507110595703
ell 609, elapsed: 0.0007700920104980469
ell 608, elapsed: 0.0007598400115966797
ell 602, elapsed: 0.0013899803161621094
ell 601, elapsed: 0.0007381439208984375
ell 600, elapsed: 0.0008389949798583984
ell 599, elapsed: 0.0007729530334472656
ell 598, elapsed: 0.0007359981536865234
ell 592, elapsed: 0.0013971328735351562
ell 591, elapsed: 0.0007369518280029297
ell 590, elapsed: 0.0007758140563964844
ell 589, elapsed: 0.0007369518280029297
ell 588, elapsed: 0.0007419586181640625
ell 582, elapsed: 0.0013990402221679688
ell 581, elapsed: 0.0007719993591308594
ell 580, elapsed: 0.0008001327514648438
ell 579, elapsed: 0.0007698535919189453
ell 578, elapsed: 0.000743865966796875
ell 572, elapsed: 0.0013880729675292969
ell 571, elapsed: 0.0007390975952148438
ell 570, elapsed: 0.0007479190826416016
ell 569, elapsed: 0.0007371902465820312
ell 568, elapsed: 0.0007419586181640625
ell 562, elapsed: 0.0013778209686279297
ell 561, elapsed: 0.0007331371307373047
ell 560, elapsed: 0.0007600784301757812
ell 559, elapsed: 0.0007309913635253906
ell 558, elapsed: 0.0007560253143310547
ell 552, elapsed: 0.0014421939849853516
ell 551, elapsed: 0.000759124755859375
ell 550, elapsed: 0.0007579326629638672
ell 549, elapsed: 0.0007410049438476562
ell 548, elapsed: 0.0007679462432861328
ell 542, elapsed: 0.0013880729675292969
ell 541, elapsed: 0.0008249282836914062
ell 540, elapsed: 0.0007679462432861328
ell 539, elapsed: 0.0008211135864257812
ell 538, elapsed: 0.0007510185241699219
ell 532, elapsed: 0.0013620853424072266
ell 531, elapsed: 0.0007350444793701172
ell 530, elapsed: 0.0007450580596923828
ell 529, elapsed: 0.0008418560028076172
ell 528, elapsed: 0.0007488727569580078
ell 522, elapsed: 0.0012781620025634766
ell 521, elapsed: 0.0007140636444091797
ell 520, elapsed: 0.0007350444793701172
ell 519, elapsed: 0.0006978511810302734
ell 518, elapsed: 0.0007150173187255859
ell 512, elapsed: 0.0012710094451904297
ell 511, elapsed: 0.0007171630859375
ell 510, elapsed: 0.0007238388061523438
ell 509, elapsed: 0.0007088184356689453
ell 508, elapsed: 0.0007240772247314453
ell 502, elapsed: 0.001194000244140625
ell 501, elapsed: 0.0007078647613525391
ell 500, elapsed: 0.000698089599609375
ell 499, elapsed: 0.0006811618804931641
ell 498, elapsed: 0.0006880760192871094
ell 492, elapsed: 0.001188039779663086
ell 491, elapsed: 0.0007021427154541016
ell 490, elapsed: 0.0006940364837646484
ell 489, elapsed: 0.0006830692291259766
ell 488, elapsed: 0.0006959438323974609
ell 482, elapsed: 0.001194000244140625
ell 481, elapsed: 0.0006940364837646484
ell 480, elapsed: 0.0006909370422363281
ell 479, elapsed: 0.00067901611328125
ell 478, elapsed: 0.0006909370422363281
ell 472, elapsed: 0.0011959075927734375
ell 471, elapsed: 0.000698089599609375
ell 470, elapsed: 0.0006930828094482422
ell 469, elapsed: 0.0006840229034423828
ell 468, elapsed: 0.0006899833679199219
ell 462, elapsed: 0.0012328624725341797
ell 461, elapsed: 0.0007469654083251953
ell 460, elapsed: 0.0006880760192871094
ell 459, elapsed: 0.0006799697875976562
ell 458, elapsed: 0.0006890296936035156
ell 452, elapsed: 0.0012319087982177734
ell 451, elapsed: 0.0007419586181640625
ell 450, elapsed: 0.0006930828094482422
ell 449, elapsed: 0.0006740093231201172
ell 448, elapsed: 0.0006830692291259766
ell 442, elapsed: 0.0012481212615966797
ell 441, elapsed: 0.0006849765777587891
ell 440, elapsed: 0.0006849765777587891
ell 439, elapsed: 0.0006771087646484375
ell 438, elapsed: 0.0006859302520751953
ell 432, elapsed: 0.0013170242309570312
ell 431, elapsed: 0.0007090568542480469
ell 430, elapsed: 0.0006840229034423828
ell 429, elapsed: 0.0006749629974365234
ell 428, elapsed: 0.0006849765777587891
ell 422, elapsed: 0.0013470649719238281
ell 421, elapsed: 0.0006849765777587891
ell 420, elapsed: 0.0006978511810302734
ell 419, elapsed: 0.0006909370422363281
ell 418, elapsed: 0.0006890296936035156
ell 412, elapsed: 0.0013420581817626953
ell 411, elapsed: 0.0007300376892089844
ell 410, elapsed: 0.0006890296936035156
ell 409, elapsed: 0.0006718635559082031
ell 408, elapsed: 0.0006868839263916016
ell 402, elapsed: 0.0013239383697509766
ell 401, elapsed: 0.0007200241088867188
ell 400, elapsed: 0.0006871223449707031
ell 399, elapsed: 0.0006730556488037109
ell 398, elapsed: 0.0006868839263916016
ell 392, elapsed: 0.0013079643249511719
ell 391, elapsed: 0.0007181167602539062
ell 390, elapsed: 0.0006849765777587891
ell 389, elapsed: 0.0006761550903320312
ell 388, elapsed: 0.0007710456848144531
ell 382, elapsed: 0.0012540817260742188
ell 381, elapsed: 0.0007028579711914062
ell 380, elapsed: 0.0006880760192871094
ell 379, elapsed: 0.0006799697875976562
ell 378, elapsed: 0.0007808208465576172
ell 372, elapsed: 0.0012018680572509766
ell 371, elapsed: 0.0006778240203857422
ell 370, elapsed: 0.0006899833679199219
ell 369, elapsed: 0.0006759166717529297
ell 368, elapsed: 0.0007939338684082031
ell 362, elapsed: 0.0012400150299072266
ell 361, elapsed: 0.0007100105285644531
ell 360, elapsed: 0.0006868839263916016
ell 359, elapsed: 0.0006740093231201172
ell 358, elapsed: 0.0007090568542480469
ell 352, elapsed: 0.0011801719665527344
ell 351, elapsed: 0.0006830692291259766
ell 350, elapsed: 0.0006871223449707031
ell 349, elapsed: 0.0007739067077636719
ell 348, elapsed: 0.0006968975067138672
ell 342, elapsed: 0.0011920928955078125
ell 341, elapsed: 0.0006768703460693359
ell 340, elapsed: 0.0006821155548095703
ell 339, elapsed: 0.0007779598236083984
ell 338, elapsed: 0.0006880760192871094
ell 332, elapsed: 0.0014150142669677734
ell 331, elapsed: 0.0008101463317871094
ell 330, elapsed: 0.0009539127349853516
ell 329, elapsed: 0.0008778572082519531
ell 328, elapsed: 0.0009272098541259766
ell 322, elapsed: 0.0015630722045898438
ell 321, elapsed: 0.0008671283721923828
ell 320, elapsed: 0.000762939453125
ell 319, elapsed: 0.0007369518280029297
ell 318, elapsed: 0.0008358955383300781
ell 312, elapsed: 0.0014870166778564453
ell 311, elapsed: 0.0007500648498535156
ell 310, elapsed: 0.00074005126953125
ell 309, elapsed: 0.0007500648498535156
ell 308, elapsed: 0.0007419586181640625
ell 302, elapsed: 0.0014710426330566406
ell 301, elapsed: 0.0007441043853759766
ell 300, elapsed: 0.0007588863372802734
ell 299, elapsed: 0.0007348060607910156
ell 298, elapsed: 0.0009341239929199219
ell 292, elapsed: 0.0013740062713623047
ell 291, elapsed: 0.0007429122924804688
ell 290, elapsed: 0.0007419586181640625
ell 289, elapsed: 0.0008969306945800781
ell 288, elapsed: 0.0007641315460205078
ell 282, elapsed: 0.0013720989227294922
ell 281, elapsed: 0.0007390975952148438
ell 280, elapsed: 0.0008840560913085938
ell 279, elapsed: 0.0007700920104980469
ell 278, elapsed: 0.0007572174072265625
ell 272, elapsed: 0.0013759136199951172
ell 271, elapsed: 0.000823974609375
ell 270, elapsed: 0.0007410049438476562
ell 269, elapsed: 0.0008170604705810547
ell 268, elapsed: 0.0007660388946533203
ell 262, elapsed: 0.0013580322265625
ell 261, elapsed: 0.0008509159088134766
ell 260, elapsed: 0.0008099079132080078
ell 259, elapsed: 0.0007760524749755859
ell 258, elapsed: 0.0007581710815429688
ell 252, elapsed: 0.0014510154724121094
ell 251, elapsed: 0.0007479190826416016
ell 250, elapsed: 0.00074005126953125
ell 249, elapsed: 0.000823974609375
ell 248, elapsed: 0.0007598400115966797
ell 242, elapsed: 0.0010700225830078125
ell 241, elapsed: 0.0005609989166259766
ell 240, elapsed: 0.0005648136138916016
ell 239, elapsed: 0.0005548000335693359
ell 238, elapsed: 0.0005800724029541016
ell 232, elapsed: 0.0012090206146240234
ell 231, elapsed: 0.0007250308990478516
ell 230, elapsed: 0.000743865966796875
ell 229, elapsed: 0.0007369518280029297
ell 228, elapsed: 0.0007390975952148438
ell 222, elapsed: 0.0014050006866455078
ell 221, elapsed: 0.0007510185241699219
ell 220, elapsed: 0.0007531642913818359
ell 219, elapsed: 0.0007498264312744141
ell 218, elapsed: 0.000759124755859375
ell 212, elapsed: 0.0013649463653564453
ell 211, elapsed: 0.0007350444793701172
ell 210, elapsed: 0.0007419586181640625
ell 209, elapsed: 0.0007340908050537109
ell 208, elapsed: 0.0007650852203369141
ell 202, elapsed: 0.0013730525970458984
ell 201, elapsed: 0.0007460117340087891
ell 200, elapsed: 0.0007610321044921875
ell 199, elapsed: 0.0007698535919189453
ell 198, elapsed: 0.0007560253143310547
ell 192, elapsed: 0.0014801025390625
ell 191, elapsed: 0.0008339881896972656
ell 190, elapsed: 0.0007770061492919922
ell 189, elapsed: 0.0007498264312744141
ell 188, elapsed: 0.0007610321044921875
ell 182, elapsed: 0.0013599395751953125
ell 181, elapsed: 0.0007491111755371094
ell 180, elapsed: 0.0007588863372802734
ell 179, elapsed: 0.0007419586181640625
ell 178, elapsed: 0.0007529258728027344
ell 172, elapsed: 0.0014109611511230469
ell 171, elapsed: 0.0007710456848144531
ell 170, elapsed: 0.0007770061492919922
ell 169, elapsed: 0.0007488727569580078
ell 168, elapsed: 0.0008440017700195312
ell 162, elapsed: 0.0014460086822509766
ell 161, elapsed: 0.0007610321044921875
ell 160, elapsed: 0.0007610321044921875
ell 159, elapsed: 0.0007479190826416016
ell 158, elapsed: 0.0007419586181640625
ell 152, elapsed: 0.001397848129272461
ell 151, elapsed: 0.0007920265197753906
ell 150, elapsed: 0.0007569789886474609
ell 149, elapsed: 0.000762939453125
ell 148, elapsed: 0.0007688999176025391
ell 142, elapsed: 0.0014519691467285156
ell 141, elapsed: 0.0007660388946533203
ell 140, elapsed: 0.0007588863372802734
ell 139, elapsed: 0.0007500648498535156
ell 138, elapsed: 0.0007331371307373047
ell 132, elapsed: 0.0013539791107177734
ell 131, elapsed: 0.0007340908050537109
ell 130, elapsed: 0.0007550716400146484
ell 129, elapsed: 0.0007510185241699219
ell 128, elapsed: 0.0008559226989746094
ell 122, elapsed: 0.0014519691467285156
ell 121, elapsed: 0.0007638931274414062
ell 120, elapsed: 0.0007660388946533203
ell 119, elapsed: 0.0007538795471191406
ell 118, elapsed: 0.0007619857788085938
ell 112, elapsed: 0.0014729499816894531
ell 111, elapsed: 0.0007791519165039062
ell 110, elapsed: 0.0007510185241699219
ell 109, elapsed: 0.0008339881896972656
ell 108, elapsed: 0.000762939453125
ell 102, elapsed: 0.0014698505401611328
ell 101, elapsed: 0.0031599998474121094
ell 100, elapsed: 0.003342151641845703
ell 99, elapsed: 0.003320932388305664
ell 98, elapsed: 0.0031821727752685547
ell 92, elapsed: 0.006042957305908203
ell 91, elapsed: 0.0030870437622070312
ell 90, elapsed: 0.003194093704223633
ell 89, elapsed: 0.003133058547973633
ell 88, elapsed: 0.003120899200439453
ell 82, elapsed: 0.005789995193481445
ell 81, elapsed: 0.0030641555786132812
ell 80, elapsed: 0.003201007843017578
ell 79, elapsed: 0.003181934356689453
ell 78, elapsed: 0.0032248497009277344
ell 72, elapsed: 0.005635976791381836
ell 71, elapsed: 0.0031120777130126953
ell 70, elapsed: 0.003139972686767578
ell 69, elapsed: 0.0031769275665283203
ell 68, elapsed: 0.0032041072845458984
ell 62, elapsed: 0.005752086639404297
ell 61, elapsed: 0.0032889842987060547
ell 60, elapsed: 0.003306865692138672
ell 59, elapsed: 0.0031888484954833984
ell 58, elapsed: 0.0031871795654296875
ell 52, elapsed: 0.006555080413818359
ell 51, elapsed: 0.0034449100494384766
ell 50, elapsed: 0.003200054168701172
ell 49, elapsed: 0.003094911575317383
ell 48, elapsed: 0.0031900405883789062
ell 42, elapsed: 0.0059680938720703125
ell 41, elapsed: 0.0031189918518066406
ell 40, elapsed: 0.0031838417053222656
ell 39, elapsed: 0.0032958984375
ell 38, elapsed: 0.003276824951171875
ell 32, elapsed: 0.006233930587768555
ell 31, elapsed: 0.003304004669189453
ell 30, elapsed: 0.0032088756561279297
ell 29, elapsed: 0.003287076950073242
ell 28, elapsed: 0.0031931400299072266
ell 22, elapsed: 0.005972862243652344
ell 21, elapsed: 0.003297090530395508
ell 20, elapsed: 0.0031919479370117188
ell 19, elapsed: 0.003173828125
ell 18, elapsed: 0.0033159255981445312
ell 12, elapsed: 0.006078004837036133
ell 11, elapsed: 0.0032949447631835938
ell 10, elapsed: 0.0033669471740722656
ell 9, elapsed: 0.0033609867095947266
ell 8, elapsed: 0.0033669471740722656
  0.685792 seconds (68.56 k allocations: 12.176 MiB)
elapsed: 0.003916025161743164
step:          0.059353 sec (0 allocations: 0 byte, 0.0% gc time)
swapping:      0.000538 sec (0 allocations: 0 byte, 0.0% gc time)
calc_Mellell!: 0.034442 sec (0 allocations: 0 byte, 0.0% gc time)
  t0 :  0.008659 sec (0 allocations: 0 byte, 0.0% gc time)
  tm2 : 0.068512 sec (0 allocations: 0 byte, 0.0% gc time)
  tm2s: 0.007141 sec (0 allocations: 0 byte, 0.0% gc time)
  tm4 : 0.159794 sec (0 allocations: 0 byte, 0.0% gc time)
  tp2 : 0.0 sec (0 allocations: 0 byte, 0.0% gc time)
  tp2s: 0.0 sec (0 allocations: 0 byte, 0.0% gc time)
  tp4 : 0.0 sec (0 allocations: 0 byte, 0.0% gc time)
calc_wtdll!:   0.492858 sec (48.6 k allocations: 11.096 MB, 0.0% gc time)
calc_wljj!:    0.031678 sec (69 allocations: 1.078 KB, 0.0% gc time)
mult_prefac!:  0.0 sec (0 allocations: 0 byte, 0.0% gc time)
convert:       0.0 sec (0 allocations: 0 byte, 0.0% gc time)
write:         0.031935 sec (0 allocations: 0 byte, 0.0% gc time)
test_rand_2f1: 0.0 sec (0 allocations: 0 byte, 0.0% gc time)
Closing outfile out/MlCache/MlCache.bin...   0.000004 seconds
xi, l=0, nu=0:   0.384771 seconds (603.10 k allocations: 32.986 MiB, 6.70% gc time, 98.55% compilation time)
xi, l=0, nu=-2:  0.002419 seconds (114 allocations: 148.969 KiB)
Created 'out/xi.tsv'.
  q=1.1, R=0.6:	  0.983643 seconds (264.51 k allocations: 38.097 MiB, 2.45% gc time)
  q=1.1, R=0.7:	  1.062887 seconds (276.48 k allocations: 40.118 MiB, 1.19% gc time)
  q=1.1, R=0.8:	  1.001792 seconds (271.73 k allocations: 39.310 MiB, 0.77% gc time)
  q=1.1, R=0.9:	  1.211896 seconds (266.62 k allocations: 38.459 MiB, 0.64% gc time)
  q=1.1, R=0.998:	 22.358404 seconds (114.96 k allocations: 7.588 MiB)
  q=1.1, R=1.0:	  0.005798 seconds (8.20 k allocations: 704.344 KiB)

ℓ = 1000
Δℓ = 4
ΔℓRg1 = -4
N = 4096
q = 1.1
kmin = 1.0e-5
kmax = 1000.0
χ0 = 0.001
RR = RR.tsv
ℓmax = ℓmax.bin
f21 = f21.bin
kmin = 1.0e-5
kmax = 1000.0
dlrec    = 4
dlrecRg1 = -4
Output size: 1573632 bytes = 0.0014655590057373047 GiB
Output size: 786816 bytes = 0.0007327795028686523 GiB
Reading 'out/F21EllCache'...   0.001375 seconds (198 allocations: 533.078 KiB)
ellmax: 1002
lmaxcache: 1000
fell[:,1,1] = ComplexF64[1.726292812820208e-224 - 4.2281979352226965e-240im, 1.7282693092099638e-224 - 4.233038955177178e-240im]
ell 1002, elapsed: 8.988380432128906e-5
ell 1001, elapsed: 0.0008988380432128906
ell 1000, elapsed: 0.0007259845733642578
ell 999, elapsed: 0.0056400299072265625
ell 998, elapsed: 0.006039857864379883
ell 44, elapsed: 0.8093209266662598
ell 43, elapsed: 0.008327960968017578
ell 42, elapsed: 0.008369922637939453
ell 41, elapsed: 0.008329153060913086
ell 40, elapsed: 0.008841991424560547
  0.869443 seconds (4.59 k allocations: 322.266 KiB)
elapsed: 0.010685205459594727
step:          0.808085 sec (0 allocations: 0 byte, 0.0% gc time)
swapping:      0.000653 sec (0 allocations: 0 byte, 0.0% gc time)
calc_Mellell!: 0.001549 sec (0 allocations: 0 byte, 0.0% gc time)
  t0 :  0.000468 sec (0 allocations: 0 byte, 0.0% gc time)
  tm2 : 0.012697 sec (0 allocations: 0 byte, 0.0% gc time)
  tm2s: 0.000316 sec (0 allocations: 0 byte, 0.0% gc time)
  tm4 : 0.035706 sec (0 allocations: 0 byte, 0.0% gc time)
  tp2 : 0.0 sec (0 allocations: 0 byte, 0.0% gc time)
  tp2s: 0.0 sec (0 allocations: 0 byte, 0.0% gc time)
  tp4 : 0.0 sec (0 allocations: 0 byte, 0.0% gc time)
calc_wtdll!:   0.049438 sec (480 allocations: 52.5 KB, 0.0% gc time)
calc_wljj!:    0.001353 sec (1 allocations: 16 byte, 0.0% gc time)
mult_prefac!:  0.0 sec (0 allocations: 0 byte, 0.0% gc time)
convert:       0.0 sec (0 allocations: 0 byte, 0.0% gc time)
write:         0.00148 sec (0 allocations: 0 byte, 0.0% gc time)
test_rand_2f1: 0.0 sec (0 allocations: 0 byte, 0.0% gc time)
Closing outfile out/MlCache/MlCache.bin...   0.000014 seconds
  0.741162 seconds (38 allocations: 66.859 KiB)
make_phi():   0.011786 seconds (65 allocations: 275.984 KiB)
  0.047042 seconds (11.42 k allocations: 711.960 KiB, 88.32% compilation time)
tskip:       1.0e-6 sec (0 allocations: 0 byte, 0.0% gc time)
tread:       0.000747 sec (17 allocations: 1.266 KB, 0.0% gc time)
tmultphi:    0.000551 sec (0 allocations: 0 byte, 0.0% gc time)
tbrfft:      0.001344 sec (0 allocations: 0 byte, 0.0% gc time)
tmultprefac: 0.001573 sec (0 allocations: 0 byte, 0.0% gc time)
toutfunc:    0.0002 sec (0 allocations: 0 byte, 0.0% gc time)
Created 'out/wl42_jj00.tsv'.
Created 'out/wl42_jj02.tsv'.
    Testing TwoFAST tests passed 
