Julia Version 1.6.0-DEV.1101
Commit 2fe2b43606 (2020-10-01 16:59 UTC)
Platform Info:
  OS: Linux (x86_64-linux-gnu)
  CPU: Intel(R) Xeon(R) Silver 4114 CPU @ 2.20GHz
  WORD_SIZE: 64
  LIBM: libopenlibm
  LLVM: libLLVM-10.0.1 (ORCJIT, skylake-avx512)
Environment:
  JULIA_DEPOT_PATH = ::/usr/local/share/julia
  JULIA_NUM_THREADS = 2

  Resolving package versions...
  Installed Reexport ───────────────────── v0.2.0
  Installed IntelOpenMP_jll ────────────── v2018.0.3+0
  Installed OpenSpecFun_jll ────────────── v0.5.3+3
  Installed FFTW_jll ───────────────────── v3.3.9+5
  Installed AbstractFFTs ───────────────── v0.5.0
  Installed FFTW ───────────────────────── v1.2.4
  Installed BinaryProvider ─────────────── v0.5.10
  Installed SpecialFunctions ───────────── v0.10.3
  Installed MKL_jll ────────────────────── v2020.2.254+0
  Installed Readables ──────────────────── v0.3.3
  Installed CompilerSupportLibraries_jll ─ v0.3.3+0
  Installed GenericSchur ───────────────── v0.4.0
  Installed GenericSVD ─────────────────── v0.3.0
  Installed ArbNumerics ────────────────── v1.2.1
  Installed TwoFAST ────────────────────── v0.1.3
Updating `~/.julia/environments/v1.6/Project.toml`
  [0dd23c3e] + TwoFAST v0.1.3
Updating `~/.julia/environments/v1.6/Manifest.toml`
  [621f4979] + AbstractFFTs v0.5.0
  [7e558dbc] + ArbNumerics v1.2.1
  [b99e7846] + BinaryProvider v0.5.10
  [e66e0078] + CompilerSupportLibraries_jll v0.3.3+0
  [7a1cc6ca] + FFTW v1.2.4
  [f5851436] + FFTW_jll v3.3.9+5
  [01680d73] + GenericSVD v0.3.0
  [c145ed77] + GenericSchur v0.4.0
  [1d5cc7b8] + IntelOpenMP_jll v2018.0.3+0
  [856f044c] + MKL_jll v2020.2.254+0
  [efe28fd5] + OpenSpecFun_jll v0.5.3+3
  [0d4725de] + Readables v0.3.3
  [189a3867] + Reexport v0.2.0
  [276daf66] + SpecialFunctions v0.10.3
  [0dd23c3e] + TwoFAST v0.1.3
  [56f22d72] + Artifacts
  [2a0f44e3] + Base64
  [ade2ca70] + Dates
  [8bb1440f] + DelimitedFiles
  [8ba89e20] + Distributed
  [b77e0a4c] + InteractiveUtils
  [76f85450] + LibGit2
  [8f399da3] + Libdl
  [37e2e46d] + LinearAlgebra
  [56ddb016] + Logging
  [d6f4376e] + Markdown
  [a63ad114] + Mmap
  [44cfe95a] + Pkg
  [de0858da] + Printf
  [3fa0cd96] + REPL
  [9a3f8284] + Random
  [ea8e919c] + SHA
  [9e88b42a] + Serialization
  [6462fe0b] + Sockets
  [fa267f1f] + TOML
  [8dfed614] + Test
  [cf7118a7] + UUIDs
  [4ec0a83e] + Unicode
   Building FFTW ───────→ `~/.julia/scratchspaces/44cfe95a-1eb2-52ea-b672-e2afdf69b78f/8b7c16b56936047ca41bf25effa137ae0b381ae8/build.log`
   Building ArbNumerics → `~/.julia/scratchspaces/44cfe95a-1eb2-52ea-b672-e2afdf69b78f/329a81d67c64e3a51c176a243b6424fbe39213d0/build.log`
    Testing TwoFAST
Status `/tmp/jl_0RV3zT/Project.toml`
  [7e558dbc] ArbNumerics v1.2.1
  [39dd38d3] Dierckx v0.5.0
  [7a1cc6ca] FFTW v1.2.4
  [276daf66] SpecialFunctions v0.10.3
  [0dd23c3e] TwoFAST v0.1.3
  [8bb1440f] DelimitedFiles
  [37e2e46d] LinearAlgebra
  [56ddb016] Logging
  [8dfed614] Test
Status `/tmp/jl_0RV3zT/Manifest.toml`
  [621f4979] AbstractFFTs v0.5.0
  [7e558dbc] ArbNumerics v1.2.1
  [b99e7846] BinaryProvider v0.5.10
  [e66e0078] CompilerSupportLibraries_jll v0.3.3+0
  [39dd38d3] Dierckx v0.5.0
  [cd4c43a9] Dierckx_jll v0.0.1+0
  [7a1cc6ca] FFTW v1.2.4
  [f5851436] FFTW_jll v3.3.9+5
  [01680d73] GenericSVD v0.3.0
  [c145ed77] GenericSchur v0.4.0
  [1d5cc7b8] IntelOpenMP_jll v2018.0.3+0
  [856f044c] MKL_jll v2020.2.254+0
  [efe28fd5] OpenSpecFun_jll v0.5.3+3
  [0d4725de] Readables v0.3.3
  [189a3867] Reexport v0.2.0
  [276daf66] SpecialFunctions v0.10.3
  [0dd23c3e] TwoFAST v0.1.3
  [56f22d72] Artifacts
  [2a0f44e3] Base64
  [ade2ca70] Dates
  [8bb1440f] DelimitedFiles
  [8ba89e20] Distributed
  [b77e0a4c] InteractiveUtils
  [76f85450] LibGit2
  [8f399da3] Libdl
  [37e2e46d] LinearAlgebra
  [56ddb016] Logging
  [d6f4376e] Markdown
  [a63ad114] Mmap
  [44cfe95a] Pkg
  [de0858da] Printf
  [3fa0cd96] REPL
  [9a3f8284] Random
  [ea8e919c] SHA
  [9e88b42a] Serialization
  [6462fe0b] Sockets
  [fa267f1f] TOML
  [8dfed614] Test
  [cf7118a7] UUIDs
  [4ec0a83e] Unicode
    Testing Running tests...
WARNING: could not import Printf.ini_hex into ArbNumerics
WARNING: could not import Printf.ini_HEX into ArbNumerics
t = 0.0 sec (0 allocations: 0 byte, 0.0% gc time)
typeof(t) = NamedTuple{(:value, :time, :bytes, :gctime, :gcstats), Tuple{DataType, Float64, Int64, Float64, Base.GC_Diff}}
TwoFAST.PerformanceStats.TimedType = Union{NamedTuple{(:value, :time, :bytes, :gctime, :gcstats), Tuple{T, Float64, Int64, Float64, Base.GC_Diff}}, Tuple{Any, Float64, Int64, Float64, Base.GC_Diff}} where T
t = 1.0e-6 sec (0 allocations: 0 byte, 0.0% gc time)
t: 1.0e-6 sec (0 allocations: 0 byte, 0.0% gc time)
Testing ξ(r), ℓ=0, ν=-1 ... passed
Testing ξ(r), ℓ=0, ν=0 ... passed
Testing ξ(r), ℓ=0, ν=1 ... passed
Testing ξ(r), ℓ=0, ν=2 ... passed
Testing ξ(r), ℓ=0, ν=3 ... passed
Testing ξ(r), ℓ=1, ν=0 ... passed
Testing ξ(r), ℓ=1, ν=1 ... passed
Testing ξ(r), ℓ=1, ν=2 ... passed
Testing ξ(r), ℓ=1, ν=3 ... passed
Testing ξ(r), ℓ=2, ν=-1 ... passed
Testing ξ(r), ℓ=2, ν=0 ... passed
Testing ξ(r), ℓ=2, ν=1 ... passed
Testing ξ(r), ℓ=2, ν=2 ... passed
Testing ξ(r), ℓ=2, ν=3 ... passed
Testing ξ(r), ℓ=3, ν=-1 ... passed
Testing ξ(r), ℓ=3, ν=0 ... passed
Testing ξ(r), ℓ=3, ν=1 ... passed
Testing ξ(r), ℓ=3, ν=2 ... passed
Testing ξ(r), ℓ=3, ν=3 ... passed
Testing ξ(r), ℓ=4, ν=-1 ... passed
Testing ξ(r), ℓ=4, ν=0 ... passed
Testing ξ(r), ℓ=4, ν=1 ... passed
Testing ξ(r), ℓ=4, ν=2 ... passed
Testing ξ(r), ℓ=4, ν=3 ... passed
Testing ξ(r) ... passed
Testing ξ′(r) ... passed
Testing ξ″(r) ... passed
Calculating fmax: 
  dlrec    = 4
  dlrecRg1 = -4
  q=1.1, R=1.1:	  4.599977 seconds (842.85 k allocations: 53.888 MiB, 1.80% gc time, 86.98% compilation time)

  4.615247 seconds (855.34 k allocations: 54.675 MiB, 1.80% gc time, 87.02% compilation time)
ℓ = 1202
Δℓ = 4
ΔℓRg1 = -4
N = 1600
q = 1.1
kmin = 1.0e-5
kmax = 100000.00000000004
χ0 = 0.023029999999999995
RR = RR.tsv
ℓmax = ℓmax.bin
f21 = f21.bin
kmin = 1.0e-5
kmax = 100000.0
dlrec    = 4
dlrecRg1 = -4
Output size: 5741568 bytes = 0.005347251892089844 GiB
Output size: 51264 bytes = 4.774332046508789e-5 GiB
Reading 'out/F21EllCache'...   0.812283 seconds (426.51 k allocations: 25.001 MiB, 5.29% gc time, 99.55% compilation time)
ellmax: 1202
lmaxcache: 1202
fell[:,1,1] = ComplexF64[3.9583795592771634e-52 - 9.695233714158177e-68im, 3.990121772925759e-52 - 9.772979714843386e-68im]
ell 1202, elapsed: 3.600120544433594e-5
ell 1201, elapsed: 1.374629020690918
ell 1200, elapsed: 0.0007660388946533203
ell 1199, elapsed: 0.0005500316619873047
ell 1198, elapsed: 0.0005319118499755859
ell 1002, elapsed: 0.014860868453979492
ell 1001, elapsed: 0.0005280971527099609
ell 1000, elapsed: 0.000514984130859375
ell 999, elapsed: 0.0005052089691162109
ell 998, elapsed: 0.0005040168762207031
ell 902, elapsed: 0.005731105804443359
ell 901, elapsed: 0.0005221366882324219
ell 900, elapsed: 0.0004971027374267578
ell 899, elapsed: 0.0005009174346923828
ell 898, elapsed: 0.0005619525909423828
ell 802, elapsed: 0.005609989166259766
ell 801, elapsed: 0.0005471706390380859
ell 800, elapsed: 0.0004980564117431641
ell 799, elapsed: 0.0004949569702148438
ell 798, elapsed: 0.0005049705505371094
ell 702, elapsed: 0.005543947219848633
ell 701, elapsed: 0.0006220340728759766
ell 700, elapsed: 0.0005009174346923828
ell 699, elapsed: 0.000492095947265625
ell 698, elapsed: 0.0004990100860595703
ell 602, elapsed: 0.005539894104003906
ell 601, elapsed: 0.0007021427154541016
ell 600, elapsed: 0.0005071163177490234
ell 599, elapsed: 0.0004990100860595703
ell 598, elapsed: 0.0005028247833251953
ell 502, elapsed: 0.005484819412231445
ell 501, elapsed: 0.0006852149963378906
ell 500, elapsed: 0.0005269050598144531
ell 499, elapsed: 0.0005159378051757812
ell 498, elapsed: 0.0005090236663818359
ell 402, elapsed: 0.005460023880004883
ell 401, elapsed: 0.0006229877471923828
ell 400, elapsed: 0.0005779266357421875
ell 399, elapsed: 0.0004961490631103516
ell 398, elapsed: 0.000537872314453125
ell 302, elapsed: 0.005476951599121094
ell 301, elapsed: 0.0005080699920654297
ell 300, elapsed: 0.0006239414215087891
ell 299, elapsed: 0.0004951953887939453
ell 298, elapsed: 0.0004949569702148438
ell 202, elapsed: 0.005355119705200195
ell 201, elapsed: 0.0005199909210205078
ell 200, elapsed: 0.0005459785461425781
ell 199, elapsed: 0.0005102157592773438
ell 198, elapsed: 0.0005099773406982422
ell 152, elapsed: 0.002855062484741211
ell 151, elapsed: 0.000514984130859375
ell 150, elapsed: 0.0005099773406982422
ell 149, elapsed: 0.0005028247833251953
ell 148, elapsed: 0.0005109310150146484
ell 127, elapsed: 0.0015859603881835938
ell 126, elapsed: 0.0005269050598144531
ell 125, elapsed: 0.0005130767822265625
ell 124, elapsed: 0.0005140304565429688
ell 123, elapsed: 0.0005109310150146484
ell 114, elapsed: 0.0010020732879638672
ell 113, elapsed: 0.0005099773406982422
ell 112, elapsed: 0.0005371570587158203
ell 111, elapsed: 0.0005228519439697266
ell 110, elapsed: 0.0005121231079101562
ell 102, elapsed: 0.0010149478912353516
ell 101, elapsed: 0.0005049705505371094
ell 100, elapsed: 0.0004968643188476562
ell 99, elapsed: 0.0005900859832763672
ell 98, elapsed: 0.0004999637603759766
ell 97, elapsed: 0.0005788803100585938
ell 96, elapsed: 0.0005741119384765625
ell 95, elapsed: 0.0005819797515869141
ell 94, elapsed: 0.0005810260772705078
ell 93, elapsed: 0.0005779266357421875
ell 92, elapsed: 0.0006830692291259766
ell 91, elapsed: 0.0006461143493652344
ell 90, elapsed: 0.0005729198455810547
ell 89, elapsed: 0.0005841255187988281
ell 88, elapsed: 0.0005781650543212891
ell 87, elapsed: 0.0005640983581542969
ell 86, elapsed: 0.0006670951843261719
ell 85, elapsed: 0.0005648136138916016
ell 84, elapsed: 0.0005719661712646484
ell 83, elapsed: 0.0005600452423095703
ell 82, elapsed: 0.0005631446838378906
ell 81, elapsed: 0.0005650520324707031
ell 80, elapsed: 0.0005679130554199219
ell 79, elapsed: 0.0006821155548095703
ell 78, elapsed: 0.0005710124969482422
ell 77, elapsed: 0.0005810260772705078
ell 76, elapsed: 0.0005750656127929688
ell 75, elapsed: 0.000576019287109375
ell 74, elapsed: 0.0005838871002197266
ell 73, elapsed: 0.0006659030914306641
ell 72, elapsed: 0.0005810260772705078
ell 71, elapsed: 0.0005719661712646484
ell 70, elapsed: 0.0005841255187988281
ell 69, elapsed: 0.0005719661712646484
ell 68, elapsed: 0.0005669593811035156
ell 67, elapsed: 0.0005779266357421875
ell 66, elapsed: 0.0006787776947021484
ell 65, elapsed: 0.0005779266357421875
ell 64, elapsed: 0.0006041526794433594
ell 63, elapsed: 0.0006411075592041016
ell 62, elapsed: 0.0005810260772705078
ell 61, elapsed: 0.0005729198455810547
ell 60, elapsed: 0.0006299018859863281
ell 59, elapsed: 0.0006589889526367188
ell 58, elapsed: 0.0005741119384765625
ell 57, elapsed: 0.0005779266357421875
ell 56, elapsed: 0.0005958080291748047
ell 55, elapsed: 0.0006930828094482422
ell 54, elapsed: 0.0006480216979980469
ell 53, elapsed: 0.0005791187286376953
ell 52, elapsed: 0.000598907470703125
ell 51, elapsed: 0.0006570816040039062
ell 50, elapsed: 0.0006399154663085938
ell 49, elapsed: 0.0005679130554199219
ell 48, elapsed: 0.0006639957427978516
ell 47, elapsed: 0.0006630420684814453
ell 46, elapsed: 0.0006539821624755859
ell 45, elapsed: 0.0005681514739990234
ell 44, elapsed: 0.0005638599395751953
ell 43, elapsed: 0.0005700588226318359
ell 42, elapsed: 0.00055694580078125
ell 41, elapsed: 0.0005779266357421875
ell 40, elapsed: 0.0005869865417480469
ell 39, elapsed: 0.0005750656127929688
ell 38, elapsed: 0.0005719661712646484
ell 37, elapsed: 0.0005669593811035156
ell 36, elapsed: 0.0005738735198974609
ell 35, elapsed: 0.0005748271942138672
ell 34, elapsed: 0.0005710124969482422
ell 33, elapsed: 0.0005750656127929688
ell 32, elapsed: 0.000553131103515625
ell 31, elapsed: 0.0005710124969482422
ell 30, elapsed: 0.0005869865417480469
ell 29, elapsed: 0.0006489753723144531
ell 28, elapsed: 0.0005819797515869141
ell 27, elapsed: 0.0005838871002197266
ell 26, elapsed: 0.0005769729614257812
ell 25, elapsed: 0.0005679130554199219
ell 24, elapsed: 0.0005788803100585938
ell 23, elapsed: 0.000637054443359375
ell 22, elapsed: 0.0006577968597412109
ell 21, elapsed: 0.0006020069122314453
ell 20, elapsed: 0.0006439685821533203
ell 19, elapsed: 0.0005788803100585938
ell 18, elapsed: 0.0006241798400878906
ell 17, elapsed: 0.0006210803985595703
ell 16, elapsed: 0.0005991458892822266
ell 15, elapsed: 0.0005688667297363281
ell 14, elapsed: 0.0005691051483154297
ell 13, elapsed: 0.0005910396575927734
ell 12, elapsed: 0.0005729198455810547
ell 11, elapsed: 0.0005710124969482422
ell 10, elapsed: 0.008848905563354492
ell 9, elapsed: 0.0006952285766601562
ell 8, elapsed: 0.0006630420684814453
ell 7, elapsed: 0.0005857944488525391
ell 6, elapsed: 0.0005810260772705078
ell 5, elapsed: 0.0005719661712646484
ell 4, elapsed: 0.0005919933319091797
ell 3, elapsed: 0.0005791187286376953
ell 2, elapsed: 0.0005781650543212891
ell 1, elapsed: 0.0006198883056640625
ell 0, elapsed: 0.0005991458892822266
  2.088773 seconds (1.38 M allocations: 74.498 MiB, 1.11% gc time, 91.91% compilation time)
elapsed: 0.0007410049438476562
step:          0.380391 sec (311.141 k allocations: 16.979 MB, 0.0% gc time)
swapping:      0.000504 sec (0 allocations: 0 byte, 0.0% gc time)
calc_Mellell!: 0.169013 sec (135.739 k allocations: 7.431 MB, 0.0% gc time)
  t0 :  0.0 sec (0 allocations: 0 byte, 0.0% gc time)
  tm2 : 0.0 sec (0 allocations: 0 byte, 0.0% gc time)
  tm2s: 0.0 sec (0 allocations: 0 byte, 0.0% gc time)
  tm4 : 0.0 sec (0 allocations: 0 byte, 0.0% gc time)
  tp2 : 0.0 sec (0 allocations: 0 byte, 0.0% gc time)
  tp2s: 0.0 sec (0 allocations: 0 byte, 0.0% gc time)
  tp4 : 0.0 sec (0 allocations: 0 byte, 0.0% gc time)
calc_wtdll!:   0.967829 sec (509.624 k allocations: 28.199 MB, 0.0% gc time)
calc_wljj!:    0.003653 sec (6 allocations: 96 byte, 0.0% gc time)
mult_prefac!:  0.0 sec (0 allocations: 0 byte, 0.0% gc time)
convert:       0.0 sec (0 allocations: 0 byte, 0.0% gc time)
write:         0.004462 sec (0 allocations: 0 byte, 0.0% gc time)
test_rand_2f1: 0.0 sec (0 allocations: 0 byte, 0.0% gc time)
Closing outfile out/Ml21-cache.bin...   0.000009 seconds
  1.076077 seconds (246.33 k allocations: 14.218 MiB, 39.20% compilation time)
make_phi():   0.013439 seconds (8.18 k allocations: 237.844 KiB)
  0.290410 seconds (87.57 k allocations: 4.748 MiB, 92.51% compilation time)
tskip:       2.7e-5 sec (0 allocations: 0 byte, 0.0% gc time)
tread:       0.0028 sec (17 allocations: 2.125 KB, 0.0% gc time)
tmultphi:    0.050823 sec (21.425 k allocations: 1.287 MB, 0.0% gc time)
tbrfft:      0.00443 sec (0 allocations: 0 byte, 0.0% gc time)
tmultprefac: 0.003715 sec (0 allocations: 0 byte, 0.0% gc time)
toutfunc:    0.184754 sec (64.482 k allocations: 3.329 MB, 0.0% gc time)
Testing R=1.1 ... passed
Calculating fmax: 
  dlrec    = 4
  dlrecRg1 = -4
  q=1.1, R=1.0:	  0.001653 seconds (3.20 k allocations: 275.344 KiB)

  0.002132 seconds (3.25 k allocations: 310.312 KiB)
ℓ = 1202
Δℓ = 4
ΔℓRg1 = -4
N = 1600
q = 1.1
kmin = 1.0e-5
kmax = 100000.00000000004
χ0 = 0.023029999999999995
RR = RR.tsv
ℓmax = ℓmax.bin
f21 = f21.bin
kmin = 1.0e-5
kmax = 100000.0
dlrec    = 4
dlrecRg1 = -4
Output size: 61465536 bytes = 0.05724424123764038 GiB
Output size: 51264 bytes = 4.774332046508789e-5 GiB
Reading 'out/F21EllCache'...   0.001152 seconds (197 allocations: 84.203 KiB)
ellmax: 1202
lmaxcache: 1202
fell[:,1,1] = ComplexF64[809.6031528389767 - 1.9829558194077161e-13im, 0.0 + 0.0im]
ell 1202, elapsed: 3.2901763916015625e-5
ell 1201, elapsed: 0.015780925750732422
ell 1200, elapsed: 0.015722990036010742
ell 1199, elapsed: 0.0003719329833984375
ell 1198, elapsed: 0.0003840923309326172
ell 1197, elapsed: 0.0004439353942871094
ell 1196, elapsed: 0.00040793418884277344
ell 1195, elapsed: 0.00040602684020996094
ell 1194, elapsed: 0.0007538795471191406
ell 1193, elapsed: 0.0004019737243652344
ell 1192, elapsed: 0.00040221214294433594
ell 1191, elapsed: 0.000392913818359375
ell 1190, elapsed: 0.0003879070281982422
ell 1189, elapsed: 0.00039505958557128906
ell 1188, elapsed: 0.0004010200500488281
ell 1187, elapsed: 0.0004029273986816406
ell 1186, elapsed: 0.0003991127014160156
ell 1185, elapsed: 0.0007169246673583984
ell 1184, elapsed: 0.0004019737243652344
ell 1183, elapsed: 0.0003979206085205078
ell 1182, elapsed: 0.0004279613494873047
ell 1181, elapsed: 0.0004611015319824219
ell 1180, elapsed: 0.00038695335388183594
ell 1179, elapsed: 0.0003981590270996094
ell 1178, elapsed: 0.00041604042053222656
ell 1177, elapsed: 0.0007560253143310547
ell 1176, elapsed: 0.0004220008850097656
ell 1175, elapsed: 0.00044798851013183594
ell 1174, elapsed: 0.00041294097900390625
ell 1173, elapsed: 0.0003960132598876953
ell 1172, elapsed: 0.0003979206085205078
ell 1171, elapsed: 0.0004029273986816406
ell 1170, elapsed: 0.00039196014404296875
ell 1169, elapsed: 0.0007488727569580078
ell 1168, elapsed: 0.0003910064697265625
ell 1167, elapsed: 0.0004029273986816406
ell 1166, elapsed: 0.00038886070251464844
ell 1165, elapsed: 0.000392913818359375
ell 1164, elapsed: 0.0003910064697265625
ell 1163, elapsed: 0.00039005279541015625
ell 1162, elapsed: 0.0003948211669921875
ell 1161, elapsed: 0.00039196014404296875
ell 1160, elapsed: 0.00072479248046875
ell 1159, elapsed: 0.0004038810729980469
ell 1158, elapsed: 0.0003960132598876953
ell 1157, elapsed: 0.0004010200500488281
ell 1156, elapsed: 0.00039386749267578125
ell 1155, elapsed: 0.000392913818359375
ell 1154, elapsed: 0.00043582916259765625
ell 1153, elapsed: 0.000453948974609375
ell 1152, elapsed: 0.0006999969482421875
ell 1151, elapsed: 0.00040411949157714844
ell 1150, elapsed: 0.00039696693420410156
ell 1149, elapsed: 0.0003979206085205078
ell 1148, elapsed: 0.0003979206085205078
ell 1147, elapsed: 0.0003998279571533203
ell 1146, elapsed: 0.00039696693420410156
ell 1145, elapsed: 0.0004019737243652344
ell 1144, elapsed: 0.0004260540008544922
ell 1143, elapsed: 0.0008840560913085938
ell 1142, elapsed: 0.00048804283142089844
ell 1141, elapsed: 0.0005321502685546875
ell 1140, elapsed: 0.0005230903625488281
ell 1139, elapsed: 0.0004999637603759766
ell 1138, elapsed: 0.00046181678771972656
ell 1137, elapsed: 0.0004220008850097656
ell 1136, elapsed: 0.0004220008850097656
ell 1135, elapsed: 0.00044798851013183594
ell 1134, elapsed: 0.0004551410675048828
ell 1133, elapsed: 0.00044989585876464844
ell 1132, elapsed: 0.0004551410675048828
ell 1131, elapsed: 0.00041103363037109375
ell 1130, elapsed: 0.0004229545593261719
ell 1129, elapsed: 0.0006270408630371094
ell 1128, elapsed: 0.0004849433898925781
ell 1127, elapsed: 0.0005090236663818359
ell 1126, elapsed: 0.0004971027374267578
ell 1125, elapsed: 0.0005140304565429688
ell 1124, elapsed: 0.0005040168762207031
ell 1123, elapsed: 0.0004909038543701172
ell 1122, elapsed: 0.0005240440368652344
ell 1121, elapsed: 0.0004851818084716797
ell 1120, elapsed: 0.00046706199645996094
ell 1119, elapsed: 0.00048279762268066406
ell 1118, elapsed: 0.0004820823669433594
ell 1117, elapsed: 0.00055694580078125
ell 1116, elapsed: 0.0004699230194091797
ell 1115, elapsed: 0.0005331039428710938
ell 1114, elapsed: 0.0005259513854980469
ell 1113, elapsed: 0.0005061626434326172
ell 1112, elapsed: 0.0004849433898925781
ell 1111, elapsed: 0.0005030632019042969
ell 1110, elapsed: 0.000453948974609375
ell 1109, elapsed: 0.0005390644073486328
ell 1108, elapsed: 0.0005090236663818359
ell 1107, elapsed: 0.00048804283142089844
ell 1106, elapsed: 0.00047898292541503906
ell 1105, elapsed: 0.0005030632019042969
ell 1104, elapsed: 0.0004761219024658203
ell 1103, elapsed: 0.000514984130859375
ell 1102, elapsed: 0.000492095947265625
ell 1101, elapsed: 0.0003979206085205078
ell 1100, elapsed: 0.00040602684020996094
ell 1099, elapsed: 0.00040078163146972656
ell 1098, elapsed: 0.00043392181396484375
ell 1097, elapsed: 0.0005030632019042969
ell 1096, elapsed: 0.0004000663757324219
ell 1095, elapsed: 0.0004451274871826172
ell 1094, elapsed: 0.0004520416259765625
ell 1093, elapsed: 0.00045108795166015625
ell 1092, elapsed: 0.00041794776916503906
ell 1091, elapsed: 0.0004260540008544922
ell 1090, elapsed: 0.00047016143798828125
ell 1089, elapsed: 0.00044798851013183594
ell 1088, elapsed: 0.0004069805145263672
ell 1087, elapsed: 0.00041103363037109375
ell 1086, elapsed: 0.00040411949157714844
ell 1085, elapsed: 0.0004050731658935547
ell 1084, elapsed: 0.0004000663757324219
ell 1083, elapsed: 0.00041985511779785156
ell 1082, elapsed: 0.0004601478576660156
ell 1081, elapsed: 0.0004558563232421875
ell 1080, elapsed: 0.0006949901580810547
ell 1079, elapsed: 0.00045800209045410156
ell 1078, elapsed: 0.0003991127014160156
ell 1077, elapsed: 0.000408172607421875
ell 1076, elapsed: 0.00039505958557128906
ell 1075, elapsed: 0.00038886070251464844
ell 1074, elapsed: 0.00038909912109375
ell 1073, elapsed: 0.0003840923309326172
ell 1072, elapsed: 0.0004031658172607422
ell 1071, elapsed: 0.0008790493011474609
ell 1070, elapsed: 0.0005450248718261719
ell 1069, elapsed: 0.0005300045013427734
ell 1068, elapsed: 0.0005319118499755859
ell 1067, elapsed: 0.0005400180816650391
ell 1066, elapsed: 0.0005009174346923828
ell 1065, elapsed: 0.00038504600524902344
ell 1064, elapsed: 0.00036406517028808594
ell 1063, elapsed: 0.00036406517028808594
ell 1062, elapsed: 0.0003650188446044922
ell 1061, elapsed: 0.00036215782165527344
ell 1060, elapsed: 0.00036787986755371094
ell 1059, elapsed: 0.0006740093231201172
ell 1058, elapsed: 0.00037598609924316406
ell 1057, elapsed: 0.0004189014434814453
ell 1056, elapsed: 0.0004630088806152344
ell 1055, elapsed: 0.00046181678771972656
ell 1054, elapsed: 0.00041294097900390625
ell 1053, elapsed: 0.0004520416259765625
ell 1052, elapsed: 0.0003941059112548828
ell 1051, elapsed: 0.0008008480072021484
ell 1050, elapsed: 0.0005950927734375
ell 1049, elapsed: 0.0004010200500488281
ell 1048, elapsed: 0.00040793418884277344
ell 1047, elapsed: 0.0004019737243652344
ell 1046, elapsed: 0.0004010200500488281
ell 1045, elapsed: 0.00043702125549316406
ell 1044, elapsed: 0.00045108795166015625
ell 1043, elapsed: 0.0006251335144042969
ell 1042, elapsed: 0.0004949569702148438
ell 1041, elapsed: 0.0004899501800537109
ell 1040, elapsed: 0.0004949569702148438
ell 1039, elapsed: 0.000492095947265625
ell 1038, elapsed: 0.0005362033843994141
ell 1037, elapsed: 0.0005309581756591797
ell 1036, elapsed: 0.0005118846893310547
ell 1035, elapsed: 0.0005021095275878906
ell 1034, elapsed: 0.00039887428283691406
ell 1033, elapsed: 0.0004401206970214844
ell 1032, elapsed: 0.0004429817199707031
ell 1031, elapsed: 0.00045490264892578125
ell 1030, elapsed: 0.0004048347473144531
ell 1029, elapsed: 0.0004019737243652344
ell 1028, elapsed: 0.00039505958557128906
ell 1027, elapsed: 0.0004830360412597656
ell 1026, elapsed: 0.0004029273986816406
ell 1025, elapsed: 0.0003981590270996094
ell 1024, elapsed: 0.0004489421844482422
ell 1023, elapsed: 0.0004611015319824219
ell 1022, elapsed: 0.00045299530029296875
ell 1021, elapsed: 0.00044798851013183594
ell 1020, elapsed: 0.0004470348358154297
ell 1019, elapsed: 0.0005028247833251953
ell 1018, elapsed: 0.0004050731658935547
ell 1017, elapsed: 0.0003998279571533203
ell 1016, elapsed: 0.0004000663757324219
ell 1015, elapsed: 0.000392913818359375
ell 1014, elapsed: 0.00044798851013183594
ell 1013, elapsed: 0.000453948974609375
ell 1012, elapsed: 0.0004360675811767578
ell 1011, elapsed: 0.0003910064697265625
ell 1010, elapsed: 0.0004298686981201172
ell 1009, elapsed: 0.00032019615173339844
ell 1008, elapsed: 0.00032520294189453125
ell 1007, elapsed: 0.00032401084899902344
ell 1006, elapsed: 0.00032210350036621094
ell 1005, elapsed: 0.0003261566162109375
ell 1004, elapsed: 0.0003190040588378906
ell 1003, elapsed: 0.0003268718719482422
ell 1002, elapsed: 0.0003190040588378906
ell 1001, elapsed: 0.0003180503845214844
ell 1000, elapsed: 0.00032782554626464844
ell 999, elapsed: 0.00037407875061035156
ell 998, elapsed: 0.00039696693420410156
ell 997, elapsed: 0.0003921985626220703
ell 996, elapsed: 0.0003948211669921875
ell 995, elapsed: 0.00040411949157714844
ell 994, elapsed: 0.0003941059112548828
ell 993, elapsed: 0.0004019737243652344
ell 992, elapsed: 0.0003972053527832031
ell 991, elapsed: 0.0004000663757324219
ell 990, elapsed: 0.00041985511779785156
ell 989, elapsed: 0.00040602684020996094
ell 988, elapsed: 0.0004038810729980469
ell 987, elapsed: 0.00039696693420410156
ell 986, elapsed: 0.0003941059112548828
ell 985, elapsed: 0.0003979206085205078
ell 984, elapsed: 0.00039887428283691406
ell 983, elapsed: 0.00039887428283691406
ell 982, elapsed: 0.00039386749267578125
ell 981, elapsed: 0.00039696693420410156
ell 980, elapsed: 0.000431060791015625
ell 979, elapsed: 0.0004420280456542969
ell 978, elapsed: 0.0004630088806152344
ell 977, elapsed: 0.0004658699035644531
ell 976, elapsed: 0.00041103363037109375
ell 975, elapsed: 0.0004661083221435547
ell 974, elapsed: 0.00046181678771972656
ell 973, elapsed: 0.0004749298095703125
ell 972, elapsed: 0.0004229545593261719
ell 971, elapsed: 0.0003960132598876953
ell 970, elapsed: 0.0003991127014160156
ell 969, elapsed: 0.0003960132598876953
ell 968, elapsed: 0.0003979206085205078
ell 967, elapsed: 0.0003960132598876953
ell 966, elapsed: 0.00039505958557128906
ell 965, elapsed: 0.0003981590270996094
ell 964, elapsed: 0.000392913818359375
ell 963, elapsed: 0.0004119873046875
ell 962, elapsed: 0.0004420280456542969
ell 961, elapsed: 0.00045299530029296875
ell 960, elapsed: 0.0003979206085205078
ell 959, elapsed: 0.00041794776916503906
ell 958, elapsed: 0.00045680999755859375
ell 957, elapsed: 0.0004620552062988281
ell 956, elapsed: 0.00045800209045410156
ell 955, elapsed: 0.0004458427429199219
ell 954, elapsed: 0.0004639625549316406
ell 953, elapsed: 0.0004031658172607422
ell 952, elapsed: 0.00039696693420410156
ell 951, elapsed: 0.0004508495330810547
ell 950, elapsed: 0.0004482269287109375
ell 949, elapsed: 0.0004429817199707031
ell 948, elapsed: 0.0004489421844482422
ell 947, elapsed: 0.00039386749267578125
ell 946, elapsed: 0.00043702125549316406
ell 945, elapsed: 0.0004680156707763672
ell 944, elapsed: 0.00044798851013183594
ell 943, elapsed: 0.00045418739318847656
ell 942, elapsed: 0.0004730224609375
ell 941, elapsed: 0.00040602684020996094
ell 940, elapsed: 0.0004489421844482422
ell 939, elapsed: 0.00045609474182128906
ell 938, elapsed: 0.0004279613494873047
ell 937, elapsed: 0.0004849433898925781
ell 936, elapsed: 0.0004401206970214844
ell 935, elapsed: 0.0004138946533203125
ell 934, elapsed: 0.00041103363037109375
ell 933, elapsed: 0.0004029273986816406
ell 932, elapsed: 0.00039386749267578125
ell 931, elapsed: 0.00045800209045410156
ell 930, elapsed: 0.0004570484161376953
ell 929, elapsed: 0.00038695335388183594
ell 928, elapsed: 0.0004639625549316406
ell 927, elapsed: 0.0004458427429199219
ell 926, elapsed: 0.00043010711669921875
ell 925, elapsed: 0.0004439353942871094
ell 924, elapsed: 0.0004189014434814453
ell 923, elapsed: 0.0004429817199707031
ell 922, elapsed: 0.0004470348358154297
ell 921, elapsed: 0.0004489421844482422
ell 920, elapsed: 0.0005090236663818359
ell 919, elapsed: 0.00044798851013183594
ell 918, elapsed: 0.00041794776916503906
ell 917, elapsed: 0.0004429817199707031
ell 916, elapsed: 0.0004410743713378906
ell 915, elapsed: 0.0004448890686035156
ell 914, elapsed: 0.00044798851013183594
ell 913, elapsed: 0.0004260540008544922
ell 912, elapsed: 0.0004661083221435547
ell 911, elapsed: 0.00045299530029296875
ell 910, elapsed: 0.0004470348358154297
ell 909, elapsed: 0.0004520416259765625
ell 908, elapsed: 0.00043582916259765625
ell 907, elapsed: 0.0004401206970214844
ell 906, elapsed: 0.0004601478576660156
ell 905, elapsed: 0.0004520416259765625
ell 904, elapsed: 0.0004489421844482422
ell 903, elapsed: 0.0004279613494873047
ell 902, elapsed: 0.00039887428283691406
ell 901, elapsed: 0.00045108795166015625
ell 900, elapsed: 0.00045800209045410156
ell 899, elapsed: 0.00042700767517089844
ell 898, elapsed: 0.00040411949157714844
ell 897, elapsed: 0.0004551410675048828
ell 896, elapsed: 0.00047397613525390625
ell 895, elapsed: 0.0005290508270263672
ell 894, elapsed: 0.00045800209045410156
ell 893, elapsed: 0.00040411949157714844
ell 892, elapsed: 0.00042510032653808594
ell 891, elapsed: 0.0004711151123046875
ell 890, elapsed: 0.0004589557647705078
ell 889, elapsed: 0.0004279613494873047
ell 888, elapsed: 0.00043392181396484375
ell 887, elapsed: 0.0005450248718261719
ell 886, elapsed: 0.0004119873046875
ell 885, elapsed: 0.0004210472106933594
ell 884, elapsed: 0.00045800209045410156
ell 883, elapsed: 0.00041103363037109375
ell 882, elapsed: 0.00040602684020996094
ell 881, elapsed: 0.0004220008850097656
ell 880, elapsed: 0.0004570484161376953
ell 879, elapsed: 0.0004119873046875
ell 878, elapsed: 0.0004329681396484375
ell 877, elapsed: 0.00044417381286621094
ell 876, elapsed: 0.0004458427429199219
ell 875, elapsed: 0.0004470348358154297
ell 874, elapsed: 0.0004570484161376953
ell 873, elapsed: 0.0004229545593261719
ell 872, elapsed: 0.00045609474182128906
ell 871, elapsed: 0.0004611015319824219
ell 870, elapsed: 0.0004799365997314453
ell 869, elapsed: 0.00040221214294433594
ell 868, elapsed: 0.000392913818359375
ell 867, elapsed: 0.0003750324249267578
ell 866, elapsed: 0.0004220008850097656
ell 865, elapsed: 0.00044798851013183594
ell 864, elapsed: 0.00038886070251464844
ell 863, elapsed: 0.00041794776916503906
ell 862, elapsed: 0.0004470348358154297
ell 861, elapsed: 0.00045680999755859375
ell 860, elapsed: 0.0004620552062988281
ell 859, elapsed: 0.0004088878631591797
ell 858, elapsed: 0.0003879070281982422
ell 857, elapsed: 0.0004119873046875
ell 856, elapsed: 0.0004429817199707031
ell 855, elapsed: 0.0004398822784423828
ell 854, elapsed: 0.0004048347473144531
ell 853, elapsed: 0.00039505958557128906
ell 852, elapsed: 0.0004119873046875
ell 851, elapsed: 0.0004260540008544922
ell 850, elapsed: 0.00045299530029296875
ell 849, elapsed: 0.0004429817199707031
ell 848, elapsed: 0.00040602684020996094
ell 847, elapsed: 0.00039696693420410156
ell 846, elapsed: 0.0004260540008544922
ell 845, elapsed: 0.0004458427429199219
ell 844, elapsed: 0.000408172607421875
ell 843, elapsed: 0.0004100799560546875
ell 842, elapsed: 0.00044608116149902344
ell 841, elapsed: 0.0004448890686035156
ell 840, elapsed: 0.000392913818359375
ell 839, elapsed: 0.0003910064697265625
ell 838, elapsed: 0.00042891502380371094
ell 837, elapsed: 0.0004398822784423828
ell 836, elapsed: 0.0004410743713378906
ell 835, elapsed: 0.0004260540008544922
ell 834, elapsed: 0.0004878044128417969
ell 833, elapsed: 0.0004420280456542969
ell 832, elapsed: 0.0004470348358154297
ell 831, elapsed: 0.00043487548828125
ell 830, elapsed: 0.0004589557647705078
ell 829, elapsed: 0.0003979206085205078
ell 828, elapsed: 0.00039386749267578125
ell 827, elapsed: 0.00038886070251464844
ell 826, elapsed: 0.0004749298095703125
ell 825, elapsed: 0.0003981590270996094
ell 824, elapsed: 0.00040411949157714844
ell 823, elapsed: 0.00038909912109375
ell 822, elapsed: 0.0003991127014160156
ell 821, elapsed: 0.00038814544677734375
ell 820, elapsed: 0.00039196014404296875
ell 819, elapsed: 0.00038814544677734375
ell 818, elapsed: 0.00038909912109375
ell 817, elapsed: 0.000392913818359375
ell 816, elapsed: 0.0004889965057373047
ell 815, elapsed: 0.00043892860412597656
ell 814, elapsed: 0.0004189014434814453
ell 813, elapsed: 0.0003981590270996094
ell 812, elapsed: 0.0003879070281982422
ell 811, elapsed: 0.0003829002380371094
ell 810, elapsed: 0.00039315223693847656
ell 809, elapsed: 0.0003859996795654297
ell 808, elapsed: 0.00039505958557128906
ell 807, elapsed: 0.00047397613525390625
ell 806, elapsed: 0.00041985511779785156
ell 805, elapsed: 0.00044608116149902344
ell 804, elapsed: 0.00038695335388183594
ell 803, elapsed: 0.00040912628173828125
ell 802, elapsed: 0.0004551410675048828
ell 801, elapsed: 0.00041794776916503906
ell 800, elapsed: 0.00039887428283691406
ell 799, elapsed: 0.0003910064697265625
ell 798, elapsed: 0.0004811286926269531
ell 797, elapsed: 0.00040793418884277344
ell 796, elapsed: 0.00039196014404296875
ell 795, elapsed: 0.0004000663757324219
ell 794, elapsed: 0.0004169940948486328
ell 793, elapsed: 0.0004551410675048828
ell 792, elapsed: 0.0003979206085205078
ell 791, elapsed: 0.00039505958557128906
ell 790, elapsed: 0.00039196014404296875
ell 789, elapsed: 0.00047516822814941406
ell 788, elapsed: 0.00039196014404296875
ell 787, elapsed: 0.000392913818359375
ell 786, elapsed: 0.00038886070251464844
ell 785, elapsed: 0.00039505958557128906
ell 784, elapsed: 0.0003859996795654297
ell 783, elapsed: 0.00039505958557128906
ell 782, elapsed: 0.00038886070251464844
ell 781, elapsed: 0.0003910064697265625
ell 780, elapsed: 0.00047898292541503906
ell 779, elapsed: 0.00039196014404296875
ell 778, elapsed: 0.0003921985626220703
ell 777, elapsed: 0.00038909912109375
ell 776, elapsed: 0.0003879070281982422
ell 775, elapsed: 0.0003991127014160156
ell 774, elapsed: 0.0003879070281982422
ell 773, elapsed: 0.0004010200500488281
ell 772, elapsed: 0.0003910064697265625
ell 771, elapsed: 0.0004780292510986328
ell 770, elapsed: 0.0004029273986816406
ell 769, elapsed: 0.0003910064697265625
ell 768, elapsed: 0.00043702125549316406
ell 767, elapsed: 0.00044608116149902344
ell 766, elapsed: 0.0004239082336425781
ell 765, elapsed: 0.0004470348358154297
ell 764, elapsed: 0.0003941059112548828
ell 763, elapsed: 0.00042510032653808594
ell 762, elapsed: 0.0005428791046142578
ell 761, elapsed: 0.0004019737243652344
ell 760, elapsed: 0.00039315223693847656
ell 759, elapsed: 0.0003960132598876953
ell 758, elapsed: 0.0004029273986816406
ell 757, elapsed: 0.0004220008850097656
ell 756, elapsed: 0.00045609474182128906
ell 755, elapsed: 0.0003979206085205078
ell 754, elapsed: 0.00039005279541015625
ell 753, elapsed: 0.01232004165649414
ell 752, elapsed: 0.0004279613494873047
ell 751, elapsed: 0.0004589557647705078
ell 750, elapsed: 0.0004589557647705078
ell 749, elapsed: 0.00040602684020996094
ell 748, elapsed: 0.00045990943908691406
ell 747, elapsed: 0.0004551410675048828
ell 746, elapsed: 0.00040912628173828125
ell 745, elapsed: 0.00040221214294433594
ell 744, elapsed: 0.0004038810729980469
ell 743, elapsed: 0.00040793418884277344
ell 742, elapsed: 0.0003979206085205078
ell 741, elapsed: 0.00041294097900390625
ell 740, elapsed: 0.00039696693420410156
ell 739, elapsed: 0.0004029273986816406
ell 738, elapsed: 0.0004000663757324219
ell 737, elapsed: 0.00040602684020996094
ell 736, elapsed: 0.0004010200500488281
ell 735, elapsed: 0.0005869865417480469
ell 734, elapsed: 0.0004520416259765625
ell 733, elapsed: 0.0004439353942871094
ell 732, elapsed: 0.0004210472106933594
ell 731, elapsed: 0.000431060791015625
ell 730, elapsed: 0.00044608116149902344
ell 729, elapsed: 0.00039887428283691406
ell 728, elapsed: 0.0004439353942871094
ell 727, elapsed: 0.0005371570587158203
ell 726, elapsed: 0.0003979206085205078
ell 725, elapsed: 0.0004019737243652344
ell 724, elapsed: 0.00039315223693847656
ell 723, elapsed: 0.00039386749267578125
ell 722, elapsed: 0.00039505958557128906
ell 721, elapsed: 0.00040411949157714844
ell 720, elapsed: 0.0004048347473144531
ell 719, elapsed: 0.000408172607421875
ell 718, elapsed: 0.0007839202880859375
ell 717, elapsed: 0.00040411949157714844
ell 716, elapsed: 0.0004000663757324219
ell 715, elapsed: 0.00046706199645996094
ell 714, elapsed: 0.0004551410675048828
ell 713, elapsed: 0.0004630088806152344
ell 712, elapsed: 0.0004329681396484375
ell 711, elapsed: 0.00039696693420410156
ell 710, elapsed: 0.00044918060302734375
ell 709, elapsed: 0.00039887428283691406
ell 708, elapsed: 0.00039696693420410156
ell 707, elapsed: 0.0004010200500488281
ell 706, elapsed: 0.00039505958557128906
ell 705, elapsed: 0.0004019737243652344
ell 704, elapsed: 0.0004420280456542969
ell 703, elapsed: 0.0004489421844482422
ell 702, elapsed: 0.00040602684020996094
ell 701, elapsed: 0.0004470348358154297
ell 700, elapsed: 0.0003998279571533203
ell 699, elapsed: 0.00041103363037109375
ell 698, elapsed: 0.00043511390686035156
ell 697, elapsed: 0.0004658699035644531
ell 696, elapsed: 0.00039505958557128906
ell 695, elapsed: 0.00039005279541015625
ell 694, elapsed: 0.0003941059112548828
ell 693, elapsed: 0.0004119873046875
ell 692, elapsed: 0.0006468296051025391
ell 691, elapsed: 0.0005009174346923828
ell 690, elapsed: 0.00041413307189941406
ell 689, elapsed: 0.0004119873046875
ell 688, elapsed: 0.0004870891571044922
ell 687, elapsed: 0.00045990943908691406
ell 686, elapsed: 0.00041484832763671875
ell 685, elapsed: 0.00047206878662109375
ell 684, elapsed: 0.00045299530029296875
ell 683, elapsed: 0.0004429817199707031
ell 682, elapsed: 0.0004649162292480469
ell 681, elapsed: 0.00046706199645996094
ell 680, elapsed: 0.0004069805145263672
ell 679, elapsed: 0.0003991127014160156
ell 678, elapsed: 0.00045490264892578125
ell 677, elapsed: 0.0004608631134033203
ell 676, elapsed: 0.0004050731658935547
ell 675, elapsed: 0.00040411949157714844
ell 674, elapsed: 0.0003960132598876953
ell 673, elapsed: 0.0004260540008544922
ell 672, elapsed: 0.000453948974609375
ell 671, elapsed: 0.00041103363037109375
ell 670, elapsed: 0.00040912628173828125
ell 669, elapsed: 0.0004069805145263672
ell 668, elapsed: 0.0004220008850097656
ell 667, elapsed: 0.00040793418884277344
ell 666, elapsed: 0.0004019737243652344
ell 665, elapsed: 0.00040602684020996094
ell 664, elapsed: 0.0004019737243652344
ell 663, elapsed: 0.0004050731658935547
ell 662, elapsed: 0.0004029273986816406
ell 661, elapsed: 0.0004029273986816406
ell 660, elapsed: 0.0004069805145263672
ell 659, elapsed: 0.00041604042053222656
ell 658, elapsed: 0.0004069805145263672
ell 657, elapsed: 0.00041294097900390625
ell 656, elapsed: 0.0004019737243652344
ell 655, elapsed: 0.00045299530029296875
ell 654, elapsed: 0.00044083595275878906
ell 653, elapsed: 0.0004100799560546875
ell 652, elapsed: 0.0003979206085205078
ell 651, elapsed: 0.0004050731658935547
ell 650, elapsed: 0.00043201446533203125
ell 649, elapsed: 0.00040793418884277344
ell 648, elapsed: 0.0004088878631591797
ell 647, elapsed: 0.0004010200500488281
ell 646, elapsed: 0.0004260540008544922
ell 645, elapsed: 0.00046706199645996094
ell 644, elapsed: 0.00041413307189941406
ell 643, elapsed: 0.00040912628173828125
ell 642, elapsed: 0.00043511390686035156
ell 641, elapsed: 0.00047397613525390625
ell 640, elapsed: 0.0004029273986816406
ell 639, elapsed: 0.0004229545593261719
ell 638, elapsed: 0.0004820823669433594
ell 637, elapsed: 0.0004038810729980469
ell 636, elapsed: 0.0004029273986816406
ell 635, elapsed: 0.00040602684020996094
ell 634, elapsed: 0.0004401206970214844
ell 633, elapsed: 0.0004699230194091797
ell 632, elapsed: 0.0004439353942871094
ell 631, elapsed: 0.0004649162292480469
ell 630, elapsed: 0.00047588348388671875
ell 629, elapsed: 0.00045490264892578125
ell 628, elapsed: 0.0004668235778808594
ell 627, elapsed: 0.00044798851013183594
ell 626, elapsed: 0.00040793418884277344
ell 625, elapsed: 0.00043201446533203125
ell 624, elapsed: 0.0004761219024658203
ell 623, elapsed: 0.0004661083221435547
ell 622, elapsed: 0.0004069805145263672
ell 621, elapsed: 0.00041103363037109375
ell 620, elapsed: 0.0004048347473144531
ell 619, elapsed: 0.0004520416259765625
ell 618, elapsed: 0.00046515464782714844
ell 617, elapsed: 0.0004029273986816406
ell 616, elapsed: 0.0004999637603759766
ell 615, elapsed: 0.0004718303680419922
ell 614, elapsed: 0.0004551410675048828
ell 613, elapsed: 0.00046181678771972656
ell 612, elapsed: 0.00045418739318847656
ell 611, elapsed: 0.00042319297790527344
ell 610, elapsed: 0.0004050731658935547
ell 609, elapsed: 0.0003972053527832031
ell 608, elapsed: 0.0004029273986816406
ell 607, elapsed: 0.0006079673767089844
ell 606, elapsed: 0.0003979206085205078
ell 605, elapsed: 0.0004000663757324219
ell 604, elapsed: 0.0003972053527832031
ell 603, elapsed: 0.0004069805145263672
ell 602, elapsed: 0.0004010200500488281
ell 601, elapsed: 0.0004029273986816406
ell 600, elapsed: 0.00039505958557128906
ell 599, elapsed: 0.00041103363037109375
ell 598, elapsed: 0.00046515464782714844
ell 597, elapsed: 0.0004451274871826172
ell 596, elapsed: 0.00046181678771972656
ell 595, elapsed: 0.0004248619079589844
ell 594, elapsed: 0.00040793418884277344
ell 593, elapsed: 0.00041294097900390625
ell 592, elapsed: 0.00040793418884277344
ell 591, elapsed: 0.0004150867462158203
ell 590, elapsed: 0.00041794776916503906
ell 589, elapsed: 0.0004200935363769531
ell 588, elapsed: 0.0004029273986816406
ell 587, elapsed: 0.0004069805145263672
ell 586, elapsed: 0.0004050731658935547
ell 585, elapsed: 0.0004010200500488281
ell 584, elapsed: 0.0004379749298095703
ell 583, elapsed: 0.00044918060302734375
ell 582, elapsed: 0.0004668235778808594
ell 581, elapsed: 0.0005300045013427734
ell 580, elapsed: 0.0004570484161376953
ell 579, elapsed: 0.00045108795166015625
ell 578, elapsed: 0.0004410743713378906
ell 577, elapsed: 0.00044989585876464844
ell 576, elapsed: 0.0003941059112548828
ell 575, elapsed: 0.00039315223693847656
ell 574, elapsed: 0.00042700767517089844
ell 573, elapsed: 0.00045013427734375
ell 572, elapsed: 0.0005559921264648438
ell 571, elapsed: 0.0004181861877441406
ell 570, elapsed: 0.0004439353942871094
ell 569, elapsed: 0.00040602684020996094
ell 568, elapsed: 0.00045013427734375
ell 567, elapsed: 0.00045680999755859375
ell 566, elapsed: 0.0004391670227050781
ell 565, elapsed: 0.00044608116149902344
ell 564, elapsed: 0.0005099773406982422
ell 563, elapsed: 0.00039196014404296875
ell 562, elapsed: 0.0003960132598876953
ell 561, elapsed: 0.00039196014404296875
ell 560, elapsed: 0.0003898143768310547
ell 559, elapsed: 0.0003941059112548828
ell 558, elapsed: 0.000392913818359375
ell 557, elapsed: 0.0003960132598876953
ell 556, elapsed: 0.0003991127014160156
ell 555, elapsed: 0.0004911422729492188
ell 554, elapsed: 0.0004010200500488281
ell 553, elapsed: 0.0003991127014160156
ell 552, elapsed: 0.0004050731658935547
ell 551, elapsed: 0.00039005279541015625
ell 550, elapsed: 0.0003991127014160156
ell 549, elapsed: 0.00039696693420410156
ell 548, elapsed: 0.00039505958557128906
ell 547, elapsed: 0.0003981590270996094
ell 546, elapsed: 0.0004839897155761719
ell 545, elapsed: 0.0003972053527832031
ell 544, elapsed: 0.0003979206085205078
ell 543, elapsed: 0.00040793418884277344
ell 542, elapsed: 0.0003979206085205078
ell 541, elapsed: 0.0003960132598876953
ell 540, elapsed: 0.00039005279541015625
ell 539, elapsed: 0.00039696693420410156
ell 538, elapsed: 0.0004181861877441406
ell 537, elapsed: 0.0005700588226318359
ell 536, elapsed: 0.0003981590270996094
ell 535, elapsed: 0.0004429817199707031
ell 534, elapsed: 0.00044918060302734375
ell 533, elapsed: 0.0004200935363769531
ell 532, elapsed: 0.0004570484161376953
ell 531, elapsed: 0.00042891502380371094
ell 530, elapsed: 0.0004470348358154297
ell 529, elapsed: 0.000415802001953125
ell 528, elapsed: 0.0004990100860595703
ell 527, elapsed: 0.0003960132598876953
ell 526, elapsed: 0.00039696693420410156
ell 525, elapsed: 0.0004010200500488281
ell 524, elapsed: 0.00039696693420410156
ell 523, elapsed: 0.0003979206085205078
ell 522, elapsed: 0.0003998279571533203
ell 521, elapsed: 0.00042700767517089844
ell 520, elapsed: 0.0004558563232421875
ell 519, elapsed: 0.0005080699920654297
ell 518, elapsed: 0.00039315223693847656
ell 517, elapsed: 0.0003981590270996094
ell 516, elapsed: 0.00039696693420410156
ell 515, elapsed: 0.0004000663757324219
ell 514, elapsed: 0.0004029273986816406
ell 513, elapsed: 0.0004379749298095703
ell 512, elapsed: 0.000453948974609375
ell 511, elapsed: 0.0005218982696533203
ell 510, elapsed: 0.00045490264892578125
ell 509, elapsed: 0.00039005279541015625
ell 508, elapsed: 0.0004401206970214844
ell 507, elapsed: 0.00045490264892578125
ell 506, elapsed: 0.0004458427429199219
ell 505, elapsed: 0.00045990943908691406
ell 504, elapsed: 0.0004119873046875
ell 503, elapsed: 0.0004069805145263672
ell 502, elapsed: 0.0004711151123046875
ell 501, elapsed: 0.00041794776916503906
ell 500, elapsed: 0.00045299530029296875
ell 499, elapsed: 0.0004119873046875
ell 498, elapsed: 0.0004000663757324219
ell 497, elapsed: 0.00039696693420410156
ell 496, elapsed: 0.0004000663757324219
ell 495, elapsed: 0.0004241466522216797
ell 494, elapsed: 0.000453948974609375
ell 493, elapsed: 0.00041294097900390625
ell 492, elapsed: 0.00043892860412597656
ell 491, elapsed: 0.0004620552062988281
ell 490, elapsed: 0.0004031658172607422
ell 489, elapsed: 0.00039505958557128906
ell 488, elapsed: 0.0004019737243652344
ell 487, elapsed: 0.00043511390686035156
ell 486, elapsed: 0.0004439353942871094
ell 485, elapsed: 0.0004169940948486328
ell 484, elapsed: 0.00039505958557128906
ell 483, elapsed: 0.0003972053527832031
ell 482, elapsed: 0.0003960132598876953
ell 481, elapsed: 0.0004069805145263672
ell 480, elapsed: 0.00041794776916503906
ell 479, elapsed: 0.00045013427734375
ell 478, elapsed: 0.0004220008850097656
ell 477, elapsed: 0.00040602684020996094
ell 476, elapsed: 0.00043201446533203125
ell 475, elapsed: 0.0004661083221435547
ell 474, elapsed: 0.00041103363037109375
ell 473, elapsed: 0.000431060791015625
ell 472, elapsed: 0.00047397613525390625
ell 471, elapsed: 0.00043702125549316406
ell 470, elapsed: 0.0004429817199707031
ell 469, elapsed: 0.00040602684020996094
ell 468, elapsed: 0.00041794776916503906
ell 467, elapsed: 0.00046896934509277344
ell 466, elapsed: 0.0004031658172607422
ell 465, elapsed: 0.0004260540008544922
ell 464, elapsed: 0.00044798851013183594
ell 463, elapsed: 0.0004000663757324219
ell 462, elapsed: 0.0004591941833496094
ell 461, elapsed: 0.00045680999755859375
ell 460, elapsed: 0.0004608631134033203
ell 459, elapsed: 0.0004248619079589844
ell 458, elapsed: 0.0004019737243652344
ell 457, elapsed: 0.0004038810729980469
ell 456, elapsed: 0.00040602684020996094
ell 455, elapsed: 0.0004000663757324219
ell 454, elapsed: 0.0004019737243652344
ell 453, elapsed: 0.00040411949157714844
ell 452, elapsed: 0.0004029273986816406
ell 451, elapsed: 0.00040411949157714844
ell 450, elapsed: 0.0004200935363769531
ell 449, elapsed: 0.0004029273986816406
ell 448, elapsed: 0.0004069805145263672
ell 447, elapsed: 0.0004439353942871094
ell 446, elapsed: 0.00045299530029296875
ell 445, elapsed: 0.0004010200500488281
ell 444, elapsed: 0.00040793418884277344
ell 443, elapsed: 0.0004241466522216797
ell 442, elapsed: 0.0004470348358154297
ell 441, elapsed: 0.0004410743713378906
ell 440, elapsed: 0.0004031658172607422
ell 439, elapsed: 0.0004031658172607422
ell 438, elapsed: 0.0004341602325439453
ell 437, elapsed: 0.0004658699035644531
ell 436, elapsed: 0.0004470348358154297
ell 435, elapsed: 0.000453948974609375
ell 434, elapsed: 0.00041103363037109375
ell 433, elapsed: 0.0003979206085205078
ell 432, elapsed: 0.0004589557647705078
ell 431, elapsed: 0.000453948974609375
ell 430, elapsed: 0.000431060791015625
ell 429, elapsed: 0.00045990943908691406
ell 428, elapsed: 0.0003979206085205078
ell 427, elapsed: 0.0003910064697265625
ell 426, elapsed: 0.0004119873046875
ell 425, elapsed: 0.0003979206085205078
ell 424, elapsed: 0.0004050731658935547
ell 423, elapsed: 0.00041294097900390625
ell 422, elapsed: 0.00039887428283691406
ell 421, elapsed: 0.00040602684020996094
ell 420, elapsed: 0.0003991127014160156
ell 419, elapsed: 0.0004489421844482422
ell 418, elapsed: 0.00044608116149902344
ell 417, elapsed: 0.00040411949157714844
ell 416, elapsed: 0.0004010200500488281
ell 415, elapsed: 0.0003979206085205078
ell 414, elapsed: 0.00041985511779785156
ell 413, elapsed: 0.00042700767517089844
ell 412, elapsed: 0.0004570484161376953
ell 411, elapsed: 0.0004551410675048828
ell 410, elapsed: 0.0004189014434814453
ell 409, elapsed: 0.00045990943908691406
ell 408, elapsed: 0.00041413307189941406
ell 407, elapsed: 0.0004200935363769531
ell 406, elapsed: 0.0004119873046875
ell 405, elapsed: 0.0004048347473144531
ell 404, elapsed: 0.00040411949157714844
ell 403, elapsed: 0.000408172607421875
ell 402, elapsed: 0.0004029273986816406
ell 401, elapsed: 0.00039887428283691406
ell 400, elapsed: 0.0004019737243652344
ell 399, elapsed: 0.0004010200500488281
ell 398, elapsed: 0.0004050731658935547
ell 397, elapsed: 0.00041985511779785156
ell 396, elapsed: 0.0004229545593261719
ell 395, elapsed: 0.0004489421844482422
ell 394, elapsed: 0.00045990943908691406
ell 393, elapsed: 0.0004668235778808594
ell 392, elapsed: 0.00045108795166015625
ell 391, elapsed: 0.0004069805145263672
ell 390, elapsed: 0.0004439353942871094
ell 389, elapsed: 0.00045800209045410156
ell 388, elapsed: 0.00046896934509277344
ell 387, elapsed: 0.00043392181396484375
ell 386, elapsed: 0.0004439353942871094
ell 385, elapsed: 0.00044989585876464844
ell 384, elapsed: 0.00042510032653808594
ell 383, elapsed: 0.00044608116149902344
ell 382, elapsed: 0.000453948974609375
ell 381, elapsed: 0.00044417381286621094
ell 380, elapsed: 0.0004749298095703125
ell 379, elapsed: 0.0004467964172363281
ell 378, elapsed: 0.0003981590270996094
ell 377, elapsed: 0.0004010200500488281
ell 376, elapsed: 0.00039505958557128906
ell 375, elapsed: 0.00040411949157714844
ell 374, elapsed: 0.0003960132598876953
ell 373, elapsed: 0.0004031658172607422
ell 372, elapsed: 0.0004019737243652344
ell 371, elapsed: 0.00043892860412597656
ell 370, elapsed: 0.0004611015319824219
ell 369, elapsed: 0.0004489421844482422
ell 368, elapsed: 0.00041604042053222656
ell 367, elapsed: 0.00044798851013183594
ell 366, elapsed: 0.0019989013671875
ell 365, elapsed: 0.00042510032653808594
ell 364, elapsed: 0.0004019737243652344
ell 363, elapsed: 0.0004029273986816406
ell 362, elapsed: 0.0003979206085205078
ell 361, elapsed: 0.0004019737243652344
ell 360, elapsed: 0.0004029273986816406
ell 359, elapsed: 0.0004038810729980469
ell 358, elapsed: 0.0004100799560546875
ell 357, elapsed: 0.0004048347473144531
ell 356, elapsed: 0.0004260540008544922
ell 355, elapsed: 0.0004038810729980469
ell 354, elapsed: 0.0004019737243652344
ell 353, elapsed: 0.00041103363037109375
ell 352, elapsed: 0.0004019737243652344
ell 351, elapsed: 0.00040602684020996094
ell 350, elapsed: 0.0004029273986816406
ell 349, elapsed: 0.0004069805145263672
ell 348, elapsed: 0.0004010200500488281
ell 347, elapsed: 0.00041604042053222656
ell 346, elapsed: 0.00040411949157714844
ell 345, elapsed: 0.0003981590270996094
ell 344, elapsed: 0.0004000663757324219
ell 343, elapsed: 0.0003981590270996094
ell 342, elapsed: 0.0003960132598876953
ell 341, elapsed: 0.00039887428283691406
ell 340, elapsed: 0.000392913818359375
ell 339, elapsed: 0.0004029273986816406
ell 338, elapsed: 0.0004107952117919922
ell 337, elapsed: 0.0003991127014160156
ell 336, elapsed: 0.0004038810729980469
ell 335, elapsed: 0.00039696693420410156
ell 334, elapsed: 0.00039696693420410156
ell 333, elapsed: 0.0003960132598876953
ell 332, elapsed: 0.0003941059112548828
ell 331, elapsed: 0.0004010200500488281
ell 330, elapsed: 0.0003941059112548828
ell 329, elapsed: 0.0004000663757324219
ell 328, elapsed: 0.00041103363037109375
ell 327, elapsed: 0.0004010200500488281
ell 326, elapsed: 0.0004000663757324219
ell 325, elapsed: 0.0003960132598876953
ell 324, elapsed: 0.00040221214294433594
ell 323, elapsed: 0.0003960132598876953
ell 322, elapsed: 0.0004019737243652344
ell 321, elapsed: 0.0003972053527832031
ell 320, elapsed: 0.0003991127014160156
ell 319, elapsed: 0.00041413307189941406
ell 318, elapsed: 0.0003981590270996094
ell 317, elapsed: 0.0004010200500488281
ell 316, elapsed: 0.00039696693420410156
ell 315, elapsed: 0.00039505958557128906
ell 314, elapsed: 0.0004031658172607422
ell 313, elapsed: 0.0003960132598876953
ell 312, elapsed: 0.0004029273986816406
ell 311, elapsed: 0.0004010200500488281
ell 310, elapsed: 0.0003981590270996094
ell 309, elapsed: 0.0004150867462158203
ell 308, elapsed: 0.0004019737243652344
ell 307, elapsed: 0.0004031658172607422
ell 306, elapsed: 0.0004000663757324219
ell 305, elapsed: 0.00039887428283691406
ell 304, elapsed: 0.0004570484161376953
ell 303, elapsed: 0.0004448890686035156
ell 302, elapsed: 0.0004010200500488281
ell 301, elapsed: 0.00037598609924316406
ell 300, elapsed: 0.00044608116149902344
ell 299, elapsed: 0.0003819465637207031
ell 298, elapsed: 0.0003790855407714844
ell 297, elapsed: 0.0003859996795654297
ell 296, elapsed: 0.000370025634765625
ell 295, elapsed: 0.0004100799560546875
ell 294, elapsed: 0.0004241466522216797
ell 293, elapsed: 0.00038504600524902344
ell 292, elapsed: 0.00038909912109375
ell 291, elapsed: 0.00045299530029296875
ell 290, elapsed: 0.00046896934509277344
ell 289, elapsed: 0.00039696693420410156
ell 288, elapsed: 0.00041222572326660156
ell 287, elapsed: 0.00040602684020996094
ell 286, elapsed: 0.0004038810729980469
ell 285, elapsed: 0.0004088878631591797
ell 284, elapsed: 0.0003979206085205078
ell 283, elapsed: 0.0004010200500488281
ell 282, elapsed: 0.00042700767517089844
ell 281, elapsed: 0.0004048347473144531
ell 280, elapsed: 0.0004100799560546875
ell 279, elapsed: 0.0004010200500488281
ell 278, elapsed: 0.0003991127014160156
ell 277, elapsed: 0.0004119873046875
ell 276, elapsed: 0.0003991127014160156
ell 275, elapsed: 0.0004031658172607422
ell 274, elapsed: 0.0003991127014160156
ell 273, elapsed: 0.00041222572326660156
ell 272, elapsed: 0.00040912628173828125
ell 271, elapsed: 0.0003991127014160156
ell 270, elapsed: 0.0004000663757324219
ell 269, elapsed: 0.00040221214294433594
ell 268, elapsed: 0.00039696693420410156
ell 267, elapsed: 0.0004100799560546875
ell 266, elapsed: 0.0004019737243652344
ell 265, elapsed: 0.0004019737243652344
ell 264, elapsed: 0.0003991127014160156
ell 263, elapsed: 0.00041103363037109375
ell 262, elapsed: 0.00040602684020996094
ell 261, elapsed: 0.0004000663757324219
ell 260, elapsed: 0.00040411949157714844
ell 259, elapsed: 0.00040078163146972656
ell 258, elapsed: 0.0004038810729980469
ell 257, elapsed: 0.00040793418884277344
ell 256, elapsed: 0.0004000663757324219
ell 255, elapsed: 0.0004100799560546875
ell 254, elapsed: 0.0004100799560546875
ell 253, elapsed: 0.0004048347473144531
ell 252, elapsed: 0.0003991127014160156
ell 251, elapsed: 0.0004010200500488281
ell 250, elapsed: 0.0003991127014160156
ell 249, elapsed: 0.0003972053527832031
ell 248, elapsed: 0.00040912628173828125
ell 247, elapsed: 0.00039696693420410156
ell 246, elapsed: 0.0004000663757324219
ell 245, elapsed: 0.0004000663757324219
ell 244, elapsed: 0.0004010200500488281
ell 243, elapsed: 0.0004029273986816406
ell 242, elapsed: 0.00039696693420410156
ell 241, elapsed: 0.00039696693420410156
ell 240, elapsed: 0.00040984153747558594
ell 239, elapsed: 0.0004100799560546875
ell 238, elapsed: 0.0004069805145263672
ell 237, elapsed: 0.0004010200500488281
ell 236, elapsed: 0.0004019737243652344
ell 235, elapsed: 0.00041484832763671875
ell 234, elapsed: 0.0004019737243652344
ell 233, elapsed: 0.0004019737243652344
ell 232, elapsed: 0.0003998279571533203
ell 231, elapsed: 0.0004019737243652344
ell 230, elapsed: 0.0004048347473144531
ell 229, elapsed: 0.0003979206085205078
ell 228, elapsed: 0.00040602684020996094
ell 227, elapsed: 0.0004050731658935547
ell 226, elapsed: 0.0004169940948486328
ell 225, elapsed: 0.0004019737243652344
ell 224, elapsed: 0.0004010200500488281
ell 223, elapsed: 0.0004119873046875
ell 222, elapsed: 0.0004029273986816406
ell 221, elapsed: 0.0004069805145263672
ell 220, elapsed: 0.0003979206085205078
ell 219, elapsed: 0.0004000663757324219
ell 218, elapsed: 0.0004050731658935547
ell 217, elapsed: 0.0004069805145263672
ell 216, elapsed: 0.0004220008850097656
ell 215, elapsed: 0.0004489421844482422
ell 214, elapsed: 0.0004138946533203125
ell 213, elapsed: 0.0004029273986816406
ell 212, elapsed: 0.0003981590270996094
ell 211, elapsed: 0.0004057884216308594
ell 210, elapsed: 0.0004019737243652344
ell 209, elapsed: 0.0003960132598876953
ell 208, elapsed: 0.0003979206085205078
ell 207, elapsed: 0.00047588348388671875
ell 206, elapsed: 0.0004031658172607422
ell 205, elapsed: 0.0004010200500488281
ell 204, elapsed: 0.000392913818359375
ell 203, elapsed: 0.00040793418884277344
ell 202, elapsed: 0.0003991127014160156
ell 201, elapsed: 0.0004010200500488281
ell 200, elapsed: 0.0003960132598876953
ell 199, elapsed: 0.0004031658172607422
ell 198, elapsed: 0.0004119873046875
ell 197, elapsed: 0.0004010200500488281
ell 196, elapsed: 0.00040411949157714844
ell 195, elapsed: 0.0003921985626220703
ell 194, elapsed: 0.0003960132598876953
ell 193, elapsed: 0.00039386749267578125
ell 192, elapsed: 0.000392913818359375
ell 191, elapsed: 0.0003979206085205078
ell 190, elapsed: 0.00039386749267578125
ell 189, elapsed: 0.000453948974609375
ell 188, elapsed: 0.0007579326629638672
ell 187, elapsed: 0.000659942626953125
ell 186, elapsed: 0.0008070468902587891
ell 185, elapsed: 0.0007758140563964844
ell 184, elapsed: 0.00040602684020996094
ell 183, elapsed: 0.0004119873046875
ell 182, elapsed: 0.0003960132598876953
ell 181, elapsed: 0.0003998279571533203
ell 180, elapsed: 0.0003960132598876953
ell 179, elapsed: 0.0003991127014160156
ell 178, elapsed: 0.0003972053527832031
ell 177, elapsed: 0.000392913818359375
ell 176, elapsed: 0.0004019737243652344
ell 175, elapsed: 0.0003960132598876953
ell 174, elapsed: 0.00047397613525390625
ell 173, elapsed: 0.0004031658172607422
ell 172, elapsed: 0.00039386749267578125
ell 171, elapsed: 0.00039696693420410156
ell 170, elapsed: 0.0003960132598876953
ell 169, elapsed: 0.0004100799560546875
ell 168, elapsed: 0.0003979206085205078
ell 167, elapsed: 0.00039887428283691406
ell 166, elapsed: 0.00039887428283691406
ell 165, elapsed: 0.0003979206085205078
ell 164, elapsed: 0.00046896934509277344
ell 163, elapsed: 0.0004000663757324219
ell 162, elapsed: 0.0003960132598876953
ell 161, elapsed: 0.0003991127014160156
ell 160, elapsed: 0.0004000663757324219
ell 159, elapsed: 0.0004029273986816406
ell 158, elapsed: 0.0004169940948486328
ell 157, elapsed: 0.0004420280456542969
ell 156, elapsed: 0.0004298686981201172
ell 155, elapsed: 0.0004811286926269531
ell 154, elapsed: 0.0003769397735595703
ell 153, elapsed: 0.0003719329833984375
ell 152, elapsed: 0.00037384033203125
ell 151, elapsed: 0.00037217140197753906
ell 150, elapsed: 0.0003669261932373047
ell 149, elapsed: 0.0004200935363769531
ell 148, elapsed: 0.00042510032653808594
ell 147, elapsed: 0.0003859996795654297
ell 146, elapsed: 0.0005168914794921875
ell 145, elapsed: 0.00044798851013183594
ell 144, elapsed: 0.0004611015319824219
ell 143, elapsed: 0.0005509853363037109
ell 142, elapsed: 0.0005609989166259766
ell 141, elapsed: 0.0004000663757324219
ell 140, elapsed: 0.00038814544677734375
ell 139, elapsed: 0.0004010200500488281
ell 138, elapsed: 0.0004849433898925781
ell 137, elapsed: 0.0004019737243652344
ell 136, elapsed: 0.0003941059112548828
ell 135, elapsed: 0.0003960132598876953
ell 134, elapsed: 0.0004000663757324219
ell 133, elapsed: 0.0003960132598876953
ell 132, elapsed: 0.0003981590270996094
ell 131, elapsed: 0.0003941059112548828
ell 130, elapsed: 0.00039196014404296875
ell 129, elapsed: 0.0003960132598876953
ell 128, elapsed: 0.0004050731658935547
ell 127, elapsed: 0.00039887428283691406
ell 126, elapsed: 0.0003960132598876953
ell 125, elapsed: 0.00039315223693847656
ell 124, elapsed: 0.0003981590270996094
ell 123, elapsed: 0.0003981590270996094
ell 122, elapsed: 0.0004010200500488281
ell 121, elapsed: 0.0003910064697265625
ell 120, elapsed: 0.0004019737243652344
ell 119, elapsed: 0.0005350112915039062
ell 118, elapsed: 0.0004220008850097656
ell 117, elapsed: 0.0004000663757324219
ell 116, elapsed: 0.0004019737243652344
ell 115, elapsed: 0.00040793418884277344
ell 114, elapsed: 0.00039696693420410156
ell 113, elapsed: 0.0003960132598876953
ell 112, elapsed: 0.0003998279571533203
ell 111, elapsed: 0.000392913818359375
ell 110, elapsed: 0.00047397613525390625
ell 109, elapsed: 0.0003960132598876953
ell 108, elapsed: 0.00039887428283691406
ell 107, elapsed: 0.0004000663757324219
ell 106, elapsed: 0.00039696693420410156
ell 105, elapsed: 0.00039887428283691406
ell 104, elapsed: 0.00039696693420410156
ell 103, elapsed: 0.00039505958557128906
ell 102, elapsed: 0.000408172607421875
ell 101, elapsed: 0.0006380081176757812
ell 100, elapsed: 0.0006468296051025391
ell 99, elapsed: 0.0005159378051757812
ell 98, elapsed: 0.00045490264892578125
ell 97, elapsed: 0.0004620552062988281
ell 96, elapsed: 0.00045609474182128906
ell 95, elapsed: 0.0004601478576660156
ell 94, elapsed: 0.0005128383636474609
ell 93, elapsed: 0.0004649162292480469
ell 92, elapsed: 0.00046896934509277344
ell 91, elapsed: 0.00046515464782714844
ell 90, elapsed: 0.00042510032653808594
ell 89, elapsed: 0.0004699230194091797
ell 88, elapsed: 0.0004000663757324219
ell 87, elapsed: 0.00045299530029296875
ell 86, elapsed: 0.00047397613525390625
ell 85, elapsed: 0.0004489421844482422
ell 84, elapsed: 0.0004470348358154297
ell 83, elapsed: 0.00040793418884277344
ell 82, elapsed: 0.00045609474182128906
ell 81, elapsed: 0.0004570484161376953
ell 80, elapsed: 0.0004558563232421875
ell 79, elapsed: 0.0003998279571533203
ell 78, elapsed: 0.00039005279541015625
ell 77, elapsed: 0.0004119873046875
ell 76, elapsed: 0.0004410743713378906
ell 75, elapsed: 0.00044798851013183594
ell 74, elapsed: 0.00045299530029296875
ell 73, elapsed: 0.0004420280456542969
ell 72, elapsed: 0.000392913818359375
ell 71, elapsed: 0.0004169940948486328
ell 70, elapsed: 0.0004429817199707031
ell 69, elapsed: 0.00040078163146972656
ell 68, elapsed: 0.0005481243133544922
ell 67, elapsed: 0.0004451274871826172
ell 66, elapsed: 0.00044608116149902344
ell 65, elapsed: 0.0004489421844482422
ell 64, elapsed: 0.00041294097900390625
ell 63, elapsed: 0.0004031658172607422
ell 62, elapsed: 0.0005118846893310547
ell 61, elapsed: 0.00043010711669921875
ell 60, elapsed: 0.000453948974609375
ell 59, elapsed: 0.00043320655822753906
ell 58, elapsed: 0.0004038810729980469
ell 57, elapsed: 0.00044798851013183594
ell 56, elapsed: 0.00044083595275878906
ell 55, elapsed: 0.0004010200500488281
ell 54, elapsed: 0.0003941059112548828
ell 53, elapsed: 0.00043702125549316406
ell 52, elapsed: 0.00045013427734375
ell 51, elapsed: 0.0005030632019042969
ell 50, elapsed: 0.00046896934509277344
ell 49, elapsed: 0.00041103363037109375
ell 48, elapsed: 0.0003991127014160156
ell 47, elapsed: 0.00039505958557128906
ell 46, elapsed: 0.0004210472106933594
ell 45, elapsed: 0.0004630088806152344
ell 44, elapsed: 0.00041103363037109375
ell 43, elapsed: 0.00047397613525390625
ell 42, elapsed: 0.0004048347473144531
ell 41, elapsed: 0.00043892860412597656
ell 40, elapsed: 0.00045990943908691406
ell 39, elapsed: 0.000392913818359375
ell 38, elapsed: 0.0004031658172607422
ell 37, elapsed: 0.00040602684020996094
ell 36, elapsed: 0.0004010200500488281
ell 35, elapsed: 0.0004558563232421875
ell 34, elapsed: 0.00047206878662109375
ell 33, elapsed: 0.0004260540008544922
ell 32, elapsed: 0.0004520416259765625
ell 31, elapsed: 0.0004520416259765625
ell 30, elapsed: 0.00037598609924316406
ell 29, elapsed: 0.00037598609924316406
ell 28, elapsed: 0.00037384033203125
ell 27, elapsed: 0.00037288665771484375
ell 26, elapsed: 0.0003750324249267578
ell 25, elapsed: 0.00044798851013183594
ell 24, elapsed: 0.000453948974609375
ell 23, elapsed: 0.0004069805145263672
ell 22, elapsed: 0.00043392181396484375
ell 21, elapsed: 0.0004420280456542969
ell 20, elapsed: 0.00045418739318847656
ell 19, elapsed: 0.00041294097900390625
ell 18, elapsed: 0.0004169940948486328
ell 17, elapsed: 0.0004439353942871094
ell 16, elapsed: 0.0004398822784423828
ell 15, elapsed: 0.0004019737243652344
ell 14, elapsed: 0.00040602684020996094
ell 13, elapsed: 0.0004417896270751953
ell 12, elapsed: 0.0004608631134033203
ell 11, elapsed: 0.00041294097900390625
ell 10, elapsed: 0.0004019737243652344
ell 9, elapsed: 0.0004029273986816406
ell 8, elapsed: 0.0004019737243652344
ell 7, elapsed: 0.0004050731658935547
ell 6, elapsed: 0.0004189014434814453
ell 5, elapsed: 0.0004420280456542969
ell 4, elapsed: 0.0004620552062988281
ell 3, elapsed: 0.00045609474182128906
ell 2, elapsed: 0.0004458427429199219
ell 1, elapsed: 0.0004520416259765625
ell 0, elapsed: 0.0004000663757324219
  0.602128 seconds (46.03 k allocations: 3.091 MiB, 5.09% compilation time)
elapsed: 0.0005440711975097656
step:          0.061002 sec (0 allocations: 0 byte, 0.0% gc time)
swapping:      0.000675 sec (0 allocations: 0 byte, 0.0% gc time)
calc_Mellell!: 0.009424 sec (0 allocations: 0 byte, 0.0% gc time)
  t0 :  0.001957 sec (0 allocations: 0 byte, 0.0% gc time)
  tm2 : 0.088373 sec (0 allocations: 0 byte, 0.0% gc time)
  tm2s: 0.001387 sec (0 allocations: 0 byte, 0.0% gc time)
  tm4 : 0.24958 sec (0 allocations: 0 byte, 0.0% gc time)
  tp2 : 0.0 sec (0 allocations: 0 byte, 0.0% gc time)
  tp2s: 0.0 sec (0 allocations: 0 byte, 0.0% gc time)
  tp4 : 0.0 sec (0 allocations: 0 byte, 0.0% gc time)
calc_wtdll!:   0.375918 sec (9.9 k allocations: 1.047 MB, 0.0% gc time)
calc_wljj!:    0.036744 sec (689 allocations: 10.766 KB, 0.0% gc time)
mult_prefac!:  0.0 sec (0 allocations: 0 byte, 0.0% gc time)
convert:       0.0 sec (0 allocations: 0 byte, 0.0% gc time)
write:         0.043157 sec (0 allocations: 0 byte, 0.0% gc time)
test_rand_2f1: 0.0 sec (0 allocations: 0 byte, 0.0% gc time)
Closing outfile out/Ml21-cache.bin...   0.000006 seconds
  0.000640 seconds (36 allocations: 27.953 KiB)
make_phi():   0.003032 seconds (8.18 k allocations: 237.844 KiB)
  0.214761 seconds (141.90 k allocations: 3.483 MiB)
tskip:       0.001364 sec (0 allocations: 0 byte, 0.0% gc time)
tread:       0.029826 sec (17 allocations: 10.641 KB, 0.0% gc time)
tmultphi:    0.020548 sec (0 allocations: 0 byte, 0.0% gc time)
tbrfft:      0.056089 sec (0 allocations: 0 byte, 0.0% gc time)
tmultprefac: 0.044264 sec (0 allocations: 0 byte, 0.0% gc time)
toutfunc:    0.058078 sec (127.507 k allocations: 2.312 MB, 0.0% gc time)
Testing R=1.0 ... passed
Calculating fmax: 
  dlrec    = 4
  dlrecRg1 = -4
  q=1.1, R=0.9:	  0.541613 seconds (105.76 k allocations: 15.287 MiB)

  0.541836 seconds (105.81 k allocations: 15.321 MiB)
ℓ = 1202
Δℓ = 4
ΔℓRg1 = -4
N = 1600
q = 1.1
kmin = 1.0e-5
kmax = 100000.00000000004
χ0 = 0.023029999999999995
RR = RR.tsv
ℓmax = ℓmax.bin
f21 = f21.bin
kmin = 1.0e-5
kmax = 100000.0
dlrec    = 4
dlrecRg1 = -4
Output size: 5741568 bytes = 0.005347251892089844 GiB
Output size: 51264 bytes = 4.774332046508789e-5 GiB
Reading 'out/F21EllCache'...   0.002487 seconds (197 allocations: 84.203 KiB)
ellmax: 1202
lmaxcache: 1202
fell[:,1,1] = ComplexF64[1.3482014726274674e-57 - 3.302141236118086e-73im, 1.357860004724329e-57 - 3.3257978169518355e-73im]
ell 1202, elapsed: 3.0994415283203125e-5
ell 1201, elapsed: 0.0005941390991210938
ell 1200, elapsed: 0.0006928443908691406
ell 1199, elapsed: 0.0004220008850097656
ell 1198, elapsed: 0.00042700767517089844
ell 1002, elapsed: 0.01034092903137207
ell 1001, elapsed: 0.0005481243133544922
ell 1000, elapsed: 0.0005049705505371094
ell 999, elapsed: 0.0005321502685546875
ell 998, elapsed: 0.000476837158203125
ell 902, elapsed: 0.005424022674560547
ell 901, elapsed: 0.0005221366882324219
ell 900, elapsed: 0.0004620552062988281
ell 899, elapsed: 0.0004811286926269531
ell 898, elapsed: 0.00046515464782714844
ell 802, elapsed: 0.005534172058105469
ell 801, elapsed: 0.00041985511779785156
ell 800, elapsed: 0.00040721893310546875
ell 799, elapsed: 0.0003910064697265625
ell 798, elapsed: 0.00039196014404296875
ell 702, elapsed: 0.005444049835205078
ell 701, elapsed: 0.00044798851013183594
ell 700, elapsed: 0.0004150867462158203
ell 699, elapsed: 0.0004131793975830078
ell 698, elapsed: 0.0003991127014160156
ell 602, elapsed: 0.005357980728149414
ell 601, elapsed: 0.0004119873046875
ell 600, elapsed: 0.0004031658172607422
ell 599, elapsed: 0.00047206878662109375
ell 598, elapsed: 0.0004639625549316406
ell 502, elapsed: 0.005465984344482422
ell 501, elapsed: 0.0005459785461425781
ell 500, elapsed: 0.0005290508270263672
ell 499, elapsed: 0.0005049705505371094
ell 498, elapsed: 0.00048089027404785156
ell 402, elapsed: 0.005530118942260742
ell 401, elapsed: 0.00039887428283691406
ell 400, elapsed: 0.0006668567657470703
ell 399, elapsed: 0.00039887428283691406
ell 398, elapsed: 0.00038909912109375
ell 302, elapsed: 0.00554203987121582
ell 301, elapsed: 0.0003960132598876953
ell 300, elapsed: 0.00038814544677734375
ell 299, elapsed: 0.0006392002105712891
ell 298, elapsed: 0.0003838539123535156
ell 202, elapsed: 0.005570888519287109
ell 201, elapsed: 0.0003941059112548828
ell 200, elapsed: 0.0003809928894042969
ell 199, elapsed: 0.0003829002380371094
ell 198, elapsed: 0.0006530284881591797
ell 152, elapsed: 0.002758026123046875
ell 151, elapsed: 0.0003771781921386719
ell 150, elapsed: 0.000701904296875
ell 149, elapsed: 0.0004267692565917969
ell 148, elapsed: 0.00037789344787597656
ell 127, elapsed: 0.0014519691467285156
ell 126, elapsed: 0.0003409385681152344
ell 125, elapsed: 0.0003681182861328125
ell 124, elapsed: 0.0004570484161376953
ell 123, elapsed: 0.0003349781036376953
ell 114, elapsed: 0.0008139610290527344
ell 113, elapsed: 0.0003361701965332031
ell 112, elapsed: 0.00033593177795410156
ell 111, elapsed: 0.0003428459167480469
ell 110, elapsed: 0.00033283233642578125
ell 102, elapsed: 0.0007579326629638672
ell 101, elapsed: 0.00041103363037109375
ell 100, elapsed: 0.00037598609924316406
ell 99, elapsed: 0.00039386749267578125
ell 98, elapsed: 0.00034117698669433594
ell 97, elapsed: 0.0004401206970214844
ell 96, elapsed: 0.0004649162292480469
ell 95, elapsed: 0.0004439353942871094
ell 94, elapsed: 0.00045490264892578125
ell 93, elapsed: 0.00040078163146972656
ell 92, elapsed: 0.0005171298980712891
ell 91, elapsed: 0.0004711151123046875
ell 90, elapsed: 0.00043010711669921875
ell 89, elapsed: 0.00045180320739746094
ell 88, elapsed: 0.00044918060302734375
ell 87, elapsed: 0.00044083595275878906
ell 86, elapsed: 0.0004429817199707031
ell 85, elapsed: 0.00044989585876464844
ell 84, elapsed: 0.0005390644073486328
ell 83, elapsed: 0.00043702125549316406
ell 82, elapsed: 0.00044608116149902344
ell 81, elapsed: 0.00042700767517089844
ell 80, elapsed: 0.0004470348358154297
ell 79, elapsed: 0.0004429817199707031
ell 78, elapsed: 0.0004429817199707031
ell 77, elapsed: 0.0004420280456542969
ell 76, elapsed: 0.0006539821624755859
ell 75, elapsed: 0.0004229545593261719
ell 74, elapsed: 0.0004360675811767578
ell 73, elapsed: 0.0004429817199707031
ell 72, elapsed: 0.0004489421844482422
ell 71, elapsed: 0.00040912628173828125
ell 70, elapsed: 0.00039887428283691406
ell 69, elapsed: 0.0003960132598876953
ell 68, elapsed: 0.00039315223693847656
ell 67, elapsed: 0.00039887428283691406
ell 66, elapsed: 0.0004019737243652344
ell 65, elapsed: 0.0003979206085205078
ell 64, elapsed: 0.0004019737243652344
ell 63, elapsed: 0.0003960132598876953
ell 62, elapsed: 0.0004000663757324219
ell 61, elapsed: 0.00039315223693847656
ell 60, elapsed: 0.0003941059112548828
ell 59, elapsed: 0.00039696693420410156
ell 58, elapsed: 0.00047779083251953125
ell 57, elapsed: 0.0004401206970214844
ell 56, elapsed: 0.0004508495330810547
ell 55, elapsed: 0.0004570484161376953
ell 54, elapsed: 0.0004639625549316406
ell 53, elapsed: 0.00047087669372558594
ell 52, elapsed: 0.00046706199645996094
ell 51, elapsed: 0.0004448890686035156
ell 50, elapsed: 0.0005130767822265625
ell 49, elapsed: 0.0003960132598876953
ell 48, elapsed: 0.00039196014404296875
ell 47, elapsed: 0.0004069805145263672
ell 46, elapsed: 0.0003979206085205078
ell 45, elapsed: 0.0004220008850097656
ell 44, elapsed: 0.0004570484161376953
ell 43, elapsed: 0.0004420280456542969
ell 42, elapsed: 0.0003991127014160156
ell 41, elapsed: 0.0004420280456542969
ell 40, elapsed: 0.00045108795166015625
ell 39, elapsed: 0.00045299530029296875
ell 38, elapsed: 0.0004489421844482422
ell 37, elapsed: 0.00044798851013183594
ell 36, elapsed: 0.0004520416259765625
ell 35, elapsed: 0.0004470348358154297
ell 34, elapsed: 0.00040221214294433594
ell 33, elapsed: 0.0005180835723876953
ell 32, elapsed: 0.0004520416259765625
ell 31, elapsed: 0.0004439353942871094
ell 30, elapsed: 0.00045490264892578125
ell 29, elapsed: 0.00044989585876464844
ell 28, elapsed: 0.0004570484161376953
ell 27, elapsed: 0.0004630088806152344
ell 26, elapsed: 0.0004611015319824219
ell 25, elapsed: 0.0006110668182373047
ell 24, elapsed: 0.0005049705505371094
ell 23, elapsed: 0.0004799365997314453
ell 22, elapsed: 0.0005009174346923828
ell 21, elapsed: 0.00044083595275878906
ell 20, elapsed: 0.00044989585876464844
ell 19, elapsed: 0.0004191398620605469
ell 18, elapsed: 0.00042700767517089844
ell 17, elapsed: 0.0004508495330810547
ell 16, elapsed: 0.0004291534423828125
ell 15, elapsed: 0.0004429817199707031
ell 14, elapsed: 0.00045108795166015625
ell 13, elapsed: 0.0004429817199707031
ell 12, elapsed: 0.0004489421844482422
ell 11, elapsed: 0.0004401206970214844
ell 10, elapsed: 0.0006308555603027344
ell 9, elapsed: 0.0003719329833984375
ell 8, elapsed: 0.0004138946533203125
ell 7, elapsed: 0.0004429817199707031
ell 6, elapsed: 0.00040912628173828125
ell 5, elapsed: 0.0004010200500488281
ell 4, elapsed: 0.0004439353942871094
ell 3, elapsed: 0.0004520416259765625
ell 2, elapsed: 0.0006120204925537109
ell 1, elapsed: 0.00046896934509277344
ell 0, elapsed: 0.0004589557647705078
  0.138575 seconds (11.51 k allocations: 719.594 KiB)
elapsed: 0.0005199909210205078
step:          0.060549 sec (0 allocations: 0 byte, 0.0% gc time)
swapping:      0.000489 sec (0 allocations: 0 byte, 0.0% gc time)
calc_Mellell!: 0.001452 sec (0 allocations: 0 byte, 0.0% gc time)
  t0 :  0.000343 sec (0 allocations: 0 byte, 0.0% gc time)
  tm2 : 0.013193 sec (0 allocations: 0 byte, 0.0% gc time)
  tm2s: 0.000289 sec (0 allocations: 0 byte, 0.0% gc time)
  tm4 : 0.035927 sec (0 allocations: 0 byte, 0.0% gc time)
  tp2 : 0.0 sec (0 allocations: 0 byte, 0.0% gc time)
  tp2s: 0.0 sec (0 allocations: 0 byte, 0.0% gc time)
  tp4 : 0.0 sec (0 allocations: 0 byte, 0.0% gc time)
calc_wtdll!:   0.050639 sec (1.344 k allocations: 147.0 KB, 0.0% gc time)
calc_wljj!:    0.00382 sec (6 allocations: 96 byte, 0.0% gc time)
mult_prefac!:  0.0 sec (0 allocations: 0 byte, 0.0% gc time)
convert:       0.0 sec (0 allocations: 0 byte, 0.0% gc time)
write:         0.004243 sec (0 allocations: 0 byte, 0.0% gc time)
test_rand_2f1: 0.0 sec (0 allocations: 0 byte, 0.0% gc time)
Closing outfile out/Ml21-cache.bin...   0.000005 seconds
  0.000724 seconds (36 allocations: 27.953 KiB)
make_phi():   0.002811 seconds (8.18 k allocations: 237.844 KiB)
  0.018948 seconds (11.65 k allocations: 308.688 KiB)
tskip:       2.5e-5 sec (0 allocations: 0 byte, 0.0% gc time)
tread:       0.002962 sec (17 allocations: 2.125 KB, 0.0% gc time)
tmultphi:    0.00183 sec (0 allocations: 0 byte, 0.0% gc time)
tbrfft:      0.004337 sec (0 allocations: 0 byte, 0.0% gc time)
tmultprefac: 0.003773 sec (0 allocations: 0 byte, 0.0% gc time)
toutfunc:    0.005522 sec (10.304 k allocations: 196.0 KB, 0.0% gc time)
Testing R=0.9 ... passed
Calculating fmax: 
  dlrec    = 4
  dlrecRg1 = -4
  q=1.1, R=0.8:	  0.453349 seconds (103.25 k allocations: 14.856 MiB)

  0.454594 seconds (103.30 k allocations: 14.890 MiB)
ℓ = 1202
Δℓ = 4
ΔℓRg1 = -4
N = 1600
q = 1.1
kmin = 1.0e-5
kmax = 100000.00000000004
χ0 = 0.023029999999999995
RR = RR.tsv
ℓmax = ℓmax.bin
f21 = f21.bin
kmin = 1.0e-5
kmax = 100000.0
dlrec    = 4
dlrecRg1 = -4
Output size: 5741568 bytes = 0.005347251892089844 GiB
Output size: 51264 bytes = 4.774332046508789e-5 GiB
Reading 'out/F21EllCache'...   0.001607 seconds (197 allocations: 84.203 KiB)
ellmax: 1202
lmaxcache: 1202
fell[:,1,1] = ComplexF64[7.519068145690986e-120 - 1.8416405474382574e-135im, 7.541664537386155e-120 - 1.847175067190611e-135im]
ell 1202, elapsed: 0.00017309188842773438
ell 1201, elapsed: 0.0008409023284912109
ell 1200, elapsed: 0.0006091594696044922
ell 1199, elapsed: 0.0005948543548583984
ell 1198, elapsed: 0.0006129741668701172
ell 1002, elapsed: 0.011365890502929688
ell 1001, elapsed: 0.0005748271942138672
ell 1000, elapsed: 0.0005650520324707031
ell 999, elapsed: 0.0005609989166259766
ell 998, elapsed: 0.0006120204925537109
ell 902, elapsed: 0.006715059280395508
ell 901, elapsed: 0.0005881786346435547
ell 900, elapsed: 0.0005719661712646484
ell 899, elapsed: 0.0005588531494140625
ell 898, elapsed: 0.0005629062652587891
ell 802, elapsed: 0.005861043930053711
ell 801, elapsed: 0.0005030632019042969
ell 800, elapsed: 0.0005390644073486328
ell 799, elapsed: 0.0005030632019042969
ell 798, elapsed: 0.0005040168762207031
ell 702, elapsed: 0.0067288875579833984
ell 701, elapsed: 0.0008649826049804688
ell 700, elapsed: 0.0006411075592041016
ell 699, elapsed: 0.0009481906890869141
ell 698, elapsed: 0.0009500980377197266
ell 602, elapsed: 0.007483005523681641
ell 601, elapsed: 0.0011029243469238281
ell 600, elapsed: 0.0010800361633300781
ell 599, elapsed: 0.0010840892791748047
ell 598, elapsed: 0.0009469985961914062
ell 502, elapsed: 0.008867025375366211
ell 501, elapsed: 0.0008339881896972656
ell 500, elapsed: 0.0005819797515869141
ell 499, elapsed: 0.000637054443359375
ell 498, elapsed: 0.0006330013275146484
ell 402, elapsed: 0.011395931243896484
ell 401, elapsed: 0.0005340576171875
ell 400, elapsed: 0.0005431175231933594
ell 399, elapsed: 0.0005388259887695312
ell 398, elapsed: 0.0005588531494140625
ell 302, elapsed: 0.008418083190917969
ell 301, elapsed: 0.0010540485382080078
ell 300, elapsed: 0.0008399486541748047
ell 299, elapsed: 0.0005869865417480469
ell 298, elapsed: 0.0005841255187988281
ell 202, elapsed: 0.008894920349121094
ell 201, elapsed: 0.0005810260772705078
ell 200, elapsed: 0.0008721351623535156
ell 199, elapsed: 0.0003731250762939453
ell 198, elapsed: 0.0004429817199707031
ell 152, elapsed: 0.0031371116638183594
ell 151, elapsed: 0.0005450248718261719
ell 150, elapsed: 0.0006220340728759766
ell 149, elapsed: 0.0006229877471923828
ell 148, elapsed: 0.0007739067077636719
ell 127, elapsed: 0.0016050338745117188
ell 126, elapsed: 0.00043082237243652344
ell 125, elapsed: 0.0004520416259765625
ell 124, elapsed: 0.0005381107330322266
ell 123, elapsed: 0.0007271766662597656
ell 114, elapsed: 0.0009238719940185547
ell 113, elapsed: 0.0003669261932373047
ell 112, elapsed: 0.0004019737243652344
ell 111, elapsed: 0.0004150867462158203
ell 110, elapsed: 0.00043320655822753906
ell 102, elapsed: 0.0009958744049072266
ell 101, elapsed: 0.00041985511779785156
ell 100, elapsed: 0.0004229545593261719
ell 99, elapsed: 0.0004191398620605469
ell 98, elapsed: 0.0004210472106933594
ell 97, elapsed: 0.0004899501800537109
ell 96, elapsed: 0.0004611015319824219
ell 95, elapsed: 0.0004551410675048828
ell 94, elapsed: 0.0004439353942871094
ell 93, elapsed: 0.0004558563232421875
ell 92, elapsed: 0.0004439353942871094
ell 91, elapsed: 0.0004448890686035156
ell 90, elapsed: 0.0004520416259765625
ell 89, elapsed: 0.0004420280456542969
ell 88, elapsed: 0.0005049705505371094
ell 87, elapsed: 0.0006711483001708984
ell 86, elapsed: 0.0007550716400146484
ell 85, elapsed: 0.0005440711975097656
ell 84, elapsed: 0.0004889965057373047
ell 83, elapsed: 0.0004799365997314453
ell 82, elapsed: 0.0005090236663818359
ell 81, elapsed: 0.0004820823669433594
ell 80, elapsed: 0.0004928112030029297
ell 79, elapsed: 0.0004889965057373047
ell 78, elapsed: 0.0004839897155761719
ell 77, elapsed: 0.0004961490631103516
ell 76, elapsed: 0.0004940032958984375
ell 75, elapsed: 0.0004851818084716797
ell 74, elapsed: 0.00049591064453125
ell 73, elapsed: 0.0006728172302246094
ell 72, elapsed: 0.0007350444793701172
ell 71, elapsed: 0.0007059574127197266
ell 70, elapsed: 0.0005249977111816406
ell 69, elapsed: 0.0004918575286865234
ell 68, elapsed: 0.000431060791015625
ell 67, elapsed: 0.00042319297790527344
ell 66, elapsed: 0.0004220008850097656
ell 65, elapsed: 0.00044798851013183594
ell 64, elapsed: 0.0004870891571044922
ell 63, elapsed: 0.0004458427429199219
ell 62, elapsed: 0.0004780292510986328
ell 61, elapsed: 0.0004911422729492188
ell 60, elapsed: 0.0004649162292480469
ell 59, elapsed: 0.0004699230194091797
ell 58, elapsed: 0.0004801750183105469
ell 57, elapsed: 0.00047516822814941406
ell 56, elapsed: 0.0004601478576660156
ell 55, elapsed: 0.0004811286926269531
[...]
ell 782, elapsed: 0.0014269351959228516
ell 781, elapsed: 0.0007581710815429688
ell 780, elapsed: 0.0010418891906738281
ell 779, elapsed: 0.0007729530334472656
ell 778, elapsed: 0.0007548332214355469
ell 772, elapsed: 0.0015079975128173828
ell 771, elapsed: 0.0018188953399658203
ell 770, elapsed: 0.0007619857788085938
ell 769, elapsed: 0.0007472038269042969
ell 768, elapsed: 0.0007669925689697266
ell 762, elapsed: 0.0015189647674560547
ell 761, elapsed: 0.0009338855743408203
ell 760, elapsed: 0.0007600784301757812
ell 759, elapsed: 0.0016980171203613281
ell 758, elapsed: 0.0007679462432861328
ell 752, elapsed: 0.0014491081237792969
ell 751, elapsed: 0.0008308887481689453
ell 750, elapsed: 0.0007929801940917969
ell 749, elapsed: 0.0007600784301757812
ell 748, elapsed: 0.0007560253143310547
ell 742, elapsed: 0.0014300346374511719
ell 741, elapsed: 0.001027822494506836
ell 740, elapsed: 0.0007770061492919922
ell 739, elapsed: 0.0008461475372314453
ell 738, elapsed: 0.0007569789886474609
ell 732, elapsed: 0.0014882087707519531
ell 731, elapsed: 0.0007600784301757812
ell 730, elapsed: 0.0007610321044921875
ell 729, elapsed: 0.0007569789886474609
ell 728, elapsed: 0.0007519721984863281
ell 722, elapsed: 0.001535177230834961
ell 721, elapsed: 0.0007541179656982422
ell 720, elapsed: 0.0007660388946533203
ell 719, elapsed: 0.0007538795471191406
ell 718, elapsed: 0.0008499622344970703
ell 712, elapsed: 0.0014338493347167969
ell 711, elapsed: 0.0007529258728027344
ell 710, elapsed: 0.0007572174072265625
ell 709, elapsed: 0.0008308887481689453
ell 708, elapsed: 0.0007610321044921875
ell 702, elapsed: 0.00150299072265625
ell 701, elapsed: 0.0007421970367431641
ell 700, elapsed: 0.0007970333099365234
ell 699, elapsed: 0.0006649494171142578
ell 698, elapsed: 0.0006768703460693359
ell 692, elapsed: 0.0011899471282958984
ell 691, elapsed: 0.0006620883941650391
ell 690, elapsed: 0.0007560253143310547
ell 689, elapsed: 0.0006561279296875
ell 688, elapsed: 0.000743865966796875
ell 682, elapsed: 0.0013880729675292969
ell 681, elapsed: 0.0008971691131591797
ell 680, elapsed: 0.0007572174072265625
ell 679, elapsed: 0.0007519721984863281
ell 678, elapsed: 0.0007588863372802734
ell 672, elapsed: 0.0015521049499511719
ell 671, elapsed: 0.0007781982421875
ell 670, elapsed: 0.0007579326629638672
ell 669, elapsed: 0.0007510185241699219
ell 668, elapsed: 0.000762939453125
ell 662, elapsed: 0.0015010833740234375
ell 661, elapsed: 0.0007560253143310547
ell 660, elapsed: 0.0007560253143310547
ell 659, elapsed: 0.0007560253143310547
ell 658, elapsed: 0.0008690357208251953
ell 652, elapsed: 0.0014150142669677734
ell 651, elapsed: 0.0007510185241699219
ell 650, elapsed: 0.0007598400115966797
ell 649, elapsed: 0.0008561611175537109
ell 648, elapsed: 0.0007600784301757812
ell 642, elapsed: 0.0014319419860839844
ell 641, elapsed: 0.0007569789886474609
ell 640, elapsed: 0.0009729862213134766
ell 639, elapsed: 0.0007519721984863281
ell 638, elapsed: 0.0007560253143310547
ell 632, elapsed: 0.0014309883117675781
ell 631, elapsed: 0.0007538795471191406
ell 630, elapsed: 0.0007669925689697266
ell 629, elapsed: 0.0007569789886474609
ell 628, elapsed: 0.0007469654083251953
ell 622, elapsed: 0.0013828277587890625
ell 621, elapsed: 0.0008640289306640625
ell 620, elapsed: 0.0007588863372802734
ell 619, elapsed: 0.0007519721984863281
ell 618, elapsed: 0.0007519721984863281
ell 612, elapsed: 0.0015549659729003906
ell 611, elapsed: 0.0007619857788085938
ell 610, elapsed: 0.0007579326629638672
ell 609, elapsed: 0.0007469654083251953
ell 608, elapsed: 0.0007569789886474609
ell 602, elapsed: 0.0015521049499511719
ell 601, elapsed: 0.0007739067077636719
ell 600, elapsed: 0.000759124755859375
ell 599, elapsed: 0.0007550716400146484
ell 598, elapsed: 0.0008599758148193359
ell 592, elapsed: 0.0015158653259277344
ell 591, elapsed: 0.0007600784301757812
ell 590, elapsed: 0.0007579326629638672
ell 589, elapsed: 0.0008950233459472656
ell 588, elapsed: 0.0007638931274414062
ell 582, elapsed: 0.001399993896484375
ell 581, elapsed: 0.0007510185241699219
ell 580, elapsed: 0.0008499622344970703
ell 579, elapsed: 0.0007488727569580078
ell 578, elapsed: 0.0007488727569580078
ell 572, elapsed: 0.0014209747314453125
ell 571, elapsed: 0.000843048095703125
ell 570, elapsed: 0.0007739067077636719
ell 569, elapsed: 0.0007560253143310547
ell 568, elapsed: 0.0007760524749755859
ell 562, elapsed: 0.001394033432006836
ell 561, elapsed: 0.0007569789886474609
ell 560, elapsed: 0.0007510185241699219
ell 559, elapsed: 0.0007469654083251953
ell 558, elapsed: 0.0007498264312744141
ell 552, elapsed: 0.001435995101928711
ell 551, elapsed: 0.0007560253143310547
ell 550, elapsed: 0.0007519721984863281
ell 549, elapsed: 0.0007472038269042969
ell 548, elapsed: 0.0007550716400146484
ell 542, elapsed: 0.0014560222625732422
ell 541, elapsed: 0.0007488727569580078
ell 540, elapsed: 0.0007491111755371094
ell 539, elapsed: 0.00074005126953125
ell 538, elapsed: 0.0008039474487304688
ell 532, elapsed: 0.001405954360961914
ell 531, elapsed: 0.0007460117340087891
ell 530, elapsed: 0.0007548332214355469
ell 529, elapsed: 0.0007991790771484375
ell 528, elapsed: 0.0007569789886474609
ell 522, elapsed: 0.0014729499816894531
ell 521, elapsed: 0.0007658004760742188
ell 520, elapsed: 0.0008120536804199219
ell 519, elapsed: 0.0007550716400146484
ell 518, elapsed: 0.0007569789886474609
ell 512, elapsed: 0.0014820098876953125
ell 511, elapsed: 0.0007719993591308594
ell 510, elapsed: 0.0007529258728027344
ell 509, elapsed: 0.0007479190826416016
ell 508, elapsed: 0.0007491111755371094
ell 502, elapsed: 0.0013990402221679688
ell 501, elapsed: 0.0007731914520263672
ell 500, elapsed: 0.0007522106170654297
ell 499, elapsed: 0.0007560253143310547
ell 498, elapsed: 0.000759124755859375
ell 492, elapsed: 0.0014388561248779297
ell 491, elapsed: 0.0007519721984863281
ell 490, elapsed: 0.0007538795471191406
ell 489, elapsed: 0.0007531642913818359
ell 488, elapsed: 0.0007581710815429688
ell 482, elapsed: 0.0014348030090332031
ell 481, elapsed: 0.0007109642028808594
ell 480, elapsed: 0.0007040500640869141
ell 479, elapsed: 0.0007519721984863281
ell 478, elapsed: 0.0007898807525634766
ell 472, elapsed: 0.001416921615600586
ell 471, elapsed: 0.0007519721984863281
ell 470, elapsed: 0.0007560253143310547
ell 469, elapsed: 0.0007650852203369141
ell 468, elapsed: 0.0007619857788085938
ell 462, elapsed: 0.0014028549194335938
ell 461, elapsed: 0.0007889270782470703
ell 460, elapsed: 0.0007519721984863281
ell 459, elapsed: 0.0007660388946533203
ell 458, elapsed: 0.0007560253143310547
ell 452, elapsed: 0.0014078617095947266
ell 451, elapsed: 0.0007510185241699219
ell 450, elapsed: 0.0007710456848144531
ell 449, elapsed: 0.0007510185241699219
ell 448, elapsed: 0.0007579326629638672
ell 442, elapsed: 0.001405954360961914
ell 441, elapsed: 0.0007719993591308594
ell 440, elapsed: 0.0007600784301757812
ell 439, elapsed: 0.0007529258728027344
ell 438, elapsed: 0.0007529258728027344
ell 432, elapsed: 0.0013971328735351562
ell 431, elapsed: 0.0007519721984863281
ell 430, elapsed: 0.000759124755859375
ell 429, elapsed: 0.0007500648498535156
ell 428, elapsed: 0.0007569789886474609
ell 422, elapsed: 0.001508951187133789
ell 421, elapsed: 0.0007500648498535156
ell 420, elapsed: 0.0007519721984863281
ell 419, elapsed: 0.0007491111755371094
ell 418, elapsed: 0.0007572174072265625
ell 412, elapsed: 0.001499176025390625
ell 411, elapsed: 0.0007519721984863281
ell 410, elapsed: 0.0007500648498535156
ell 409, elapsed: 0.0007359981536865234
ell 408, elapsed: 0.00084686279296875
ell 402, elapsed: 0.001416921615600586
ell 401, elapsed: 0.0007510185241699219
ell 400, elapsed: 0.0007522106170654297
ell 399, elapsed: 0.0008249282836914062
ell 398, elapsed: 0.0007560253143310547
ell 392, elapsed: 0.0014100074768066406
ell 391, elapsed: 0.0007481575012207031
ell 390, elapsed: 0.0008339881896972656
ell 389, elapsed: 0.0007519721984863281
ell 388, elapsed: 0.0007498264312744141
ell 382, elapsed: 0.0014100074768066406
ell 381, elapsed: 0.0007550716400146484
ell 380, elapsed: 0.0007579326629638672
ell 379, elapsed: 0.0007457733154296875
ell 378, elapsed: 0.0007569789886474609
ell 372, elapsed: 0.00140380859375
ell 371, elapsed: 0.0008420944213867188
ell 370, elapsed: 0.0007550716400146484
ell 369, elapsed: 0.0007419586181640625
ell 368, elapsed: 0.0007541179656982422
ell 362, elapsed: 0.0015120506286621094
ell 361, elapsed: 0.0007560253143310547
ell 360, elapsed: 0.0007560253143310547
ell 359, elapsed: 0.000743865966796875
ell 358, elapsed: 0.0007531642913818359
ell 352, elapsed: 0.0015790462493896484
ell 351, elapsed: 0.0007529258728027344
ell 350, elapsed: 0.000823974609375
ell 349, elapsed: 0.0007948875427246094
ell 348, elapsed: 0.0008399486541748047
ell 342, elapsed: 0.0015060901641845703
ell 341, elapsed: 0.0007488727569580078
ell 340, elapsed: 0.0008208751678466797
ell 339, elapsed: 0.00084686279296875
ell 338, elapsed: 0.0007498264312744141
ell 332, elapsed: 0.0014910697937011719
ell 331, elapsed: 0.0007538795471191406
ell 330, elapsed: 0.0009171962738037109
ell 329, elapsed: 0.0007898807525634766
ell 328, elapsed: 0.0008261203765869141
ell 322, elapsed: 0.0014808177947998047
ell 321, elapsed: 0.0009100437164306641
ell 320, elapsed: 0.0008280277252197266
ell 319, elapsed: 0.0007910728454589844
ell 318, elapsed: 0.0007538795471191406
ell 312, elapsed: 0.0015900135040283203
ell 311, elapsed: 0.0008029937744140625
ell 310, elapsed: 0.0007998943328857422
ell 309, elapsed: 0.0007901191711425781
ell 308, elapsed: 0.0008740425109863281
ell 302, elapsed: 0.0015139579772949219
ell 301, elapsed: 0.0007519721984863281
ell 300, elapsed: 0.0008161067962646484
ell 299, elapsed: 0.0008549690246582031
ell 298, elapsed: 0.0007979869842529297
ell 292, elapsed: 0.0014758110046386719
ell 291, elapsed: 0.0007500648498535156
ell 290, elapsed: 0.0008540153503417969
ell 289, elapsed: 0.0008361339569091797
ell 288, elapsed: 0.0007607936859130859
ell 282, elapsed: 0.0013890266418457031
ell 281, elapsed: 0.0008769035339355469
ell 280, elapsed: 0.0007550716400146484
ell 279, elapsed: 0.0007507801055908203
ell 278, elapsed: 0.0007989406585693359
ell 272, elapsed: 0.0016298294067382812
ell 271, elapsed: 0.0007419586181640625
ell 270, elapsed: 0.0007541179656982422
ell 269, elapsed: 0.0007460117340087891
ell 268, elapsed: 0.0007548332214355469
ell 262, elapsed: 0.0015120506286621094
ell 261, elapsed: 0.0007481575012207031
ell 260, elapsed: 0.0007469654083251953
ell 259, elapsed: 0.0007448196411132812
ell 258, elapsed: 0.0008370876312255859
ell 252, elapsed: 0.0014197826385498047
ell 251, elapsed: 0.0007410049438476562
ell 250, elapsed: 0.0007488727569580078
ell 249, elapsed: 0.0007481575012207031
ell 248, elapsed: 0.0008459091186523438
ell 242, elapsed: 0.0014181137084960938
ell 241, elapsed: 0.0007419586181640625
ell 240, elapsed: 0.0007488727569580078
ell 239, elapsed: 0.0008370876312255859
ell 238, elapsed: 0.0007650852203369141
ell 232, elapsed: 0.0014109611511230469
ell 231, elapsed: 0.0007498264312744141
ell 230, elapsed: 0.0008420944213867188
ell 229, elapsed: 0.0007500648498535156
ell 228, elapsed: 0.0007538795471191406
ell 222, elapsed: 0.0014050006866455078
ell 221, elapsed: 0.0008258819580078125
ell 220, elapsed: 0.0007550716400146484
ell 219, elapsed: 0.0007481575012207031
ell 218, elapsed: 0.0007491111755371094
ell 212, elapsed: 0.0014810562133789062
ell 211, elapsed: 0.0007488727569580078
ell 210, elapsed: 0.0007510185241699219
ell 209, elapsed: 0.0007491111755371094
ell 208, elapsed: 0.0007469654083251953
ell 202, elapsed: 0.001477956771850586
ell 201, elapsed: 0.0007469654083251953
ell 200, elapsed: 0.0007600784301757812
ell 199, elapsed: 0.0007448196411132812
ell 198, elapsed: 0.0007472038269042969
ell 192, elapsed: 0.0014069080352783203
ell 191, elapsed: 0.0007619857788085938
ell 190, elapsed: 0.0007338523864746094
ell 189, elapsed: 0.0007290840148925781
ell 188, elapsed: 0.000820159912109375
ell 182, elapsed: 0.0013289451599121094
ell 181, elapsed: 0.0007398128509521484
ell 180, elapsed: 0.0007321834564208984
ell 179, elapsed: 0.0008091926574707031
ell 178, elapsed: 0.0007340908050537109
ell 172, elapsed: 0.0013709068298339844
ell 171, elapsed: 0.0007660388946533203
ell 170, elapsed: 0.0008139610290527344
ell 169, elapsed: 0.0007441043853759766
ell 168, elapsed: 0.0007410049438476562
ell 162, elapsed: 0.001399993896484375
ell 161, elapsed: 0.0008571147918701172
ell 160, elapsed: 0.0007660388946533203
ell 159, elapsed: 0.000720977783203125
ell 158, elapsed: 0.0007460117340087891
ell 152, elapsed: 0.0014181137084960938
ell 151, elapsed: 0.0008480548858642578
ell 150, elapsed: 0.0007278919219970703
ell 149, elapsed: 0.0007388591766357422
ell 148, elapsed: 0.000720977783203125
ell 142, elapsed: 0.0013289451599121094
ell 141, elapsed: 0.0007450580596923828
ell 140, elapsed: 0.0007150173187255859
ell 139, elapsed: 0.0006921291351318359
ell 138, elapsed: 0.0007588863372802734
ell 132, elapsed: 0.0014190673828125
ell 131, elapsed: 0.0007679462432861328
ell 130, elapsed: 0.0007348060607910156
ell 129, elapsed: 0.0007450580596923828
ell 128, elapsed: 0.0007410049438476562
ell 122, elapsed: 0.0014090538024902344
ell 121, elapsed: 0.0007770061492919922
ell 120, elapsed: 0.0008208751678466797
ell 119, elapsed: 0.0007619857788085938
ell 118, elapsed: 0.0007729530334472656
ell 112, elapsed: 0.00144195556640625
ell 111, elapsed: 0.0007560253143310547
ell 110, elapsed: 0.0007429122924804688
ell 109, elapsed: 0.0007510185241699219
ell 108, elapsed: 0.0007429122924804688
ell 102, elapsed: 0.0013599395751953125
ell 101, elapsed: 0.003331899642944336
ell 100, elapsed: 0.003339052200317383
ell 99, elapsed: 0.003158092498779297
ell 98, elapsed: 0.0030879974365234375
ell 92, elapsed: 0.005822896957397461
ell 91, elapsed: 0.003309965133666992
ell 90, elapsed: 0.003406047821044922
ell 89, elapsed: 0.0034301280975341797
ell 88, elapsed: 0.003420114517211914
ell 82, elapsed: 0.00611114501953125
ell 81, elapsed: 0.0033462047576904297
ell 80, elapsed: 0.003336191177368164
ell 79, elapsed: 0.0033380985260009766
ell 78, elapsed: 0.0033800601959228516
ell 72, elapsed: 0.006052970886230469
ell 71, elapsed: 0.0033609867095947266
ell 70, elapsed: 0.003345012664794922
ell 69, elapsed: 0.003342866897583008
ell 68, elapsed: 0.0032851696014404297
ell 62, elapsed: 0.0061419010162353516
ell 61, elapsed: 0.003410816192626953
ell 60, elapsed: 0.0033788681030273438
ell 59, elapsed: 0.003386974334716797
ell 58, elapsed: 0.0033218860626220703
ell 52, elapsed: 0.005939006805419922
ell 51, elapsed: 0.0031900405883789062
ell 50, elapsed: 0.003393888473510742
ell 49, elapsed: 0.003409862518310547
ell 48, elapsed: 0.003387928009033203
ell 42, elapsed: 0.006041049957275391
ell 41, elapsed: 0.0031888484954833984
ell 40, elapsed: 0.0033919811248779297
ell 39, elapsed: 0.0033991336822509766
ell 38, elapsed: 0.0032439231872558594
ell 32, elapsed: 0.006000041961669922
ell 31, elapsed: 0.0033638477325439453
ell 30, elapsed: 0.003412008285522461
ell 29, elapsed: 0.0031549930572509766
ell 28, elapsed: 0.0030930042266845703
ell 22, elapsed: 0.005653858184814453
ell 21, elapsed: 0.0033998489379882812
ell 20, elapsed: 0.0032579898834228516
ell 19, elapsed: 0.0032460689544677734
ell 18, elapsed: 0.0031578540802001953
ell 12, elapsed: 0.005973100662231445
ell 11, elapsed: 0.0032269954681396484
ell 10, elapsed: 0.003167867660522461
ell 9, elapsed: 0.0031778812408447266
ell 8, elapsed: 0.00341796875
  0.720922 seconds (68.56 k allocations: 12.176 MiB)
elapsed: 0.003874063491821289
step:          0.061795 sec (0 allocations: 0 byte, 0.0% gc time)
swapping:      0.000591 sec (0 allocations: 0 byte, 0.0% gc time)
calc_Mellell!: 0.046786 sec (0 allocations: 0 byte, 0.0% gc time)
  t0 :  0.009029 sec (0 allocations: 0 byte, 0.0% gc time)
  tm2 : 0.070681 sec (0 allocations: 0 byte, 0.0% gc time)
  tm2s: 0.007144 sec (0 allocations: 0 byte, 0.0% gc time)
  tm4 : 0.171204 sec (0 allocations: 0 byte, 0.0% gc time)
  tp2 : 0.0 sec (0 allocations: 0 byte, 0.0% gc time)
  tp2s: 0.0 sec (0 allocations: 0 byte, 0.0% gc time)
  tp4 : 0.0 sec (0 allocations: 0 byte, 0.0% gc time)
calc_wtdll!:   0.506932 sec (48.6 k allocations: 11.096 MB, 0.0% gc time)
calc_wljj!:    0.037181 sec (69 allocations: 1.078 KB, 0.0% gc time)
mult_prefac!:  0.0 sec (0 allocations: 0 byte, 0.0% gc time)
convert:       0.0 sec (0 allocations: 0 byte, 0.0% gc time)
write:         0.032552 sec (0 allocations: 0 byte, 0.0% gc time)
test_rand_2f1: 0.0 sec (0 allocations: 0 byte, 0.0% gc time)
Closing outfile out/MlCache/MlCache.bin...   0.000006 seconds
xi, l=0, nu=0:   0.369518 seconds (602.96 k allocations: 32.977 MiB, 7.11% gc time, 99.36% compilation time)
xi, l=0, nu=-2:  0.002237 seconds (114 allocations: 148.969 KiB)
Created 'out/xi.tsv'.
  q=1.1, R=0.6:	  0.840405 seconds (264.51 k allocations: 38.097 MiB, 2.82% gc time)
  q=1.1, R=0.7:	  0.854331 seconds (276.48 k allocations: 40.118 MiB, 1.49% gc time)
  q=1.1, R=0.8:	  1.129464 seconds (271.73 k allocations: 39.310 MiB, 0.85% gc time)
  q=1.1, R=0.9:	  1.148553 seconds (266.62 k allocations: 38.459 MiB)
  q=1.1, R=0.998:	 20.524084 seconds (125.80 k allocations: 8.263 MiB, 0.24% gc time, 0.15% compilation time)
  q=1.1, R=1.0:	  0.003797 seconds (8.20 k allocations: 704.344 KiB)

ℓ = 1000
Δℓ = 4
ΔℓRg1 = -4
N = 4096
q = 1.1
kmin = 1.0e-5
kmax = 1000.0
χ0 = 0.001
RR = RR.tsv
ℓmax = ℓmax.bin
f21 = f21.bin
kmin = 1.0e-5
kmax = 1000.0
dlrec    = 4
dlrecRg1 = -4
Output size: 1573632 bytes = 0.0014655590057373047 GiB
Output size: 786816 bytes = 0.0007327795028686523 GiB
Reading 'out/F21EllCache'...   0.001374 seconds (198 allocations: 533.078 KiB)
ellmax: 1002
lmaxcache: 1000
fell[:,1,1] = ComplexF64[1.726292812820208e-224 - 4.2281979352226965e-240im, 1.7282693092099638e-224 - 4.233038955177178e-240im]
ell 1002, elapsed: 6.103515625e-5
ell 1001, elapsed: 0.0007669925689697266
ell 1000, elapsed: 0.0007550716400146484
ell 999, elapsed: 0.005529880523681641
ell 998, elapsed: 0.005081892013549805
ell 44, elapsed: 0.7091219425201416
ell 43, elapsed: 0.0051021575927734375
ell 42, elapsed: 0.005052089691162109
ell 41, elapsed: 0.005063056945800781
ell 40, elapsed: 0.005053043365478516
  0.748695 seconds (4.59 k allocations: 321.938 KiB)
elapsed: 0.0061991214752197266
step:          0.7068 sec (0 allocations: 0 byte, 0.0% gc time)
swapping:      0.000457 sec (0 allocations: 0 byte, 0.0% gc time)
calc_Mellell!: 0.001234 sec (0 allocations: 0 byte, 0.0% gc time)
  t0 :  0.000318 sec (0 allocations: 0 byte, 0.0% gc time)
  tm2 : 0.008921 sec (0 allocations: 0 byte, 0.0% gc time)
  tm2s: 0.000233 sec (0 allocations: 0 byte, 0.0% gc time)
  tm4 : 0.024897 sec (0 allocations: 0 byte, 0.0% gc time)
  tp2 : 0.0 sec (0 allocations: 0 byte, 0.0% gc time)
  tp2s: 0.0 sec (0 allocations: 0 byte, 0.0% gc time)
  tp4 : 0.0 sec (0 allocations: 0 byte, 0.0% gc time)
calc_wtdll!:   0.034535 sec (480 allocations: 52.5 KB, 0.0% gc time)
calc_wljj!:    0.001123 sec (1 allocations: 16 byte, 0.0% gc time)
mult_prefac!:  0.0 sec (0 allocations: 0 byte, 0.0% gc time)
convert:       0.0 sec (0 allocations: 0 byte, 0.0% gc time)
write:         0.000913 sec (0 allocations: 0 byte, 0.0% gc time)
test_rand_2f1: 0.0 sec (0 allocations: 0 byte, 0.0% gc time)
Closing outfile out/MlCache/MlCache.bin...   0.000008 seconds
  0.525783 seconds (38 allocations: 66.859 KiB)
make_phi():   0.007826 seconds (65 allocations: 275.984 KiB)
  0.051741 seconds (11.42 k allocations: 711.960 KiB, 88.74% compilation time)
tskip:       1.0e-6 sec (0 allocations: 0 byte, 0.0% gc time)
tread:       0.000966 sec (17 allocations: 1.266 KB, 0.0% gc time)
tmultphi:    0.000553 sec (0 allocations: 0 byte, 0.0% gc time)
tbrfft:      0.001532 sec (0 allocations: 0 byte, 0.0% gc time)
tmultprefac: 0.001294 sec (0 allocations: 0 byte, 0.0% gc time)
toutfunc:    0.000181 sec (0 allocations: 0 byte, 0.0% gc time)
Created 'out/wl42_jj00.tsv'.
Created 'out/wl42_jj02.tsv'.
    Testing TwoFAST tests passed 
