Julia Version 1.5.0-DEV.773
Commit e3f91bd494 (2020-05-01 17:06 UTC)
Platform Info:
  OS: Linux (x86_64-linux-gnu)
  CPU: Intel(R) Xeon(R) Silver 4114 CPU @ 2.20GHz
  WORD_SIZE: 64
  LIBM: libopenlibm
  LLVM: libLLVM-9.0.1 (ORCJIT, skylake)
Environment:
  JULIA_DEPOT_PATH = ::/usr/local/share/julia
  JULIA_NUM_THREADS = 2

  Resolving package versions...
  Installed MKL_jll ────────────────────── v2019.0.117+2
  Installed IntelOpenMP_jll ────────────── v2018.0.3+0
  Installed FFTW_jll ───────────────────── v3.3.9+5
  Installed Reexport ───────────────────── v0.2.0
  Installed AbstractFFTs ───────────────── v0.5.0
  Installed BinaryProvider ─────────────── v0.5.9
  Installed Nemo ───────────────────────── v0.17.5
  Installed LoadFlint ──────────────────── v0.1.3
  Installed CompilerSupportLibraries_jll ─ v0.3.3+0
  Installed SpecialFunctions ───────────── v0.10.0
  Installed TwoFAST ────────────────────── v0.1.1
  Installed OpenSpecFun_jll ────────────── v0.5.3+3
  Installed FFTW ───────────────────────── v1.2.1
  Installed AbstractAlgebra ────────────── v0.9.1
Updating `~/.julia/environments/v1.5/Project.toml`
  [0dd23c3e] + TwoFAST v0.1.1
Updating `~/.julia/environments/v1.5/Manifest.toml`
  [c3fe647b] + AbstractAlgebra v0.9.1
  [621f4979] + AbstractFFTs v0.5.0
  [b99e7846] + BinaryProvider v0.5.9
  [e66e0078] + CompilerSupportLibraries_jll v0.3.3+0
  [7a1cc6ca] + FFTW v1.2.1
  [f5851436] + FFTW_jll v3.3.9+5
  [1d5cc7b8] + IntelOpenMP_jll v2018.0.3+0
  [472f376f] + LoadFlint v0.1.3
  [856f044c] + MKL_jll v2019.0.117+2
  [2edaba10] + Nemo v0.17.5
  [efe28fd5] + OpenSpecFun_jll v0.5.3+3
  [189a3867] + Reexport v0.2.0
  [276daf66] + SpecialFunctions v0.10.0
  [0dd23c3e] + TwoFAST v0.1.1
  [2a0f44e3] + Base64
  [ade2ca70] + Dates
  [8bb1440f] + DelimitedFiles
  [8ba89e20] + Distributed
  [b77e0a4c] + InteractiveUtils
  [76f85450] + LibGit2
  [8f399da3] + Libdl
  [37e2e46d] + LinearAlgebra
  [56ddb016] + Logging
  [d6f4376e] + Markdown
  [a63ad114] + Mmap
  [44cfe95a] + Pkg
  [de0858da] + Printf
  [3fa0cd96] + REPL
  [9a3f8284] + Random
  [ea8e919c] + SHA
  [9e88b42a] + Serialization
  [6462fe0b] + Sockets
  [2f01184e] + SparseArrays
  [8dfed614] + Test
  [cf7118a7] + UUIDs
  [4ec0a83e] + Unicode
   Building LoadFlint → `~/.julia/packages/LoadFlint/42zpR/deps/build.log`
   Building Nemo ─────→ `~/.julia/packages/Nemo/Pc5ui/deps/build.log`
   Building FFTW ─────→ `~/.julia/packages/FFTW/5DZuu/deps/build.log`
    Testing TwoFAST
Status `/tmp/jl_4yQhEi/Project.toml`
  [39dd38d3] Dierckx v0.4.1
  [7a1cc6ca] FFTW v1.2.1
  [2edaba10] Nemo v0.17.5
  [276daf66] SpecialFunctions v0.10.0
  [0dd23c3e] TwoFAST v0.1.1
  [8bb1440f] DelimitedFiles
  [37e2e46d] LinearAlgebra
  [56ddb016] Logging
  [8dfed614] Test
Status `/tmp/jl_4yQhEi/Manifest.toml`
  [c3fe647b] AbstractAlgebra v0.9.1
  [621f4979] AbstractFFTs v0.5.0
  [b99e7846] BinaryProvider v0.5.9
  [e66e0078] CompilerSupportLibraries_jll v0.3.3+0
  [39dd38d3] Dierckx v0.4.1
  [7a1cc6ca] FFTW v1.2.1
  [f5851436] FFTW_jll v3.3.9+5
  [1d5cc7b8] IntelOpenMP_jll v2018.0.3+0
  [472f376f] LoadFlint v0.1.3
  [856f044c] MKL_jll v2019.0.117+2
  [2edaba10] Nemo v0.17.5
  [efe28fd5] OpenSpecFun_jll v0.5.3+3
  [189a3867] Reexport v0.2.0
  [276daf66] SpecialFunctions v0.10.0
  [0dd23c3e] TwoFAST v0.1.1
  [2a0f44e3] Base64
  [ade2ca70] Dates
  [8bb1440f] DelimitedFiles
  [8ba89e20] Distributed
  [b77e0a4c] InteractiveUtils
  [76f85450] LibGit2
  [8f399da3] Libdl
  [37e2e46d] LinearAlgebra
  [56ddb016] Logging
  [d6f4376e] Markdown
  [a63ad114] Mmap
  [44cfe95a] Pkg
  [de0858da] Printf
  [3fa0cd96] REPL
  [9a3f8284] Random
  [ea8e919c] SHA
  [9e88b42a] Serialization
  [6462fe0b] Sockets
  [2f01184e] SparseArrays
  [8dfed614] Test
  [cf7118a7] UUIDs
  [4ec0a83e] Unicode
Testing ξ(r), ℓ=0, ν=-1 ... passed
Testing ξ(r), ℓ=0, ν=0 ... passed
Testing ξ(r), ℓ=0, ν=1 ... passed
Testing ξ(r), ℓ=0, ν=2 ... passed
Testing ξ(r), ℓ=0, ν=3 ... passed
Testing ξ(r), ℓ=1, ν=0 ... passed
Testing ξ(r), ℓ=1, ν=1 ... passed
Testing ξ(r), ℓ=1, ν=2 ... passed
Testing ξ(r), ℓ=1, ν=3 ... passed
Testing ξ(r), ℓ=2, ν=-1 ... passed
Testing ξ(r), ℓ=2, ν=0 ... passed
Testing ξ(r), ℓ=2, ν=1 ... passed
Testing ξ(r), ℓ=2, ν=2 ... passed
Testing ξ(r), ℓ=2, ν=3 ... passed
Testing ξ(r), ℓ=3, ν=-1 ... passed
Testing ξ(r), ℓ=3, ν=0 ... passed
Testing ξ(r), ℓ=3, ν=1 ... passed
Testing ξ(r), ℓ=3, ν=2 ... passed
Testing ξ(r), ℓ=3, ν=3 ... passed
Testing ξ(r), ℓ=4, ν=-1 ... passed
Testing ξ(r), ℓ=4, ν=0 ... passed
Testing ξ(r), ℓ=4, ν=1 ... passed
Testing ξ(r), ℓ=4, ν=2 ... passed
Testing ξ(r), ℓ=4, ν=3 ... passed
