Julia Version 1.6.0-DEV.988
Commit fafc0a4ee3* (2020-09-19 22:55 UTC)
Platform Info:
  OS: Linux (x86_64-pc-linux-gnu)
  CPU: Intel(R) Xeon(R) Silver 4114 CPU @ 2.20GHz
  WORD_SIZE: 64
  LIBM: libopenlibm
  LLVM: libLLVM-9.0.1 (ORCJIT, skylake-avx512)
Environment:
  JULIA_DEPOT_PATH = ::/usr/local/share/julia
  JULIA_NUM_THREADS = 2

  Resolving package versions...
  Installed Readables ──────────────────── v0.3.3
  Installed FFTW_jll ───────────────────── v3.3.9+5
  Installed AbstractFFTs ───────────────── v0.5.0
  Installed GenericSVD ─────────────────── v0.3.0
  Installed FFTW ───────────────────────── v1.2.4
  Installed GenericSchur ───────────────── v0.4.0
  Installed ArbNumerics ────────────────── v1.2.1
  Installed CompilerSupportLibraries_jll ─ v0.3.3+0
  Installed Reexport ───────────────────── v0.2.0
  Installed IntelOpenMP_jll ────────────── v2018.0.3+0
  Installed OpenSpecFun_jll ────────────── v0.5.3+3
  Installed MKL_jll ────────────────────── v2020.2.254+0
  Installed BinaryProvider ─────────────── v0.5.10
  Installed SpecialFunctions ───────────── v0.10.3
  Installed TwoFAST ────────────────────── v0.1.3
Updating `~/.julia/environments/v1.6/Project.toml`
  [0dd23c3e] + TwoFAST v0.1.3
Updating `~/.julia/environments/v1.6/Manifest.toml`
  [621f4979] + AbstractFFTs v0.5.0
  [7e558dbc] + ArbNumerics v1.2.1
  [b99e7846] + BinaryProvider v0.5.10
  [e66e0078] + CompilerSupportLibraries_jll v0.3.3+0
  [7a1cc6ca] + FFTW v1.2.4
  [f5851436] + FFTW_jll v3.3.9+5
  [01680d73] + GenericSVD v0.3.0
  [c145ed77] + GenericSchur v0.4.0
  [1d5cc7b8] + IntelOpenMP_jll v2018.0.3+0
  [856f044c] + MKL_jll v2020.2.254+0
  [efe28fd5] + OpenSpecFun_jll v0.5.3+3
  [0d4725de] + Readables v0.3.3
  [189a3867] + Reexport v0.2.0
  [276daf66] + SpecialFunctions v0.10.3
  [0dd23c3e] + TwoFAST v0.1.3
  [56f22d72] + Artifacts
  [2a0f44e3] + Base64
  [ade2ca70] + Dates
  [8bb1440f] + DelimitedFiles
  [8ba89e20] + Distributed
  [b77e0a4c] + InteractiveUtils
  [76f85450] + LibGit2
  [8f399da3] + Libdl
  [37e2e46d] + LinearAlgebra
  [56ddb016] + Logging
  [d6f4376e] + Markdown
  [a63ad114] + Mmap
  [44cfe95a] + Pkg
  [de0858da] + Printf
  [3fa0cd96] + REPL
  [9a3f8284] + Random
  [ea8e919c] + SHA
  [9e88b42a] + Serialization
  [6462fe0b] + Sockets
  [fa267f1f] + TOML
  [8dfed614] + Test
  [cf7118a7] + UUIDs
  [4ec0a83e] + Unicode
   Building FFTW ───────→ `~/.julia/packages/FFTW/DMUbN/deps/build.log`
   Building ArbNumerics → `~/.julia/packages/ArbNumerics/joGFm/deps/build.log`
    Testing TwoFAST
Status `/tmp/jl_o8LNWT/Project.toml`
  [7e558dbc] ArbNumerics v1.2.1
  [39dd38d3] Dierckx v0.5.0
  [7a1cc6ca] FFTW v1.2.4
  [276daf66] SpecialFunctions v0.10.3
  [0dd23c3e] TwoFAST v0.1.3
  [8bb1440f] DelimitedFiles
  [37e2e46d] LinearAlgebra
  [56ddb016] Logging
  [8dfed614] Test
Status `/tmp/jl_o8LNWT/Manifest.toml`
  [621f4979] AbstractFFTs v0.5.0
  [7e558dbc] ArbNumerics v1.2.1
  [b99e7846] BinaryProvider v0.5.10
  [e66e0078] CompilerSupportLibraries_jll v0.3.3+0
  [39dd38d3] Dierckx v0.5.0
  [cd4c43a9] Dierckx_jll v0.0.1+0
  [7a1cc6ca] FFTW v1.2.4
  [f5851436] FFTW_jll v3.3.9+5
  [01680d73] GenericSVD v0.3.0
  [c145ed77] GenericSchur v0.4.0
  [1d5cc7b8] IntelOpenMP_jll v2018.0.3+0
  [856f044c] MKL_jll v2020.2.254+0
  [efe28fd5] OpenSpecFun_jll v0.5.3+3
  [0d4725de] Readables v0.3.3
  [189a3867] Reexport v0.2.0
  [276daf66] SpecialFunctions v0.10.3
  [0dd23c3e] TwoFAST v0.1.3
  [56f22d72] Artifacts
  [2a0f44e3] Base64
  [ade2ca70] Dates
  [8bb1440f] DelimitedFiles
  [8ba89e20] Distributed
  [b77e0a4c] InteractiveUtils
  [76f85450] LibGit2
  [8f399da3] Libdl
  [37e2e46d] LinearAlgebra
  [56ddb016] Logging
  [d6f4376e] Markdown
  [a63ad114] Mmap
  [44cfe95a] Pkg
  [de0858da] Printf
  [3fa0cd96] REPL
  [9a3f8284] Random
  [ea8e919c] SHA
  [9e88b42a] Serialization
  [6462fe0b] Sockets
  [fa267f1f] TOML
  [8dfed614] Test
  [cf7118a7] UUIDs
  [4ec0a83e] Unicode
    Testing Running tests...
WARNING: could not import Printf.ini_hex into ArbNumerics
WARNING: could not import Printf.ini_HEX into ArbNumerics
t = 0.0 sec (0 allocations: 0 byte, 0.0% gc time)
typeof(t) = NamedTuple{(:value, :time, :bytes, :gctime, :gcstats), Tuple{DataType, Float64, Int64, Float64, Base.GC_Diff}}
TwoFAST.PerformanceStats.TimedType = Union{NamedTuple{(:value, :time, :bytes, :gctime, :gcstats), Tuple{T, Float64, Int64, Float64, Base.GC_Diff}}, Tuple{Any, Float64, Int64, Float64, Base.GC_Diff}} where T
t = 0.0 sec (0 allocations: 0 byte, 0.0% gc time)
t: 0.0 sec (0 allocations: 0 byte, 0.0% gc time)
Testing ξ(r), ℓ=0, ν=-1 ... passed
Testing ξ(r), ℓ=0, ν=0 ... passed
Testing ξ(r), ℓ=0, ν=1 ... passed
Testing ξ(r), ℓ=0, ν=2 ... passed
Testing ξ(r), ℓ=0, ν=3 ... passed
Testing ξ(r), ℓ=1, ν=0 ... passed
Testing ξ(r), ℓ=1, ν=1 ... passed
Testing ξ(r), ℓ=1, ν=2 ... passed
Testing ξ(r), ℓ=1, ν=3 ... passed
Testing ξ(r), ℓ=2, ν=-1 ... passed
Testing ξ(r), ℓ=2, ν=0 ... passed
Testing ξ(r), ℓ=2, ν=1 ... passed
Testing ξ(r), ℓ=2, ν=2 ... passed
Testing ξ(r), ℓ=2, ν=3 ... passed
Testing ξ(r), ℓ=3, ν=-1 ... passed
Testing ξ(r), ℓ=3, ν=0 ... passed
Testing ξ(r), ℓ=3, ν=1 ... passed
Testing ξ(r), ℓ=3, ν=2 ... passed
Testing ξ(r), ℓ=3, ν=3 ... passed
Testing ξ(r), ℓ=4, ν=-1 ... passed
Testing ξ(r), ℓ=4, ν=0 ... passed
Testing ξ(r), ℓ=4, ν=1 ... passed
Testing ξ(r), ℓ=4, ν=2 ... passed
Testing ξ(r), ℓ=4, ν=3 ... passed
Testing ξ(r) ... passed
Testing ξ′(r) ... passed
Testing ξ″(r) ... passed
Calculating fmax: 
  dlrec    = 4
  dlrecRg1 = -4
  q=1.1, R=1.1:	  6.117085 seconds (839.57 k allocations: 53.589 MiB)

  6.135887 seconds (852.24 k allocations: 54.378 MiB)
ℓ = 1202
Δℓ = 4
ΔℓRg1 = -4
N = 1600
q = 1.1
kmin = 1.0e-5
kmax = 100000.00000000004
χ0 = 0.023029999999999995
RR = RR.tsv
ℓmax = ℓmax.bin
f21 = f21.bin
kmin = 1.0e-5
kmax = 100000.0
dlrec    = 4
dlrecRg1 = -4
Output size: 5741568 bytes = 0.005347251892089844 GiB
Output size: 51264 bytes = 4.774332046508789e-5 GiB
Reading 'out/F21EllCache'...   0.830774 seconds (396.02 k allocations: 23.257 MiB, 5.19% gc time)
ellmax: 1202
lmaxcache: 1202
fell[:,1,1] = ComplexF64[3.9583795592771634e-52 - 9.695233714158177e-68im, 3.990121772925759e-52 - 9.772979714843386e-68im]
ell 1202, elapsed: 4.696846008300781e-5
ell 1201, elapsed: 1.717345952987671
ell 1200, elapsed: 0.0005860328674316406
ell 1199, elapsed: 0.0005509853363037109
ell 1198, elapsed: 0.0038831233978271484
ell 1002, elapsed: 0.016349077224731445
ell 1001, elapsed: 0.0005650520324707031
ell 1000, elapsed: 0.0005490779876708984
ell 999, elapsed: 0.0005478858947753906
ell 998, elapsed: 0.0005478858947753906
ell 902, elapsed: 0.006548166275024414
ell 901, elapsed: 0.0005578994750976562
ell 900, elapsed: 0.0006551742553710938
ell 899, elapsed: 0.00047397613525390625
ell 898, elapsed: 0.0004730224609375
ell 802, elapsed: 0.00896906852722168
ell 801, elapsed: 0.0006270408630371094
ell 800, elapsed: 0.0005509853363037109
ell 799, elapsed: 0.0005497932434082031
ell 798, elapsed: 0.0005500316619873047
ell 702, elapsed: 0.005928993225097656
ell 701, elapsed: 0.0008330345153808594
ell 700, elapsed: 0.0005538463592529297
ell 699, elapsed: 0.0005471706390380859
ell 698, elapsed: 0.0005481243133544922
ell 602, elapsed: 0.006754875183105469
ell 601, elapsed: 0.0005609989166259766
ell 600, elapsed: 0.0005478858947753906
ell 599, elapsed: 0.0005490779876708984
ell 598, elapsed: 0.0005490779876708984
ell 502, elapsed: 0.007623195648193359
ell 501, elapsed: 0.0007059574127197266
ell 500, elapsed: 0.0009829998016357422
ell 499, elapsed: 0.0009760856628417969
ell 498, elapsed: 0.0009500980377197266
ell 402, elapsed: 0.00595402717590332
ell 401, elapsed: 0.0005440711975097656
ell 400, elapsed: 0.0005369186401367188
ell 399, elapsed: 0.0005371570587158203
ell 398, elapsed: 0.000537872314453125
ell 302, elapsed: 0.006009101867675781
ell 301, elapsed: 0.00055694580078125
ell 300, elapsed: 0.0005469322204589844
ell 299, elapsed: 0.0005519390106201172
ell 298, elapsed: 0.0006229877471923828
ell 202, elapsed: 0.007060050964355469
ell 201, elapsed: 0.00061798095703125
ell 200, elapsed: 0.0005497932434082031
ell 199, elapsed: 0.0005509853363037109
ell 198, elapsed: 0.0005519390106201172
ell 152, elapsed: 0.0037331581115722656
ell 151, elapsed: 0.0008211135864257812
ell 150, elapsed: 0.0005671977996826172
ell 149, elapsed: 0.0006198883056640625
ell 148, elapsed: 0.0005609989166259766
ell 127, elapsed: 0.0017461776733398438
ell 126, elapsed: 0.0005490779876708984
ell 125, elapsed: 0.0005490779876708984
ell 124, elapsed: 0.0007128715515136719
ell 123, elapsed: 0.0009558200836181641
ell 114, elapsed: 0.0013492107391357422
ell 113, elapsed: 0.0004839897155761719
ell 112, elapsed: 0.0004830360412597656
ell 111, elapsed: 0.0004901885986328125
ell 110, elapsed: 0.0004830360412597656
ell 102, elapsed: 0.0008921623229980469
ell 101, elapsed: 0.0004849433898925781
ell 100, elapsed: 0.0004839897155761719
ell 99, elapsed: 0.0004820823669433594
ell 98, elapsed: 0.0006699562072753906
ell 97, elapsed: 0.0008149147033691406
ell 96, elapsed: 0.0008149147033691406
ell 95, elapsed: 0.0006570816040039062
ell 94, elapsed: 0.0006051063537597656
ell 93, elapsed: 0.0006880760192871094
ell 92, elapsed: 0.0006051063537597656
ell 91, elapsed: 0.0005979537963867188
ell 90, elapsed: 0.0006039142608642578
ell 89, elapsed: 0.0006048679351806641
ell 88, elapsed: 0.0005979537963867188
ell 87, elapsed: 0.0007078647613525391
ell 86, elapsed: 0.0006191730499267578
ell 85, elapsed: 0.0006239414215087891
ell 84, elapsed: 0.0006239414215087891
ell 83, elapsed: 0.0006191730499267578
ell 82, elapsed: 0.000621795654296875
ell 81, elapsed: 0.0007088184356689453
ell 80, elapsed: 0.0006201267242431641
ell 79, elapsed: 0.0006208419799804688
ell 78, elapsed: 0.0006191730499267578
ell 77, elapsed: 0.0006210803985595703
ell 76, elapsed: 0.0006189346313476562
ell 75, elapsed: 0.0006620883941650391
ell 74, elapsed: 0.0006260871887207031
ell 73, elapsed: 0.0006158351898193359
ell 72, elapsed: 0.0006229877471923828
ell 71, elapsed: 0.0006160736083984375
ell 70, elapsed: 0.00061798095703125
ell 69, elapsed: 0.0006427764892578125
ell 68, elapsed: 0.0006000995635986328
ell 67, elapsed: 0.0005998611450195312
ell 66, elapsed: 0.0005958080291748047
ell 65, elapsed: 0.0005979537963867188
ell 64, elapsed: 0.0006070137023925781
ell 63, elapsed: 0.0006659030914306641
ell 62, elapsed: 0.0006260871887207031
ell 61, elapsed: 0.00061798095703125
ell 60, elapsed: 0.0006160736083984375
ell 59, elapsed: 0.0006239414215087891
ell 58, elapsed: 0.0006198883056640625
ell 57, elapsed: 0.0006608963012695312
ell 56, elapsed: 0.0005991458892822266
ell 55, elapsed: 0.0005970001220703125
ell 54, elapsed: 0.0006010532379150391
ell 53, elapsed: 0.0005979537963867188
ell 52, elapsed: 0.0006070137023925781
ell 51, elapsed: 0.0006670951843261719
ell 50, elapsed: 0.0006210803985595703
ell 49, elapsed: 0.0006270408630371094
ell 48, elapsed: 0.0006170272827148438
ell 47, elapsed: 0.0006208419799804688
ell 46, elapsed: 0.0006170272827148438
ell 45, elapsed: 0.0006771087646484375
ell 44, elapsed: 0.0006229877471923828
ell 43, elapsed: 0.0006189346313476562
ell 42, elapsed: 0.0006241798400878906
ell 41, elapsed: 0.0006182193756103516
ell 40, elapsed: 0.0006198883056640625
ell 39, elapsed: 0.0008599758148193359
ell 38, elapsed: 0.0007369518280029297
ell 37, elapsed: 0.0005528926849365234
ell 36, elapsed: 0.0005469322204589844
ell 35, elapsed: 0.0005509853363037109
ell 34, elapsed: 0.0005459785461425781
ell 33, elapsed: 0.0006859302520751953
ell 32, elapsed: 0.0006101131439208984
ell 31, elapsed: 0.0006031990051269531
ell 30, elapsed: 0.0006079673767089844
ell 29, elapsed: 0.0006020069122314453
ell 28, elapsed: 0.0006048679351806641
ell 27, elapsed: 0.0006999969482421875
ell 26, elapsed: 0.0006251335144042969
ell 25, elapsed: 0.0006248950958251953
ell 24, elapsed: 0.0006201267242431641
ell 23, elapsed: 0.0006201267242431641
ell 22, elapsed: 0.0006229877471923828
ell 21, elapsed: 0.0007171630859375
ell 20, elapsed: 0.0009150505065917969
ell 19, elapsed: 0.0005469322204589844
ell 18, elapsed: 0.0005428791046142578
ell 17, elapsed: 0.0005490779876708984
ell 16, elapsed: 0.0005478858947753906
ell 15, elapsed: 0.0009238719940185547
ell 14, elapsed: 0.0007350444793701172
ell 13, elapsed: 0.0005481243133544922
ell 12, elapsed: 0.0005540847778320312
ell 11, elapsed: 0.0005660057067871094
ell 10, elapsed: 0.0007050037384033203
ell 9, elapsed: 0.0009851455688476562
ell 8, elapsed: 0.0006220340728759766
ell 7, elapsed: 0.0005469322204589844
ell 6, elapsed: 0.0005428791046142578
ell 5, elapsed: 0.0005471706390380859
ell 4, elapsed: 0.0008149147033691406
ell 3, elapsed: 0.0009489059448242188
ell 2, elapsed: 0.0007860660552978516
ell 1, elapsed: 0.0005500316619873047
ell 0, elapsed: 0.0005509853363037109
  2.662237 seconds (1.27 M allocations: 69.775 MiB, 2.43% gc time)
elapsed: 0.0006899833679199219
step:          0.459913 sec (307.129 k allocations: 16.679 MB, 6.48% gc time)
swapping:      0.00068 sec (0 allocations: 0 byte, 0.0% gc time)
calc_Mellell!: 0.170914 sec (133.359 k allocations: 7.263 MB, 0.0% gc time)
  t0 :  0.0 sec (0 allocations: 0 byte, 0.0% gc time)
  tm2 : 0.0 sec (0 allocations: 0 byte, 0.0% gc time)
  tm2s: 0.0 sec (0 allocations: 0 byte, 0.0% gc time)
  tm4 : 0.0 sec (0 allocations: 0 byte, 0.0% gc time)
  tp2 : 0.0 sec (0 allocations: 0 byte, 0.0% gc time)
  tp2s: 0.0 sec (0 allocations: 0 byte, 0.0% gc time)
  tp4 : 0.0 sec (0 allocations: 0 byte, 0.0% gc time)
calc_wtdll!:   1.251206 sec (510.258 k allocations: 28.225 MB, 0.0% gc time)
calc_wljj!:    0.004103 sec (6 allocations: 96 byte, 0.0% gc time)
mult_prefac!:  0.0 sec (0 allocations: 0 byte, 0.0% gc time)
convert:       0.0 sec (0 allocations: 0 byte, 0.0% gc time)
write:         0.003867 sec (0 allocations: 0 byte, 0.0% gc time)
test_rand_2f1: 0.0 sec (0 allocations: 0 byte, 0.0% gc time)
Closing outfile out/Ml21-cache.bin...   0.000009 seconds
  1.597733 seconds (347.10 k allocations: 21.125 MiB)
make_phi():   0.021177 seconds (8.18 k allocations: 237.844 KiB)
  0.352945 seconds (87.66 k allocations: 4.754 MiB, 6.95% gc time)
tskip:       3.6e-5 sec (0 allocations: 0 byte, 0.0% gc time)
tread:       0.011991 sec (17 allocations: 2.125 KB, 0.0% gc time)
tmultphi:    0.052658 sec (21.455 k allocations: 1.289 MB, 0.0% gc time)
tbrfft:      0.008007 sec (0 allocations: 0 byte, 0.0% gc time)
tmultprefac: 0.006855 sec (0 allocations: 0 byte, 0.0% gc time)
toutfunc:    0.228163 sec (64.546 k allocations: 3.334 MB, 10.75% gc time)
Testing R=1.1 ... passed
Calculating fmax: 
  dlrec    = 4
  dlrecRg1 = -4
  q=1.1, R=1.0:	  0.002699 seconds (3.20 k allocations: 275.344 KiB)

  0.003144 seconds (3.34 k allocations: 311.422 KiB)
ℓ = 1202
Δℓ = 4
ΔℓRg1 = -4
N = 1600
q = 1.1
kmin = 1.0e-5
kmax = 100000.00000000004
χ0 = 0.023029999999999995
RR = RR.tsv
ℓmax = ℓmax.bin
f21 = f21.bin
kmin = 1.0e-5
kmax = 100000.0
dlrec    = 4
dlrecRg1 = -4
Output size: 61465536 bytes = 0.05724424123764038 GiB
Output size: 51264 bytes = 4.774332046508789e-5 GiB
Reading 'out/F21EllCache'...   0.001112 seconds (197 allocations: 84.203 KiB)
ellmax: 1202
lmaxcache: 1202
fell[:,1,1] = ComplexF64[809.6031528389767 - 1.9829558194077161e-13im, 0.0 + 0.0im]
ell 1202, elapsed: 3.0994415283203125e-5
ell 1201, elapsed: 0.017010927200317383
ell 1200, elapsed: 0.020003080368041992
ell 1199, elapsed: 0.0003960132598876953
ell 1198, elapsed: 0.00037789344787597656
ell 1197, elapsed: 0.0004699230194091797
ell 1196, elapsed: 0.00044608116149902344
ell 1195, elapsed: 0.000431060791015625
ell 1194, elapsed: 0.00043892860412597656
ell 1193, elapsed: 0.0004432201385498047
ell 1192, elapsed: 0.0012180805206298828
ell 1191, elapsed: 0.0006899833679199219
ell 1190, elapsed: 0.0004830360412597656
ell 1189, elapsed: 0.00043201446533203125
ell 1188, elapsed: 0.0004298686981201172
ell 1187, elapsed: 0.00043702125549316406
ell 1186, elapsed: 0.0009121894836425781
ell 1185, elapsed: 0.0004420280456542969
ell 1184, elapsed: 0.00043487548828125
ell 1183, elapsed: 0.0004470348358154297
ell 1182, elapsed: 0.00043511390686035156
ell 1181, elapsed: 0.00044083595275878906
ell 1180, elapsed: 0.00044918060302734375
ell 1179, elapsed: 0.0011200904846191406
ell 1178, elapsed: 0.0007178783416748047
ell 1177, elapsed: 0.0005669593811035156
ell 1176, elapsed: 0.00043582916259765625
ell 1175, elapsed: 0.0004429817199707031
ell 1174, elapsed: 0.0004379749298095703
ell 1173, elapsed: 0.0004570484161376953
ell 1172, elapsed: 0.00043702125549316406
ell 1171, elapsed: 0.00044608116149902344
ell 1170, elapsed: 0.0004379749298095703
ell 1169, elapsed: 0.0004420280456542969
ell 1168, elapsed: 0.00044417381286621094
ell 1167, elapsed: 0.0017409324645996094
ell 1166, elapsed: 0.0006630420684814453
ell 1165, elapsed: 0.0006160736083984375
ell 1164, elapsed: 0.0004360675811767578
ell 1163, elapsed: 0.0011630058288574219
ell 1162, elapsed: 0.00044798851013183594
ell 1161, elapsed: 0.0004489421844482422
ell 1160, elapsed: 0.00044083595275878906
ell 1159, elapsed: 0.0004417896270751953
ell 1158, elapsed: 0.0004439353942871094
ell 1157, elapsed: 0.0004391670227050781
ell 1156, elapsed: 0.0013439655303955078
ell 1155, elapsed: 0.0006909370422363281
ell 1154, elapsed: 0.0004878044128417969
ell 1153, elapsed: 0.0004382133483886719
ell 1152, elapsed: 0.00043702125549316406
ell 1151, elapsed: 0.0008130073547363281
ell 1150, elapsed: 0.0004379749298095703
ell 1149, elapsed: 0.0004451274871826172
ell 1148, elapsed: 0.00044083595275878906
ell 1147, elapsed: 0.0004329681396484375
ell 1146, elapsed: 0.0004420280456542969
ell 1145, elapsed: 0.0004398822784423828
ell 1144, elapsed: 0.0004391670227050781
ell 1143, elapsed: 0.0005218982696533203
ell 1142, elapsed: 0.0004138946533203125
ell 1141, elapsed: 0.00041794776916503906
ell 1140, elapsed: 0.00047588348388671875
ell 1139, elapsed: 0.0004119873046875
ell 1138, elapsed: 0.0004191398620605469
ell 1137, elapsed: 0.00040912628173828125
ell 1136, elapsed: 0.00041604042053222656
ell 1135, elapsed: 0.0006558895111083984
ell 1134, elapsed: 0.0005810260772705078
ell 1133, elapsed: 0.00048279762268066406
ell 1132, elapsed: 0.0005450248718261719
ell 1131, elapsed: 0.0005500316619873047
ell 1130, elapsed: 0.0004398822784423828
ell 1129, elapsed: 0.0004379749298095703
ell 1128, elapsed: 0.0008041858673095703
ell 1127, elapsed: 0.0004432201385498047
ell 1126, elapsed: 0.0004429817199707031
ell 1125, elapsed: 0.0004341602325439453
ell 1124, elapsed: 0.00043702125549316406
ell 1123, elapsed: 0.00042700767517089844
ell 1122, elapsed: 0.00042510032653808594
ell 1121, elapsed: 0.0012009143829345703
ell 1120, elapsed: 0.0005090236663818359
ell 1119, elapsed: 0.0004608631134033203
ell 1118, elapsed: 0.0004291534423828125
ell 1117, elapsed: 0.0004279613494873047
ell 1116, elapsed: 0.00043702125549316406
ell 1115, elapsed: 0.00043392181396484375
ell 1114, elapsed: 0.0008089542388916016
ell 1113, elapsed: 0.000431060791015625
ell 1112, elapsed: 0.00042700767517089844
ell 1111, elapsed: 0.0005288124084472656
ell 1110, elapsed: 0.0005810260772705078
ell 1109, elapsed: 0.0004470348358154297
ell 1108, elapsed: 0.00043320655822753906
ell 1107, elapsed: 0.0009450912475585938
ell 1106, elapsed: 0.0005159378051757812
ell 1105, elapsed: 0.00043892860412597656
ell 1104, elapsed: 0.0004341602325439453
ell 1103, elapsed: 0.0004291534423828125
ell 1102, elapsed: 0.0004291534423828125
ell 1101, elapsed: 0.00043487548828125
ell 1100, elapsed: 0.0008120536804199219
ell 1099, elapsed: 0.00043392181396484375
ell 1098, elapsed: 0.00043010711669921875
ell 1097, elapsed: 0.00042891502380371094
ell 1096, elapsed: 0.00043201446533203125
ell 1095, elapsed: 0.0004329681396484375
ell 1094, elapsed: 0.000431060791015625
ell 1093, elapsed: 0.0010919570922851562
ell 1092, elapsed: 0.0005209445953369141
ell 1091, elapsed: 0.0004639625549316406
ell 1090, elapsed: 0.00042891502380371094
ell 1089, elapsed: 0.0004930496215820312
ell 1088, elapsed: 0.0006098747253417969
ell 1087, elapsed: 0.0007970333099365234
ell 1086, elapsed: 0.0004329681396484375
ell 1085, elapsed: 0.00043010711669921875
ell 1084, elapsed: 0.00044083595275878906
ell 1083, elapsed: 0.00043082237243652344
ell 1082, elapsed: 0.0004398822784423828
ell 1081, elapsed: 0.000431060791015625
ell 1080, elapsed: 0.0004382133483886719
ell 1079, elapsed: 0.0010478496551513672
ell 1078, elapsed: 0.00067901611328125
ell 1077, elapsed: 0.0004930496215820312
ell 1076, elapsed: 0.00043082237243652344
ell 1075, elapsed: 0.00043082237243652344
ell 1074, elapsed: 0.0004360675811767578
ell 1073, elapsed: 0.0007741451263427734
ell 1072, elapsed: 0.00044608116149902344
ell 1071, elapsed: 0.00043392181396484375
ell 1070, elapsed: 0.0004391670227050781
ell 1069, elapsed: 0.0005359649658203125
ell 1068, elapsed: 0.0005519390106201172
ell 1067, elapsed: 0.00043702125549316406
ell 1066, elapsed: 0.0012421607971191406
ell 1065, elapsed: 0.0006768703460693359
ell 1064, elapsed: 0.0005280971527099609
ell 1063, elapsed: 0.00043320655822753906
ell 1062, elapsed: 0.0004379749298095703
ell 1061, elapsed: 0.0004279613494873047
ell 1060, elapsed: 0.00047397613525390625
ell 1059, elapsed: 0.0004410743713378906
ell 1058, elapsed: 0.00043201446533203125
ell 1057, elapsed: 0.00043702125549316406
ell 1056, elapsed: 0.00043201446533203125
ell 1055, elapsed: 0.0004329681396484375
ell 1054, elapsed: 0.0004398822784423828
ell 1053, elapsed: 0.01601409912109375
ell 1052, elapsed: 0.0007040500640869141
ell 1051, elapsed: 0.0006818771362304688
ell 1050, elapsed: 0.0005979537963867188
ell 1049, elapsed: 0.0004410743713378906
ell 1048, elapsed: 0.00042700767517089844
ell 1047, elapsed: 0.00043702125549316406
ell 1046, elapsed: 0.0008389949798583984
ell 1045, elapsed: 0.00046706199645996094
ell 1044, elapsed: 0.0005090236663818359
ell 1043, elapsed: 0.0006709098815917969
ell 1042, elapsed: 0.0005278587341308594
ell 1041, elapsed: 0.0004489421844482422
ell 1040, elapsed: 0.0010559558868408203
ell 1039, elapsed: 0.0006928443908691406
ell 1038, elapsed: 0.0005519390106201172
ell 1037, elapsed: 0.0004420280456542969
ell 1036, elapsed: 0.000431060791015625
ell 1035, elapsed: 0.0004360675811767578
ell 1034, elapsed: 0.0005180835723876953
ell 1033, elapsed: 0.0004398822784423828
ell 1032, elapsed: 0.00043582916259765625
ell 1031, elapsed: 0.00043702125549316406
ell 1030, elapsed: 0.0004420280456542969
ell 1029, elapsed: 0.0004341602325439453
ell 1028, elapsed: 0.0004379749298095703
ell 1027, elapsed: 0.0004420280456542969
ell 1026, elapsed: 0.0008518695831298828
ell 1025, elapsed: 0.0005750656127929688
ell 1024, elapsed: 0.00041484832763671875
ell 1023, elapsed: 0.00041294097900390625
ell 1022, elapsed: 0.0004138946533203125
ell 1021, elapsed: 0.00041103363037109375
ell 1020, elapsed: 0.00041604042053222656
ell 1019, elapsed: 0.0005309581756591797
ell 1018, elapsed: 0.0005109310150146484
ell 1017, elapsed: 0.00047898292541503906
ell 1016, elapsed: 0.00043487548828125
ell 1015, elapsed: 0.00043702125549316406
ell 1014, elapsed: 0.0004382133483886719
ell 1013, elapsed: 0.0004420280456542969
ell 1012, elapsed: 0.0004439353942871094
ell 1011, elapsed: 0.0004620552062988281
ell 1010, elapsed: 0.0004429817199707031
ell 1009, elapsed: 0.0004470348358154297
ell 1008, elapsed: 0.0004470348358154297
ell 1007, elapsed: 0.00045609474182128906
ell 1006, elapsed: 0.00042891502380371094
ell 1005, elapsed: 0.00042510032653808594
ell 1004, elapsed: 0.0004210472106933594
ell 1003, elapsed: 0.0004889965057373047
ell 1002, elapsed: 0.0005340576171875
ell 1001, elapsed: 0.0005238056182861328
ell 1000, elapsed: 0.0005090236663818359
ell 999, elapsed: 0.0004329681396484375
ell 998, elapsed: 0.0004379749298095703
ell 997, elapsed: 0.0004420280456542969
ell 996, elapsed: 0.0004620552062988281
ell 995, elapsed: 0.0005309581756591797
ell 994, elapsed: 0.0005049705505371094
ell 993, elapsed: 0.0006151199340820312
ell 992, elapsed: 0.000431060791015625
ell 991, elapsed: 0.00043892860412597656
ell 990, elapsed: 0.00044083595275878906
ell 989, elapsed: 0.0004379749298095703
ell 988, elapsed: 0.0005381107330322266
ell 987, elapsed: 0.0005030632019042969
ell 986, elapsed: 0.0004379749298095703
ell 985, elapsed: 0.0004379749298095703
ell 984, elapsed: 0.0004291534423828125
ell 983, elapsed: 0.00043892860412597656
ell 982, elapsed: 0.00043702125549316406
ell 981, elapsed: 0.00043511390686035156
ell 980, elapsed: 0.0005390644073486328
ell 979, elapsed: 0.0004799365997314453
ell 978, elapsed: 0.0004420280456542969
ell 977, elapsed: 0.0004379749298095703
ell 976, elapsed: 0.00043702125549316406
ell 975, elapsed: 0.0004401206970214844
ell 974, elapsed: 0.0004398822784423828
ell 973, elapsed: 0.00047397613525390625
ell 972, elapsed: 0.0005290508270263672
ell 971, elapsed: 0.00047588348388671875
ell 970, elapsed: 0.0004391670227050781
ell 969, elapsed: 0.00043702125549316406
ell 968, elapsed: 0.00044417381286621094
ell 967, elapsed: 0.00044083595275878906
ell 966, elapsed: 0.0004329681396484375
ell 965, elapsed: 0.0006098747253417969
ell 964, elapsed: 0.0005807876586914062
ell 963, elapsed: 0.00043702125549316406
ell 962, elapsed: 0.0004570484161376953
ell 961, elapsed: 0.000431060791015625
ell 960, elapsed: 0.00043702125549316406
ell 959, elapsed: 0.00042891502380371094
ell 958, elapsed: 0.00047087669372558594
ell 957, elapsed: 0.0008940696716308594
ell 956, elapsed: 0.0004918575286865234
ell 955, elapsed: 0.0004329681396484375
ell 954, elapsed: 0.0004360675811767578
ell 953, elapsed: 0.00044417381286621094
ell 952, elapsed: 0.00044798851013183594
ell 951, elapsed: 0.0004799365997314453
ell 950, elapsed: 0.0007100105285644531
ell 949, elapsed: 0.0005381107330322266
ell 948, elapsed: 0.00045108795166015625
ell 947, elapsed: 0.0005221366882324219
ell 946, elapsed: 0.0005991458892822266
ell 945, elapsed: 0.00044989585876464844
ell 944, elapsed: 0.0006091594696044922
ell 943, elapsed: 0.0006840229034423828
ell 942, elapsed: 0.00044798851013183594
ell 941, elapsed: 0.0004458427429199219
ell 940, elapsed: 0.0006501674652099609
ell 939, elapsed: 0.0004780292510986328
ell 938, elapsed: 0.0004649162292480469
ell 937, elapsed: 0.0006949901580810547
ell 936, elapsed: 0.0005848407745361328
ell 935, elapsed: 0.00044608116149902344
ell 934, elapsed: 0.0004451274871826172
ell 933, elapsed: 0.0004401206970214844
ell 932, elapsed: 0.000614166259765625
ell 931, elapsed: 0.0008780956268310547
ell 930, elapsed: 0.0007379055023193359
ell 929, elapsed: 0.00044798851013183594
ell 928, elapsed: 0.00044608116149902344
ell 927, elapsed: 0.00044798851013183594
ell 926, elapsed: 0.00044989585876464844
ell 925, elapsed: 0.0004451274871826172
ell 924, elapsed: 0.0009920597076416016
ell 923, elapsed: 0.0005168914794921875
ell 922, elapsed: 0.00044798851013183594
ell 921, elapsed: 0.00045609474182128906
ell 920, elapsed: 0.0004401206970214844
ell 919, elapsed: 0.0004439353942871094
ell 918, elapsed: 0.0005080699920654297
ell 917, elapsed: 0.0006830692291259766
ell 916, elapsed: 0.0005319118499755859
ell 915, elapsed: 0.0004448890686035156
ell 914, elapsed: 0.00044608116149902344
ell 913, elapsed: 0.0004448890686035156
ell 912, elapsed: 0.0004410743713378906
ell 911, elapsed: 0.0004911422729492188
ell 910, elapsed: 0.0006909370422363281
ell 909, elapsed: 0.0005409717559814453
ell 908, elapsed: 0.00044989585876464844
ell 907, elapsed: 0.0004429817199707031
ell 906, elapsed: 0.0004489421844482422
ell 905, elapsed: 0.00043892860412597656
ell 904, elapsed: 0.00047898292541503906
ell 903, elapsed: 0.0004990100860595703
ell 902, elapsed: 0.0004417896270751953
ell 901, elapsed: 0.0004551410675048828
ell 900, elapsed: 0.0004470348358154297
ell 899, elapsed: 0.0004401206970214844
ell 898, elapsed: 0.00044608116149902344
ell 897, elapsed: 0.0004417896270751953
ell 896, elapsed: 0.008543014526367188
ell 895, elapsed: 0.0004839897155761719
ell 894, elapsed: 0.0004379749298095703
ell 893, elapsed: 0.0004379749298095703
ell 892, elapsed: 0.00043392181396484375
ell 891, elapsed: 0.00045108795166015625
ell 890, elapsed: 0.00043082237243652344
ell 889, elapsed: 0.0004677772521972656
ell 888, elapsed: 0.00046706199645996094
ell 887, elapsed: 0.0004391670227050781
ell 886, elapsed: 0.00044989585876464844
ell 885, elapsed: 0.0004520416259765625
ell 884, elapsed: 0.00043892860412597656
ell 883, elapsed: 0.00043702125549316406
ell 882, elapsed: 0.0004420280456542969
ell 881, elapsed: 0.0004439353942871094
ell 880, elapsed: 0.0004699230194091797
ell 879, elapsed: 0.00044608116149902344
ell 878, elapsed: 0.0004329681396484375
ell 877, elapsed: 0.0004279613494873047
ell 876, elapsed: 0.0004341602325439453
ell 875, elapsed: 0.00045013427734375
ell 874, elapsed: 0.0004458427429199219
ell 873, elapsed: 0.0004470348358154297
ell 872, elapsed: 0.0004630088806152344
ell 871, elapsed: 0.0004470348358154297
ell 870, elapsed: 0.0004439353942871094
ell 869, elapsed: 0.0004341602325439453
ell 868, elapsed: 0.0004401206970214844
ell 867, elapsed: 0.0004341602325439453
ell 866, elapsed: 0.00042700767517089844
ell 865, elapsed: 0.0004260540008544922
ell 864, elapsed: 0.00047397613525390625
ell 863, elapsed: 0.0004410743713378906
ell 862, elapsed: 0.0004260540008544922
ell 861, elapsed: 0.0004279613494873047
ell 860, elapsed: 0.0004329681396484375
ell 859, elapsed: 0.00043082237243652344
ell 858, elapsed: 0.0004239082336425781
ell 857, elapsed: 0.00042891502380371094
ell 856, elapsed: 0.0004508495330810547
ell 855, elapsed: 0.00043201446533203125
ell 854, elapsed: 0.00042700767517089844
ell 853, elapsed: 0.0004420280456542969
ell 852, elapsed: 0.00043892860412597656
ell 851, elapsed: 0.00043702125549316406
ell 850, elapsed: 0.00044083595275878906
ell 849, elapsed: 0.0004470348358154297
ell 848, elapsed: 0.0006511211395263672
ell 847, elapsed: 0.0006208419799804688
ell 846, elapsed: 0.0004429817199707031
ell 845, elapsed: 0.00045013427734375
ell 844, elapsed: 0.0004458427429199219
ell 843, elapsed: 0.0004420280456542969
ell 842, elapsed: 0.0004341602325439453
ell 841, elapsed: 0.0012621879577636719
ell 840, elapsed: 0.0005700588226318359
ell 839, elapsed: 0.0005748271942138672
ell 838, elapsed: 0.0004279613494873047
ell 837, elapsed: 0.0004360675811767578
ell 836, elapsed: 0.00043201446533203125
ell 835, elapsed: 0.00042700767517089844
ell 834, elapsed: 0.001611948013305664
ell 833, elapsed: 0.0005409717559814453
ell 832, elapsed: 0.00044417381286621094
ell 831, elapsed: 0.00045108795166015625
ell 830, elapsed: 0.0005688667297363281
ell 829, elapsed: 0.0013718605041503906
ell 828, elapsed: 0.00043511390686035156
ell 827, elapsed: 0.0004391670227050781
ell 826, elapsed: 0.00043010711669921875
ell 825, elapsed: 0.0004279613494873047
ell 824, elapsed: 0.00043892860412597656
ell 823, elapsed: 0.0013539791107177734
ell 822, elapsed: 0.00043487548828125
ell 821, elapsed: 0.00043010711669921875
ell 820, elapsed: 0.0004391670227050781
ell 819, elapsed: 0.0004329681396484375
ell 818, elapsed: 0.0004360675811767578
ell 817, elapsed: 0.001416921615600586
ell 816, elapsed: 0.0004520416259765625
ell 815, elapsed: 0.0004410743713378906
ell 814, elapsed: 0.0004439353942871094
ell 813, elapsed: 0.0004909038543701172
ell 812, elapsed: 0.00061798095703125
ell 811, elapsed: 0.0013339519500732422
ell 810, elapsed: 0.0004470348358154297
ell 809, elapsed: 0.00043892860412597656
ell 808, elapsed: 0.0004410743713378906
ell 807, elapsed: 0.00043702125549316406
ell 806, elapsed: 0.0004360675811767578
ell 805, elapsed: 0.0014781951904296875
ell 804, elapsed: 0.0004489421844482422
ell 803, elapsed: 0.0004379749298095703
ell 802, elapsed: 0.0004379749298095703
ell 801, elapsed: 0.00044083595275878906
ell 800, elapsed: 0.0004360675811767578
ell 799, elapsed: 0.0047190189361572266
ell 798, elapsed: 0.0005500316619873047
ell 797, elapsed: 0.0005679130554199219
ell 796, elapsed: 0.0004420280456542969
ell 795, elapsed: 0.0004489421844482422
ell 794, elapsed: 0.0006010532379150391
ell 793, elapsed: 0.0011489391326904297
ell 792, elapsed: 0.0004420280456542969
ell 791, elapsed: 0.00043201446533203125
ell 790, elapsed: 0.00043392181396484375
ell 789, elapsed: 0.00043487548828125
ell 788, elapsed: 0.0004329681396484375
ell 787, elapsed: 0.00043082237243652344
ell 786, elapsed: 0.0009961128234863281
ell 785, elapsed: 0.0004429817199707031
ell 784, elapsed: 0.0004379749298095703
ell 783, elapsed: 0.00044989585876464844
ell 782, elapsed: 0.0006670951843261719
ell 781, elapsed: 0.00043892860412597656
ell 780, elapsed: 0.00043582916259765625
ell 779, elapsed: 0.0010259151458740234
ell 778, elapsed: 0.0004429817199707031
ell 777, elapsed: 0.00043702125549316406
ell 776, elapsed: 0.00043487548828125
ell 775, elapsed: 0.0004360675811767578
ell 774, elapsed: 0.00043392181396484375
ell 773, elapsed: 0.0004379749298095703
ell 772, elapsed: 0.0010340213775634766
ell 771, elapsed: 0.00043892860412597656
ell 770, elapsed: 0.0004429817199707031
ell 769, elapsed: 0.0004382133483886719
ell 768, elapsed: 0.0004420280456542969
ell 767, elapsed: 0.00043702125549316406
ell 766, elapsed: 0.00043582916259765625
ell 765, elapsed: 0.00044989585876464844
ell 764, elapsed: 0.00043582916259765625
ell 763, elapsed: 0.0004420280456542969
ell 762, elapsed: 0.00043201446533203125
ell 761, elapsed: 0.0004341602325439453
ell 760, elapsed: 0.00042891502380371094
ell 759, elapsed: 0.0004279613494873047
ell 758, elapsed: 0.00045800209045410156
ell 757, elapsed: 0.00043702125549316406
ell 756, elapsed: 0.00043702125549316406
ell 755, elapsed: 0.0004379749298095703
ell 754, elapsed: 0.0004420280456542969
ell 753, elapsed: 0.0004291534423828125
ell 752, elapsed: 0.0004279613494873047
ell 751, elapsed: 0.0004899501800537109
ell 750, elapsed: 0.0004279613494873047
ell 749, elapsed: 0.00042510032653808594
ell 748, elapsed: 0.00043392181396484375
ell 747, elapsed: 0.00044083595275878906
ell 746, elapsed: 0.00044798851013183594
ell 745, elapsed: 0.0014679431915283203
ell 744, elapsed: 0.0004470348358154297
ell 743, elapsed: 0.0004410743713378906
ell 742, elapsed: 0.0004429817199707031
ell 741, elapsed: 0.00043511390686035156
ell 740, elapsed: 0.00043487548828125
ell 739, elapsed: 0.0013720989227294922
ell 738, elapsed: 0.00043702125549316406
ell 737, elapsed: 0.0004420280456542969
ell 736, elapsed: 0.0004420280456542969
ell 735, elapsed: 0.00043892860412597656
ell 734, elapsed: 0.0004448890686035156
ell 733, elapsed: 0.0015480518341064453
ell 732, elapsed: 0.00045418739318847656
ell 731, elapsed: 0.0004439353942871094
ell 730, elapsed: 0.00043010711669921875
ell 729, elapsed: 0.0004451274871826172
ell 728, elapsed: 0.00043511390686035156
ell 727, elapsed: 0.0014190673828125
ell 726, elapsed: 0.0004429817199707031
ell 725, elapsed: 0.00043582916259765625
ell 724, elapsed: 0.00043702125549316406
ell 723, elapsed: 0.0004391670227050781
ell 722, elapsed: 0.0004398822784423828
ell 721, elapsed: 0.0014071464538574219
ell 720, elapsed: 0.0004470348358154297
ell 719, elapsed: 0.00044798851013183594
ell 718, elapsed: 0.0006430149078369141
ell 717, elapsed: 0.0004639625549316406
ell 716, elapsed: 0.0004458427429199219
ell 715, elapsed: 0.001416921615600586
ell 714, elapsed: 0.00044798851013183594
ell 713, elapsed: 0.0004379749298095703
ell 712, elapsed: 0.0005419254302978516
ell 711, elapsed: 0.0005669593811035156
ell 710, elapsed: 0.0014081001281738281
ell 709, elapsed: 0.00045490264892578125
ell 708, elapsed: 0.0004401206970214844
ell 707, elapsed: 0.00045108795166015625
ell 706, elapsed: 0.0004420280456542969
ell 705, elapsed: 0.00043702125549316406
ell 704, elapsed: 0.000537872314453125
ell 703, elapsed: 0.0004398822784423828
ell 702, elapsed: 0.0004401206970214844
ell 701, elapsed: 0.00043511390686035156
ell 700, elapsed: 0.0004420280456542969
ell 699, elapsed: 0.00043892860412597656
ell 698, elapsed: 0.0004420280456542969
ell 697, elapsed: 0.0004420280456542969
ell 696, elapsed: 0.0005180835723876953
ell 695, elapsed: 0.0006129741668701172
ell 694, elapsed: 0.00042819976806640625
ell 693, elapsed: 0.0004150867462158203
ell 692, elapsed: 0.0004191398620605469
ell 691, elapsed: 0.00041985511779785156
ell 690, elapsed: 0.00041294097900390625
ell 689, elapsed: 0.00041604042053222656
ell 688, elapsed: 0.00044918060302734375
ell 687, elapsed: 0.0006368160247802734
ell 686, elapsed: 0.0004830360412597656
ell 685, elapsed: 0.0004429817199707031
ell 684, elapsed: 0.0004489421844482422
ell 683, elapsed: 0.0004458427429199219
ell 682, elapsed: 0.0004470348358154297
ell 681, elapsed: 0.0004429817199707031
ell 680, elapsed: 0.00047016143798828125
ell 679, elapsed: 0.00044918060302734375
ell 678, elapsed: 0.00044417381286621094
ell 677, elapsed: 0.00043702125549316406
ell 676, elapsed: 0.00044608116149902344
ell 675, elapsed: 0.0004451274871826172
ell 674, elapsed: 0.0004360675811767578
ell 673, elapsed: 0.0004420280456542969
ell 672, elapsed: 0.00045299530029296875
ell 671, elapsed: 0.00044798851013183594
ell 670, elapsed: 0.0004401206970214844
ell 669, elapsed: 0.0004379749298095703
ell 668, elapsed: 0.0004382133483886719
ell 667, elapsed: 0.0004448890686035156
ell 666, elapsed: 0.00043582916259765625
ell 665, elapsed: 0.0004410743713378906
ell 664, elapsed: 0.00047397613525390625
ell 663, elapsed: 0.0004420280456542969
ell 662, elapsed: 0.0004448890686035156
ell 661, elapsed: 0.00044798851013183594
ell 660, elapsed: 0.0004448890686035156
ell 659, elapsed: 0.0004429817199707031
ell 658, elapsed: 0.0004360675811767578
ell 657, elapsed: 0.0004470348358154297
ell 656, elapsed: 0.0009989738464355469
ell 655, elapsed: 0.0004839897155761719
ell 654, elapsed: 0.0004391670227050781
ell 653, elapsed: 0.00044798851013183594
ell 652, elapsed: 0.0004398822784423828
ell 651, elapsed: 0.0004410743713378906
ell 650, elapsed: 0.00045609474182128906
ell 649, elapsed: 0.0004391670227050781
ell 648, elapsed: 0.0004420280456542969
ell 647, elapsed: 0.0004520416259765625
ell 646, elapsed: 0.0005631446838378906
ell 645, elapsed: 0.0005440711975097656
ell 644, elapsed: 0.0004489421844482422
ell 643, elapsed: 0.00044798851013183594
ell 642, elapsed: 0.0010080337524414062
ell 641, elapsed: 0.0007760524749755859
ell 640, elapsed: 0.0004489421844482422
ell 639, elapsed: 0.0004470348358154297
ell 638, elapsed: 0.00045013427734375
ell 637, elapsed: 0.00044989585876464844
ell 636, elapsed: 0.0004489421844482422
ell 635, elapsed: 0.00044798851013183594
ell 634, elapsed: 0.0004429817199707031
ell 633, elapsed: 0.00044798851013183594
ell 632, elapsed: 0.0004432201385498047
ell 631, elapsed: 0.00043392181396484375
ell 630, elapsed: 0.00044417381286621094
ell 629, elapsed: 0.0004520416259765625
ell 628, elapsed: 0.0007889270782470703
ell 627, elapsed: 0.0007569789886474609
ell 626, elapsed: 0.0004439353942871094
ell 625, elapsed: 0.0004470348358154297
ell 624, elapsed: 0.00043487548828125
ell 623, elapsed: 0.0004360675811767578
ell 622, elapsed: 0.0004570484161376953
ell 621, elapsed: 0.00043892860412597656
ell 620, elapsed: 0.0004420280456542969
ell 619, elapsed: 0.00043511390686035156
ell 618, elapsed: 0.0005121231079101562
ell 617, elapsed: 0.0006079673767089844
ell 616, elapsed: 0.0004420280456542969
ell 615, elapsed: 0.0004630088806152344
ell 614, elapsed: 0.0007889270782470703
ell 613, elapsed: 0.0007598400115966797
ell 612, elapsed: 0.00043582916259765625
ell 611, elapsed: 0.00044798851013183594
ell 610, elapsed: 0.0004470348358154297
ell 609, elapsed: 0.0004420280456542969
ell 608, elapsed: 0.00046706199645996094
ell 607, elapsed: 0.00043892860412597656
ell 606, elapsed: 0.0006351470947265625
ell 605, elapsed: 0.0005450248718261719
ell 604, elapsed: 0.00043702125549316406
ell 603, elapsed: 0.0004439353942871094
ell 602, elapsed: 0.00043487548828125
ell 601, elapsed: 0.0007090568542480469
ell 600, elapsed: 0.0007698535919189453
ell 599, elapsed: 0.0005939006805419922
ell 598, elapsed: 0.0004429817199707031
ell 597, elapsed: 0.0004410743713378906
ell 596, elapsed: 0.0004429817199707031
ell 595, elapsed: 0.0005130767822265625
ell 594, elapsed: 0.0004448890686035156
ell 593, elapsed: 0.0004439353942871094
ell 592, elapsed: 0.0004420280456542969
ell 591, elapsed: 0.0004458427429199219
ell 590, elapsed: 0.0004410743713378906
ell 589, elapsed: 0.00045013427734375
ell 588, elapsed: 0.00045013427734375
ell 587, elapsed: 0.000514984130859375
ell 586, elapsed: 0.0007770061492919922
ell 585, elapsed: 0.0007648468017578125
ell 584, elapsed: 0.0004432201385498047
ell 583, elapsed: 0.0004470348358154297
ell 582, elapsed: 0.0004360675811767578
ell 581, elapsed: 0.0004429817199707031
ell 580, elapsed: 0.0006079673767089844
ell 579, elapsed: 0.0005021095275878906
ell 578, elapsed: 0.0004429817199707031
ell 577, elapsed: 0.00043702125549316406
ell 576, elapsed: 0.0004420280456542969
ell 575, elapsed: 0.0004429817199707031
ell 574, elapsed: 0.0004439353942871094
ell 573, elapsed: 0.0007200241088867188
ell 572, elapsed: 0.0008480548858642578
ell 571, elapsed: 0.0006010532379150391
ell 570, elapsed: 0.0005800724029541016
ell 569, elapsed: 0.0005640983581542969
ell 568, elapsed: 0.00046706199645996094
ell 567, elapsed: 0.00043487548828125
ell 566, elapsed: 0.00045800209045410156
ell 565, elapsed: 0.00043201446533203125
ell 564, elapsed: 0.0004401206970214844
ell 563, elapsed: 0.000431060791015625
ell 562, elapsed: 0.0004558563232421875
ell 561, elapsed: 0.0005578994750976562
ell 560, elapsed: 0.0009019374847412109
ell 559, elapsed: 0.0007889270782470703
ell 558, elapsed: 0.0005800724029541016
ell 557, elapsed: 0.00043702125549316406
ell 556, elapsed: 0.0004398822784423828
ell 555, elapsed: 0.00043487548828125
ell 554, elapsed: 0.00045800209045410156
ell 553, elapsed: 0.0004379749298095703
ell 552, elapsed: 0.0004429817199707031
ell 551, elapsed: 0.00043892860412597656
ell 550, elapsed: 0.0004382133483886719
ell 549, elapsed: 0.00043392181396484375
ell 548, elapsed: 0.0004429817199707031
ell 547, elapsed: 0.0004401206970214844
ell 546, elapsed: 0.0005280971527099609
ell 545, elapsed: 0.0005979537963867188
ell 544, elapsed: 0.0004169940948486328
ell 543, elapsed: 0.0004200935363769531
ell 542, elapsed: 0.00041294097900390625
ell 541, elapsed: 0.0004138946533203125
ell 540, elapsed: 0.00041103363037109375
ell 539, elapsed: 0.00041794776916503906
ell 538, elapsed: 0.0005049705505371094
ell 537, elapsed: 0.0006158351898193359
ell 536, elapsed: 0.00043582916259765625
ell 535, elapsed: 0.000431060791015625
ell 534, elapsed: 0.0004391670227050781
ell 533, elapsed: 0.0006928443908691406
ell 532, elapsed: 0.00044608116149902344
ell 531, elapsed: 0.00047087669372558594
ell 530, elapsed: 0.00043392181396484375
ell 529, elapsed: 0.00043487548828125
ell 528, elapsed: 0.00044083595275878906
ell 527, elapsed: 0.0004410743713378906
ell 526, elapsed: 0.0004360675811767578
ell 525, elapsed: 0.0004420280456542969
ell 524, elapsed: 0.0004379749298095703
ell 523, elapsed: 0.0005319118499755859
ell 522, elapsed: 0.0006499290466308594
ell 521, elapsed: 0.0004391670227050781
ell 520, elapsed: 0.00043892860412597656
ell 519, elapsed: 0.0004341602325439453
ell 518, elapsed: 0.0004279613494873047
ell 517, elapsed: 0.00043487548828125
ell 516, elapsed: 0.000431060791015625
ell 515, elapsed: 0.0005400180816650391
ell 514, elapsed: 0.0004489421844482422
ell 513, elapsed: 0.00042891502380371094
ell 512, elapsed: 0.0004341602325439453
ell 511, elapsed: 0.00043010711669921875
ell 510, elapsed: 0.00043702125549316406
ell 509, elapsed: 0.0004279613494873047
ell 508, elapsed: 0.00043511390686035156
ell 507, elapsed: 0.0005390644073486328
ell 506, elapsed: 0.0004401206970214844
ell 505, elapsed: 0.00043582916259765625
ell 504, elapsed: 0.00043702125549316406
ell 503, elapsed: 0.00043392181396484375
ell 502, elapsed: 0.0004429817199707031
ell 501, elapsed: 0.0004401206970214844
ell 500, elapsed: 0.0004448890686035156
ell 499, elapsed: 0.0007660388946533203
ell 498, elapsed: 0.00044417381286621094
ell 497, elapsed: 0.000453948974609375
ell 496, elapsed: 0.0004401206970214844
ell 495, elapsed: 0.00045490264892578125
ell 494, elapsed: 0.00043702125549316406
ell 493, elapsed: 0.0004420280456542969
ell 492, elapsed: 0.0007190704345703125
ell 491, elapsed: 0.0006299018859863281
ell 490, elapsed: 0.000453948974609375
ell 489, elapsed: 0.00043892860412597656
ell 488, elapsed: 0.00044608116149902344
ell 487, elapsed: 0.0004410743713378906
ell 486, elapsed: 0.0004398822784423828
ell 485, elapsed: 0.0006871223449707031
ell 484, elapsed: 0.0006279945373535156
ell 483, elapsed: 0.0004448890686035156
ell 482, elapsed: 0.0004391670227050781
ell 481, elapsed: 0.0004429817199707031
ell 480, elapsed: 0.0004420280456542969
ell 479, elapsed: 0.0004398822784423828
ell 478, elapsed: 0.00048279762268066406
ell 477, elapsed: 0.00043892860412597656
ell 476, elapsed: 0.0005080699920654297
ell 475, elapsed: 0.0005948543548583984
ell 474, elapsed: 0.0004360675811767578
ell 473, elapsed: 0.0004410743713378906
ell 472, elapsed: 0.000431060791015625
ell 471, elapsed: 0.0005300045013427734
ell 470, elapsed: 0.00043892860412597656
ell 469, elapsed: 0.00042891502380371094
ell 468, elapsed: 0.0004398822784423828
ell 467, elapsed: 0.0004379749298095703
ell 466, elapsed: 0.0005738735198974609
ell 465, elapsed: 0.0005269050598144531
ell 464, elapsed: 0.0004401206970214844
ell 463, elapsed: 0.0005469322204589844
ell 462, elapsed: 0.00043487548828125
ell 461, elapsed: 0.00044989585876464844
ell 460, elapsed: 0.0004417896270751953
ell 459, elapsed: 0.00042891502380371094
ell 458, elapsed: 0.0004379749298095703
ell 457, elapsed: 0.00045108795166015625
ell 456, elapsed: 0.0004439353942871094
ell 455, elapsed: 0.0011317729949951172
ell 454, elapsed: 0.0007801055908203125
ell 453, elapsed: 0.0007941722869873047
ell 452, elapsed: 0.0007841587066650391
ell 451, elapsed: 0.0009050369262695312
ell 450, elapsed: 0.0004451274871826172
ell 449, elapsed: 0.00043892860412597656
ell 448, elapsed: 0.0004439353942871094
ell 447, elapsed: 0.0004379749298095703
ell 446, elapsed: 0.0004451274871826172
ell 445, elapsed: 0.0004379749298095703
ell 444, elapsed: 0.0006349086761474609
ell 443, elapsed: 0.0005791187286376953
ell 442, elapsed: 0.0005750656127929688
ell 441, elapsed: 0.000576019287109375
ell 440, elapsed: 0.0005779266357421875
ell 439, elapsed: 0.0005919933319091797
ell 438, elapsed: 0.0005671977996826172
ell 437, elapsed: 0.0005419254302978516
ell 436, elapsed: 0.0005509853363037109
ell 435, elapsed: 0.0005118846893310547
ell 434, elapsed: 0.0005259513854980469
ell 433, elapsed: 0.0005271434783935547
ell 432, elapsed: 0.0005269050598144531
ell 431, elapsed: 0.0005269050598144531
ell 430, elapsed: 0.0005280971527099609
ell 429, elapsed: 0.0005338191986083984
ell 428, elapsed: 0.0005571842193603516
ell 427, elapsed: 0.0005128383636474609
ell 426, elapsed: 0.0005519390106201172
ell 425, elapsed: 0.0005099773406982422
ell 424, elapsed: 0.0005280971527099609
ell 423, elapsed: 0.00055694580078125
ell 422, elapsed: 0.0008928775787353516
ell 421, elapsed: 0.0009219646453857422
ell 420, elapsed: 0.001010894775390625
ell 419, elapsed: 0.0005769729614257812
ell 418, elapsed: 0.0004930496215820312
ell 417, elapsed: 0.0004909038543701172
ell 416, elapsed: 0.0004889965057373047
ell 415, elapsed: 0.0005199909210205078
ell 414, elapsed: 0.0005328655242919922
ell 413, elapsed: 0.0005280971527099609
ell 412, elapsed: 0.0005278587341308594
ell 411, elapsed: 0.0005359649658203125
ell 410, elapsed: 0.0005259513854980469
ell 409, elapsed: 0.0005669593811035156
ell 408, elapsed: 0.0005350112915039062
ell 407, elapsed: 0.0005290508270263672
ell 406, elapsed: 0.0005309581756591797
ell 405, elapsed: 0.0005388259887695312
ell 404, elapsed: 0.0005640983581542969
ell 403, elapsed: 0.0005710124969482422
ell 402, elapsed: 0.0005309581756591797
ell 401, elapsed: 0.0005369186401367188
ell 400, elapsed: 0.0005331039428710938
ell 399, elapsed: 0.0005311965942382812
ell 398, elapsed: 0.0005309581756591797
ell 397, elapsed: 0.0005259513854980469
ell 396, elapsed: 0.0005269050598144531
ell 395, elapsed: 0.0005331039428710938
ell 394, elapsed: 0.0005221366882324219
ell 393, elapsed: 0.0005421638488769531
ell 392, elapsed: 0.0005300045013427734
ell 391, elapsed: 0.0007390975952148438
ell 390, elapsed: 0.0005440711975097656
ell 389, elapsed: 0.0005309581756591797
ell 388, elapsed: 0.003598928451538086
ell 387, elapsed: 0.0005509853363037109
ell 386, elapsed: 0.0005338191986083984
ell 385, elapsed: 0.0005290508270263672
ell 384, elapsed: 0.0005309581756591797
ell 383, elapsed: 0.0005249977111816406
ell 382, elapsed: 0.0005300045013427734
ell 381, elapsed: 0.0005409717559814453
ell 380, elapsed: 0.0005300045013427734
ell 379, elapsed: 0.0005538463592529297
ell 378, elapsed: 0.0005331039428710938
ell 377, elapsed: 0.0005440711975097656
ell 376, elapsed: 0.0005998611450195312
ell 375, elapsed: 0.0008971691131591797
ell 374, elapsed: 0.004914045333862305
ell 373, elapsed: 0.0004742145538330078
ell 372, elapsed: 0.0004470348358154297
ell 371, elapsed: 0.0004451274871826172
ell 370, elapsed: 0.0004367828369140625
ell 369, elapsed: 0.0004470348358154297
ell 368, elapsed: 0.0004520416259765625
ell 367, elapsed: 0.0004329681396484375
ell 366, elapsed: 0.00043487548828125
ell 365, elapsed: 0.0004410743713378906
ell 364, elapsed: 0.0004439353942871094
ell 363, elapsed: 0.0017309188842773438
ell 362, elapsed: 0.0005428791046142578
ell 361, elapsed: 0.0005350112915039062
ell 360, elapsed: 0.0006608963012695312
ell 359, elapsed: 0.0005548000335693359
ell 358, elapsed: 0.0005450248718261719
ell 357, elapsed: 0.0005428791046142578
ell 356, elapsed: 0.0005362033843994141
ell 355, elapsed: 0.0005428791046142578
ell 354, elapsed: 0.0005528926849365234
ell 353, elapsed: 0.0005271434783935547
ell 352, elapsed: 0.0005340576171875
ell 351, elapsed: 0.0005321502685546875
ell 350, elapsed: 0.000537872314453125
ell 349, elapsed: 0.0009331703186035156
ell 348, elapsed: 0.0005431175231933594
ell 347, elapsed: 0.00049591064453125
ell 346, elapsed: 0.0004930496215820312
ell 345, elapsed: 0.0004980564117431641
ell 344, elapsed: 0.0005559921264648438
ell 343, elapsed: 0.0005350112915039062
ell 342, elapsed: 0.0005290508270263672
ell 341, elapsed: 0.0005362033843994141
ell 340, elapsed: 0.0005359649658203125
ell 339, elapsed: 0.0005590915679931641
ell 338, elapsed: 0.0005228519439697266
ell 337, elapsed: 0.0005319118499755859
ell 336, elapsed: 0.0005230903625488281
ell 335, elapsed: 0.0005300045013427734
ell 334, elapsed: 0.0005288124084472656
ell 333, elapsed: 0.0013370513916015625
ell 332, elapsed: 0.0005290508270263672
ell 331, elapsed: 0.0005350112915039062
ell 330, elapsed: 0.0005290508270263672
ell 329, elapsed: 0.0005700588226318359
ell 328, elapsed: 0.0005171298980712891
ell 327, elapsed: 0.0005180835723876953
ell 326, elapsed: 0.0005238056182861328
ell 325, elapsed: 0.0005280971527099609
ell 324, elapsed: 0.0005309581756591797
ell 323, elapsed: 0.0012259483337402344
ell 322, elapsed: 0.0007119178771972656
ell 321, elapsed: 0.0004889965057373047
ell 320, elapsed: 0.0004990100860595703
ell 319, elapsed: 0.0005350112915039062
ell 318, elapsed: 0.0005090236663818359
ell 317, elapsed: 0.0004889965057373047
ell 316, elapsed: 0.0004909038543701172
ell 315, elapsed: 0.0004951953887939453
ell 314, elapsed: 0.0004930496215820312
ell 313, elapsed: 0.0006051063537597656
ell 312, elapsed: 0.0005300045013427734
ell 311, elapsed: 0.0005218982696533203
ell 310, elapsed: 0.0005309581756591797
ell 309, elapsed: 0.0007650852203369141
ell 308, elapsed: 0.0005578994750976562
ell 307, elapsed: 0.0005168914794921875
ell 306, elapsed: 0.0005290508270263672
ell 305, elapsed: 0.000514984130859375
ell 304, elapsed: 0.0005230903625488281
ell 303, elapsed: 0.0005590915679931641
ell 302, elapsed: 0.0005369186401367188
ell 301, elapsed: 0.0005249977111816406
ell 300, elapsed: 0.0007560253143310547
ell 299, elapsed: 0.0005300045013427734
ell 298, elapsed: 0.0005619525909423828
ell 297, elapsed: 0.0005199909210205078
ell 296, elapsed: 0.0005300045013427734
ell 295, elapsed: 0.0005180835723876953
ell 294, elapsed: 0.0005159378051757812
ell 293, elapsed: 0.000614166259765625
ell 292, elapsed: 0.0005400180816650391
ell 291, elapsed: 0.0005400180816650391
ell 290, elapsed: 0.0005431175231933594
ell 289, elapsed: 0.0005409717559814453
ell 288, elapsed: 0.0005450248718261719
ell 287, elapsed: 0.0005199909210205078
ell 286, elapsed: 0.0005440711975097656
ell 285, elapsed: 0.000514984130859375
ell 284, elapsed: 0.0005190372467041016
ell 283, elapsed: 0.0005190372467041016
ell 282, elapsed: 0.0005290508270263672
ell 281, elapsed: 0.0005130767822265625
ell 280, elapsed: 0.0005068778991699219
ell 279, elapsed: 0.0005259513854980469
ell 278, elapsed: 0.0006399154663085938
ell 277, elapsed: 0.0007159709930419922
ell 276, elapsed: 0.000614166259765625
ell 275, elapsed: 0.0007669925689697266
ell 274, elapsed: 0.0005960464477539062
ell 273, elapsed: 0.000598907470703125
ell 272, elapsed: 0.0005488395690917969
ell 271, elapsed: 0.0006089210510253906
ell 270, elapsed: 0.00061798095703125
ell 269, elapsed: 0.0005819797515869141
ell 268, elapsed: 0.0006239414215087891
ell 267, elapsed: 0.0006849765777587891
ell 266, elapsed: 0.000576019287109375
ell 265, elapsed: 0.00057220458984375
ell 264, elapsed: 0.0005619525909423828
ell 263, elapsed: 0.0008780956268310547
ell 262, elapsed: 0.0005738735198974609
ell 261, elapsed: 0.0006000995635986328
ell 260, elapsed: 0.0005769729614257812
ell 259, elapsed: 0.0006270408630371094
ell 258, elapsed: 0.0006489753723144531
ell 257, elapsed: 0.0006551742553710938
ell 256, elapsed: 0.0005979537963867188
ell 255, elapsed: 0.0006070137023925781
ell 254, elapsed: 0.0004420280456542969
ell 253, elapsed: 0.00042700767517089844
ell 252, elapsed: 0.00042891502380371094
ell 251, elapsed: 0.0004298686981201172
ell 250, elapsed: 0.0004220008850097656
ell 249, elapsed: 0.00043010711669921875
ell 248, elapsed: 0.00043201446533203125
ell 247, elapsed: 0.0012080669403076172
ell 246, elapsed: 0.0005218982696533203
ell 245, elapsed: 0.0005860328674316406
ell 244, elapsed: 0.0005459785461425781
ell 243, elapsed: 0.00047087669372558594
ell 242, elapsed: 0.0004909038543701172
ell 241, elapsed: 0.0005848407745361328
ell 240, elapsed: 0.0005979537963867188
ell 239, elapsed: 0.0006051063537597656
ell 238, elapsed: 0.0005970001220703125
ell 237, elapsed: 0.0007638931274414062
ell 236, elapsed: 0.0006799697875976562
ell 235, elapsed: 0.0005898475646972656
ell 234, elapsed: 0.0006430149078369141
ell 233, elapsed: 0.0006680488586425781
ell 232, elapsed: 0.0005750656127929688
ell 231, elapsed: 0.0005650520324707031
ell 230, elapsed: 0.0005729198455810547
ell 229, elapsed: 0.000598907470703125
ell 228, elapsed: 0.0005769729614257812
ell 227, elapsed: 0.0005781650543212891
ell 226, elapsed: 0.0005729198455810547
ell 225, elapsed: 0.0005519390106201172
ell 224, elapsed: 0.0006120204925537109
ell 223, elapsed: 0.0005950927734375
ell 222, elapsed: 0.0006008148193359375
ell 221, elapsed: 0.0005741119384765625
ell 220, elapsed: 0.0005931854248046875
ell 219, elapsed: 0.0005750656127929688
ell 218, elapsed: 0.0005841255187988281
ell 217, elapsed: 0.0005970001220703125
ell 216, elapsed: 0.0005960464477539062
ell 215, elapsed: 0.0006008148193359375
ell 214, elapsed: 0.0005998611450195312
ell 213, elapsed: 0.0006051063537597656
ell 212, elapsed: 0.0006940364837646484
ell 211, elapsed: 0.0005850791931152344
ell 210, elapsed: 0.000759124755859375
ell 209, elapsed: 0.0006041526794433594
ell 208, elapsed: 0.0006000995635986328
ell 207, elapsed: 0.0006029605865478516
ell 206, elapsed: 0.0005571842193603516
ell 205, elapsed: 0.0005548000335693359
ell 204, elapsed: 0.0005860328674316406
ell 203, elapsed: 0.0006029605865478516
ell 202, elapsed: 0.0006079673767089844
ell 201, elapsed: 0.0006189346313476562
ell 200, elapsed: 0.0006060600280761719
ell 199, elapsed: 0.0005779266357421875
ell 198, elapsed: 0.0005888938903808594
ell 197, elapsed: 0.0005979537963867188
ell 196, elapsed: 0.0005919933319091797
ell 195, elapsed: 0.0005970001220703125
ell 194, elapsed: 0.0005869865417480469
ell 193, elapsed: 0.0005750656127929688
ell 192, elapsed: 0.0005779266357421875
ell 191, elapsed: 0.00061798095703125
ell 190, elapsed: 0.0006840229034423828
ell 189, elapsed: 0.0005898475646972656
ell 188, elapsed: 0.0006060600280761719
ell 187, elapsed: 0.00048613548278808594
ell 186, elapsed: 0.0004329681396484375
ell 185, elapsed: 0.0004329681396484375
ell 184, elapsed: 0.0004279613494873047
ell 183, elapsed: 0.00042700767517089844
ell 182, elapsed: 0.0004229545593261719
ell 181, elapsed: 0.0004229545593261719
ell 180, elapsed: 0.0004329681396484375
ell 179, elapsed: 0.00043487548828125
ell 178, elapsed: 0.0015168190002441406
ell 177, elapsed: 0.0005750656127929688
ell 176, elapsed: 0.0006010532379150391
ell 175, elapsed: 0.0006279945373535156
ell 174, elapsed: 0.0006041526794433594
ell 173, elapsed: 0.0006039142608642578
ell 172, elapsed: 0.0005359649658203125
ell 171, elapsed: 0.00043201446533203125
ell 170, elapsed: 0.0004379749298095703
ell 169, elapsed: 0.0009250640869140625
ell 168, elapsed: 0.000659942626953125
ell 167, elapsed: 0.0005729198455810547
ell 166, elapsed: 0.0006079673767089844
ell 165, elapsed: 0.0006248950958251953
ell 164, elapsed: 0.0006520748138427734
ell 163, elapsed: 0.00043892860412597656
ell 162, elapsed: 0.00043010711669921875
ell 161, elapsed: 0.0004279613494873047
ell 160, elapsed: 0.00042819976806640625
ell 159, elapsed: 0.0004239082336425781
ell 158, elapsed: 0.0004291534423828125
ell 157, elapsed: 0.0011169910430908203
ell 156, elapsed: 0.0004401206970214844
ell 155, elapsed: 0.0004341602325439453
ell 154, elapsed: 0.00042510032653808594
ell 153, elapsed: 0.00043010711669921875
ell 152, elapsed: 0.0004329681396484375
ell 151, elapsed: 0.00043392181396484375
ell 150, elapsed: 0.0009770393371582031
ell 149, elapsed: 0.0004329681396484375
ell 148, elapsed: 0.00043082237243652344
ell 147, elapsed: 0.0004429817199707031
ell 146, elapsed: 0.0004439353942871094
ell 145, elapsed: 0.0004420280456542969
ell 144, elapsed: 0.00043892860412597656
ell 143, elapsed: 0.000926971435546875
ell 142, elapsed: 0.0007691383361816406
ell 141, elapsed: 0.0007729530334472656
ell 140, elapsed: 0.0007750988006591797
ell 139, elapsed: 0.001043081283569336
ell 138, elapsed: 0.0008871555328369141
ell 137, elapsed: 0.0009009838104248047
ell 136, elapsed: 0.0005061626434326172
ell 135, elapsed: 0.00043892860412597656
ell 134, elapsed: 0.00043702125549316406
ell 133, elapsed: 0.0004401206970214844
ell 132, elapsed: 0.0004420280456542969
ell 131, elapsed: 0.0004379749298095703
ell 130, elapsed: 0.0004420280456542969
ell 129, elapsed: 0.00044798851013183594
ell 128, elapsed: 0.0006301403045654297
ell 127, elapsed: 0.0005671977996826172
ell 126, elapsed: 0.0005719661712646484
ell 125, elapsed: 0.0005710124969482422
ell 124, elapsed: 0.0005788803100585938
ell 123, elapsed: 0.0005688667297363281
ell 122, elapsed: 0.0005469322204589844
ell 121, elapsed: 0.00044608116149902344
ell 120, elapsed: 0.00043892860412597656
ell 119, elapsed: 0.0004398822784423828
ell 118, elapsed: 0.00043511390686035156
ell 117, elapsed: 0.0004382133483886719
ell 116, elapsed: 0.00044918060302734375
ell 115, elapsed: 0.00043892860412597656
ell 114, elapsed: 0.0005550384521484375
ell 113, elapsed: 0.0005359649658203125
ell 112, elapsed: 0.0005400180816650391
ell 111, elapsed: 0.0004830360412597656
ell 110, elapsed: 0.0005400180816650391
ell 109, elapsed: 0.0004870891571044922
ell 108, elapsed: 0.0004940032958984375
ell 107, elapsed: 0.00043582916259765625
ell 106, elapsed: 0.00043201446533203125
ell 105, elapsed: 0.0004329681396484375
ell 104, elapsed: 0.0004379749298095703
ell 103, elapsed: 0.00043582916259765625
ell 102, elapsed: 0.0006351470947265625
ell 101, elapsed: 0.0006940364837646484
ell 100, elapsed: 0.0005369186401367188
ell 99, elapsed: 0.0005311965942382812
ell 98, elapsed: 0.0005300045013427734
ell 97, elapsed: 0.0005249977111816406
ell 96, elapsed: 0.0005259513854980469
ell 95, elapsed: 0.00044989585876464844
ell 94, elapsed: 0.00043702125549316406
ell 93, elapsed: 0.0004410743713378906
ell 92, elapsed: 0.0004448890686035156
ell 91, elapsed: 0.00044608116149902344
ell 90, elapsed: 0.0004448890686035156
ell 89, elapsed: 0.0004470348358154297
ell 88, elapsed: 0.00043892860412597656
ell 87, elapsed: 0.0005240440368652344
ell 86, elapsed: 0.0005319118499755859
ell 85, elapsed: 0.0005190372467041016
ell 84, elapsed: 0.0005230903625488281
ell 83, elapsed: 0.0007550716400146484
ell 82, elapsed: 0.0008039474487304688
ell 81, elapsed: 0.0005321502685546875
ell 80, elapsed: 0.0006489753723144531
ell 79, elapsed: 0.0005421638488769531
ell 78, elapsed: 0.0006418228149414062
ell 77, elapsed: 0.0005240440368652344
ell 76, elapsed: 0.0005168914794921875
ell 75, elapsed: 0.0005271434783935547
ell 74, elapsed: 0.0005168914794921875
ell 73, elapsed: 0.0005228519439697266
ell 72, elapsed: 0.0007359981536865234
ell 71, elapsed: 0.0005218982696533203
ell 70, elapsed: 0.000514984130859375
ell 69, elapsed: 0.0005359649658203125
ell 68, elapsed: 0.0006918907165527344
ell 67, elapsed: 0.00057220458984375
ell 66, elapsed: 0.00044989585876464844
ell 65, elapsed: 0.0004417896270751953
ell 64, elapsed: 0.0004420280456542969
ell 63, elapsed: 0.0004410743713378906
ell 62, elapsed: 0.0004451274871826172
ell 61, elapsed: 0.0009481906890869141
ell 60, elapsed: 0.0007309913635253906
ell 59, elapsed: 0.0005459785461425781
ell 58, elapsed: 0.0005369186401367188
ell 57, elapsed: 0.000759124755859375
ell 56, elapsed: 0.0005669593811035156
ell 55, elapsed: 0.0005428791046142578
ell 54, elapsed: 0.0007309913635253906
ell 53, elapsed: 0.0005600452423095703
ell 52, elapsed: 0.0005350112915039062
ell 51, elapsed: 0.0005269050598144531
ell 50, elapsed: 0.0005271434783935547
ell 49, elapsed: 0.0005259513854980469
ell 48, elapsed: 0.0005230903625488281
ell 47, elapsed: 0.0004899501800537109
ell 46, elapsed: 0.0004508495330810547
ell 45, elapsed: 0.0005290508270263672
ell 44, elapsed: 0.0005960464477539062
ell 43, elapsed: 0.0004379749298095703
ell 42, elapsed: 0.0004508495330810547
ell 41, elapsed: 0.00043892860412597656
ell 40, elapsed: 0.0006170272827148438
ell 39, elapsed: 0.0008089542388916016
ell 38, elapsed: 0.0006661415100097656
ell 37, elapsed: 0.0007889270782470703
ell 36, elapsed: 0.0005869865417480469
ell 35, elapsed: 0.0004639625549316406
ell 34, elapsed: 0.0004429817199707031
ell 33, elapsed: 0.0005791187286376953
ell 32, elapsed: 0.0005249977111816406
ell 31, elapsed: 0.0004470348358154297
ell 30, elapsed: 0.00044608116149902344
ell 29, elapsed: 0.00044608116149902344
ell 28, elapsed: 0.0005800724029541016
ell 27, elapsed: 0.00045108795166015625
ell 26, elapsed: 0.0004410743713378906
ell 25, elapsed: 0.0005748271942138672
ell 24, elapsed: 0.0006930828094482422
ell 23, elapsed: 0.0005221366882324219
ell 22, elapsed: 0.00043702125549316406
ell 21, elapsed: 0.0008878707885742188
ell 20, elapsed: 0.0005519390106201172
ell 19, elapsed: 0.0005400180816650391
ell 18, elapsed: 0.0004489421844482422
ell 17, elapsed: 0.0005900859832763672
ell 16, elapsed: 0.0008699893951416016
ell 15, elapsed: 0.0004558563232421875
ell 14, elapsed: 0.0005860328674316406
ell 13, elapsed: 0.0005130767822265625
ell 12, elapsed: 0.0004379749298095703
ell 11, elapsed: 0.0004451274871826172
ell 10, elapsed: 0.00043892860412597656
ell 9, elapsed: 0.0011138916015625
ell 8, elapsed: 0.0004329681396484375
ell 7, elapsed: 0.0004210472106933594
ell 6, elapsed: 0.0004229545593261719
ell 5, elapsed: 0.0004208087921142578
ell 4, elapsed: 0.0004210472106933594
ell 3, elapsed: 0.0004208087921142578
ell 2, elapsed: 0.0009469985961914062
ell 1, elapsed: 0.00042700767517089844
ell 0, elapsed: 0.0004200935363769531
  0.839436 seconds (103.62 k allocations: 3.970 MiB)
elapsed: 0.0004980564117431641
step:          0.071004 sec (0 allocations: 0 byte, 0.0% gc time)
swapping:      0.000771 sec (0 allocations: 0 byte, 0.0% gc time)
calc_Mellell!: 0.014294 sec (0 allocations: 0 byte, 0.0% gc time)
  t0 :  0.002523 sec (0 allocations: 0 byte, 0.0% gc time)
  tm2 : 0.122585 sec (0 allocations: 0 byte, 0.0% gc time)
  tm2s: 0.00205 sec (0 allocations: 0 byte, 0.0% gc time)
  tm4 : 0.284048 sec (0 allocations: 0 byte, 0.0% gc time)
  tp2 : 0.0 sec (0 allocations: 0 byte, 0.0% gc time)
  tp2s: 0.0 sec (0 allocations: 0 byte, 0.0% gc time)
  tp4 : 0.0 sec (0 allocations: 0 byte, 0.0% gc time)
calc_wtdll!:   0.452541 sec (9.9 k allocations: 1.047 MB, 0.0% gc time)
calc_wljj!:    0.055397 sec (689 allocations: 10.766 KB, 0.0% gc time)
mult_prefac!:  0.0 sec (0 allocations: 0 byte, 0.0% gc time)
convert:       0.0 sec (0 allocations: 0 byte, 0.0% gc time)
write:         0.047338 sec (0 allocations: 0 byte, 0.0% gc time)
test_rand_2f1: 0.0 sec (0 allocations: 0 byte, 0.0% gc time)
Closing outfile out/Ml21-cache.bin...   0.000005 seconds
  0.000519 seconds (36 allocations: 27.953 KiB)
make_phi():   0.002625 seconds (8.18 k allocations: 237.844 KiB)
  0.285712 seconds (141.90 k allocations: 3.483 MiB)
tskip:       0.001206 sec (0 allocations: 0 byte, 0.0% gc time)
tread:       0.036235 sec (17 allocations: 10.641 KB, 0.0% gc time)
tmultphi:    0.018376 sec (0 allocations: 0 byte, 0.0% gc time)
tbrfft:      0.071332 sec (0 allocations: 0 byte, 0.0% gc time)
tmultprefac: 0.056703 sec (0 allocations: 0 byte, 0.0% gc time)
toutfunc:    0.093858 sec (127.507 k allocations: 2.312 MB, 0.0% gc time)
Testing R=1.0 ... passed
Calculating fmax: 
  dlrec    = 4
  dlrecRg1 = -4
  q=1.1, R=0.9:	  0.531958 seconds (105.76 k allocations: 15.287 MiB)

  0.532211 seconds (105.98 k allocations: 15.323 MiB)
ℓ = 1202
Δℓ = 4
ΔℓRg1 = -4
N = 1600
q = 1.1
kmin = 1.0e-5
kmax = 100000.00000000004
χ0 = 0.023029999999999995
RR = RR.tsv
ℓmax = ℓmax.bin
f21 = f21.bin
kmin = 1.0e-5
kmax = 100000.0
dlrec    = 4
dlrecRg1 = -4
Output size: 5741568 bytes = 0.005347251892089844 GiB
Output size: 51264 bytes = 4.774332046508789e-5 GiB
Reading 'out/F21EllCache'...   0.001187 seconds (197 allocations: 84.203 KiB)
ellmax: 1202
lmaxcache: 1202
fell[:,1,1] = ComplexF64[1.3482014726274674e-57 - 3.302141236118086e-73im, 1.357860004724329e-57 - 3.3257978169518355e-73im]
ell 1202, elapsed: 2.5033950805664062e-5
ell 1201, elapsed: 0.0004038810729980469
ell 1200, elapsed: 0.00036907196044921875
ell 1199, elapsed: 0.0003719329833984375
ell 1198, elapsed: 0.0003750324249267578
ell 1002, elapsed: 0.013575077056884766
ell 1001, elapsed: 0.0004048347473144531
ell 1000, elapsed: 0.00037288665771484375
ell 999, elapsed: 0.0003650188446044922
ell 998, elapsed: 0.0003650188446044922
ell 902, elapsed: 0.006916046142578125
ell 901, elapsed: 0.0003859996795654297
ell 900, elapsed: 0.0003619194030761719
ell 899, elapsed: 0.0003619194030761719
ell 898, elapsed: 0.0003619194030761719
ell 802, elapsed: 0.006663084030151367
ell 801, elapsed: 0.0003809928894042969
ell 800, elapsed: 0.0011410713195800781
ell 799, elapsed: 0.00036215782165527344
ell 798, elapsed: 0.0003590583801269531
ell 702, elapsed: 0.006025075912475586
ell 701, elapsed: 0.00038909912109375
ell 700, elapsed: 0.0003650188446044922
ell 699, elapsed: 0.00036978721618652344
ell 698, elapsed: 0.0003619194030761719
ell 602, elapsed: 0.0057048797607421875
ell 601, elapsed: 0.0005741119384765625
ell 600, elapsed: 0.0005469322204589844
ell 599, elapsed: 0.0003571510314941406
ell 598, elapsed: 0.0003540515899658203
ell 502, elapsed: 0.004966020584106445
ell 501, elapsed: 0.0003590583801269531
ell 500, elapsed: 0.00035190582275390625
ell 499, elapsed: 0.00035190582275390625
ell 498, elapsed: 0.00038695335388183594
ell 402, elapsed: 0.005587100982666016
ell 401, elapsed: 0.0003788471221923828
ell 400, elapsed: 0.0003712177276611328
ell 399, elapsed: 0.0003731250762939453
ell 398, elapsed: 0.0003628730773925781
ell 302, elapsed: 0.005254030227661133
ell 301, elapsed: 0.0003859996795654297
ell 300, elapsed: 0.00036597251892089844
ell 299, elapsed: 0.0003688335418701172
ell 298, elapsed: 0.0003669261932373047
ell 202, elapsed: 0.0052030086517333984
ell 201, elapsed: 0.0005331039428710938
ell 200, elapsed: 0.00036406517028808594
ell 199, elapsed: 0.0003638267517089844
ell 198, elapsed: 0.0003619194030761719
ell 152, elapsed: 0.002792835235595703
ell 151, elapsed: 0.0003731250762939453
ell 150, elapsed: 0.00036597251892089844
ell 149, elapsed: 0.0003650188446044922
ell 148, elapsed: 0.0003609657287597656
ell 127, elapsed: 0.0014801025390625
ell 126, elapsed: 0.00047397613525390625
ell 125, elapsed: 0.00036716461181640625
ell 124, elapsed: 0.00036406517028808594
ell 123, elapsed: 0.0003669261932373047
ell 114, elapsed: 0.0008821487426757812
ell 113, elapsed: 0.0003650188446044922
ell 112, elapsed: 0.00036406517028808594
ell 111, elapsed: 0.0003600120544433594
ell 110, elapsed: 0.0004489421844482422
ell 102, elapsed: 0.0008339881896972656
ell 101, elapsed: 0.0003628730773925781
ell 100, elapsed: 0.0003650188446044922
ell 99, elapsed: 0.0003609657287597656
ell 98, elapsed: 0.00036406517028808594
ell 97, elapsed: 0.0004429817199707031
ell 96, elapsed: 0.0004379749298095703
ell 95, elapsed: 0.0005400180816650391
ell 94, elapsed: 0.0004382133483886719
ell 93, elapsed: 0.00045180320739746094
ell 92, elapsed: 0.0004260540008544922
ell 91, elapsed: 0.0004410743713378906
ell 90, elapsed: 0.0004260540008544922
ell 89, elapsed: 0.00043201446533203125
ell 88, elapsed: 0.0004379749298095703
ell 87, elapsed: 0.0005040168762207031
ell 86, elapsed: 0.0004379749298095703
ell 85, elapsed: 0.000431060791015625
ell 84, elapsed: 0.00043702125549316406
ell 83, elapsed: 0.00043201446533203125
ell 82, elapsed: 0.0004260540008544922
ell 81, elapsed: 0.000431060791015625
ell 80, elapsed: 0.00042891502380371094
ell 79, elapsed: 0.000514984130859375
ell 78, elapsed: 0.0004451274871826172
ell 77, elapsed: 0.0004239082336425781
ell 76, elapsed: 0.00043487548828125
ell 75, elapsed: 0.00043010711669921875
ell 74, elapsed: 0.00043892860412597656
ell 73, elapsed: 0.0004329681396484375
ell 72, elapsed: 0.00043201446533203125
ell 71, elapsed: 0.0007140636444091797
ell 70, elapsed: 0.00048613548278808594
ell 69, elapsed: 0.0004448890686035156
ell 68, elapsed: 0.00044798851013183594
ell 67, elapsed: 0.0004398822784423828
ell 66, elapsed: 0.0004470348358154297
ell 65, elapsed: 0.00043702125549316406
ell 64, elapsed: 0.00044608116149902344
ell 63, elapsed: 0.0005290508270263672
ell 62, elapsed: 0.0004439353942871094
ell 61, elapsed: 0.0004417896270751953
ell 60, elapsed: 0.0004420280456542969
ell 59, elapsed: 0.0004429817199707031
ell 58, elapsed: 0.0004448890686035156
ell 57, elapsed: 0.0004439353942871094
ell 56, elapsed: 0.0004420280456542969
ell 55, elapsed: 0.0005860328674316406
ell 54, elapsed: 0.00043392181396484375
ell 53, elapsed: 0.0004470348358154297
ell 52, elapsed: 0.0004379749298095703
ell 51, elapsed: 0.0004420280456542969
ell 50, elapsed: 0.00044083595275878906
ell 49, elapsed: 0.0004470348358154297
ell 48, elapsed: 0.0005540847778320312
ell 47, elapsed: 0.0006699562072753906
ell 46, elapsed: 0.00043010711669921875
ell 45, elapsed: 0.0004169940948486328
ell 44, elapsed: 0.00041604042053222656
ell 43, elapsed: 0.0004200935363769531
ell 42, elapsed: 0.0004169940948486328
ell 41, elapsed: 0.0004279613494873047
ell 40, elapsed: 0.0005030632019042969
ell 39, elapsed: 0.0004291534423828125
ell 38, elapsed: 0.0004210472106933594
ell 37, elapsed: 0.0004210472106933594
ell 36, elapsed: 0.00042700767517089844
ell 35, elapsed: 0.0004191398620605469
ell 34, elapsed: 0.00042510032653808594
ell 33, elapsed: 0.00042510032653808594
ell 32, elapsed: 0.00042819976806640625
ell 31, elapsed: 0.0005521774291992188
ell 30, elapsed: 0.0004391670227050781
ell 29, elapsed: 0.00044798851013183594
ell 28, elapsed: 0.0004420280456542969
ell 27, elapsed: 0.0004439353942871094
ell 26, elapsed: 0.00044608116149902344
ell 25, elapsed: 0.0004470348358154297
ell 24, elapsed: 0.0005321502685546875
ell 23, elapsed: 0.0004448890686035156
ell 22, elapsed: 0.0004439353942871094
ell 21, elapsed: 0.0004439353942871094
ell 20, elapsed: 0.00045299530029296875
ell 19, elapsed: 0.0004520416259765625
ell 18, elapsed: 0.0004470348358154297
ell 17, elapsed: 0.0004451274871826172
ell 16, elapsed: 0.0005400180816650391
ell 15, elapsed: 0.00043892860412597656
ell 14, elapsed: 0.0004570484161376953
ell 13, elapsed: 0.0004470348358154297
ell 12, elapsed: 0.00044798851013183594
ell 11, elapsed: 0.0004489421844482422
ell 10, elapsed: 0.0004458427429199219
ell 9, elapsed: 0.00045013427734375
ell 8, elapsed: 0.0005550384521484375
ell 7, elapsed: 0.00044608116149902344
ell 6, elapsed: 0.0005190372467041016
ell 5, elapsed: 0.0006139278411865234
ell 4, elapsed: 0.0004630088806152344
ell 3, elapsed: 0.00044608116149902344
ell 2, elapsed: 0.00045013427734375
ell 1, elapsed: 0.0005440711975097656
ell 0, elapsed: 0.0005109310150146484
  0.143394 seconds (19.53 k allocations: 844.969 KiB)
elapsed: 0.0007131099700927734
step:          0.066183 sec (0 allocations: 0 byte, 0.0% gc time)
swapping:      0.000516 sec (0 allocations: 0 byte, 0.0% gc time)
calc_Mellell!: 0.001452 sec (0 allocations: 0 byte, 0.0% gc time)
  t0 :  0.000304 sec (0 allocations: 0 byte, 0.0% gc time)
  tm2 : 0.014844 sec (0 allocations: 0 byte, 0.0% gc time)
  tm2s: 0.000286 sec (0 allocations: 0 byte, 0.0% gc time)
  tm4 : 0.035621 sec (0 allocations: 0 byte, 0.0% gc time)
  tp2 : 0.0 sec (0 allocations: 0 byte, 0.0% gc time)
  tp2s: 0.0 sec (0 allocations: 0 byte, 0.0% gc time)
  tp4 : 0.0 sec (0 allocations: 0 byte, 0.0% gc time)
calc_wtdll!:   0.051631 sec (1.344 k allocations: 147.0 KB, 0.0% gc time)
calc_wljj!:    0.004185 sec (6 allocations: 96 byte, 0.0% gc time)
mult_prefac!:  0.0 sec (0 allocations: 0 byte, 0.0% gc time)
convert:       0.0 sec (0 allocations: 0 byte, 0.0% gc time)
write:         0.004222 sec (0 allocations: 0 byte, 0.0% gc time)
test_rand_2f1: 0.0 sec (0 allocations: 0 byte, 0.0% gc time)
Closing outfile out/Ml21-cache.bin...   0.000005 seconds
  0.000292 seconds (36 allocations: 27.953 KiB)
make_phi():   0.002769 seconds (8.18 k allocations: 237.844 KiB)
  0.024457 seconds (11.65 k allocations: 308.688 KiB)
tskip:       2.8e-5 sec (0 allocations: 0 byte, 0.0% gc time)
tread:       0.003206 sec (17 allocations: 2.125 KB, 0.0% gc time)
tmultphi:    0.001648 sec (0 allocations: 0 byte, 0.0% gc time)
tbrfft:      0.005853 sec (0 allocations: 0 byte, 0.0% gc time)
tmultprefac: 0.005056 sec (0 allocations: 0 byte, 0.0% gc time)
toutfunc:    0.007988 sec (10.304 k allocations: 196.0 KB, 0.0% gc time)
Testing R=0.9 ... passed
Calculating fmax: 
  dlrec    = 4
  dlrecRg1 = -4
  q=1.1, R=0.8:	  0.412192 seconds (103.25 k allocations: 14.856 MiB)

  0.412513 seconds (103.48 k allocations: 14.893 MiB)
ℓ = 1202
Δℓ = 4
ΔℓRg1 = -4
N = 1600
q = 1.1
kmin = 1.0e-5
kmax = 100000.00000000004
χ0 = 0.023029999999999995
RR = RR.tsv
ℓmax = ℓmax.bin
f21 = f21.bin
kmin = 1.0e-5
kmax = 100000.0
dlrec    = 4
dlrecRg1 = -4
Output size: 5741568 bytes = 0.005347251892089844 GiB
Output size: 51264 bytes = 4.774332046508789e-5 GiB
Reading 'out/F21EllCache'...   0.001124 seconds (197 allocations: 84.203 KiB)
ellmax: 1202
lmaxcache: 1202
fell[:,1,1] = ComplexF64[7.519068145690986e-120 - 1.8416405474382574e-135im, 7.541664537386155e-120 - 1.847175067190611e-135im]
ell 1202, elapsed: 2.5987625122070312e-5
ell 1201, elapsed: 0.000492095947265625
ell 1200, elapsed: 0.00037789344787597656
ell 1199, elapsed: 0.0003762245178222656
ell 1198, elapsed: 0.0004410743713378906
ell 1002, elapsed: 0.010322093963623047
ell 1001, elapsed: 0.00039505958557128906
ell 1000, elapsed: 0.0003731250762939453
ell 999, elapsed: 0.0003750324249267578
ell 998, elapsed: 0.00049591064453125
ell 902, elapsed: 0.009440898895263672
ell 901, elapsed: 0.0004379749298095703
ell 900, elapsed: 0.0003719329833984375
ell 899, elapsed: 0.0004379749298095703
ell 898, elapsed: 0.000537872314453125
ell 802, elapsed: 0.013515949249267578
ell 801, elapsed: 0.00039696693420410156
ell 800, elapsed: 0.00038909912109375
ell 799, elapsed: 0.0003781318664550781
ell 798, elapsed: 0.00037097930908203125
ell 702, elapsed: 0.0066149234771728516
ell 701, elapsed: 0.0005021095275878906
ell 700, elapsed: 0.0003809928894042969
ell 699, elapsed: 0.00037097930908203125
ell 698, elapsed: 0.0004889965057373047
ell 602, elapsed: 0.0058019161224365234
ell 601, elapsed: 0.0004839897155761719
ell 600, elapsed: 0.0005481243133544922
ell 599, elapsed: 0.0006191730499267578
ell 598, elapsed: 0.0006139278411865234
ell 502, elapsed: 0.006378173828125
ell 501, elapsed: 0.0004019737243652344
ell 500, elapsed: 0.00037097930908203125
ell 499, elapsed: 0.00037479400634765625
ell 498, elapsed: 0.0003719329833984375
ell 402, elapsed: 0.0056629180908203125
ell 401, elapsed: 0.00039696693420410156
ell 400, elapsed: 0.00037407875061035156
ell 399, elapsed: 0.0003719329833984375
ell 398, elapsed: 0.00037407875061035156
ell 302, elapsed: 0.005764961242675781
ell 301, elapsed: 0.0004949569702148438
ell 300, elapsed: 0.00037407875061035156
ell 299, elapsed: 0.0003669261932373047
ell 298, elapsed: 0.0003650188446044922
ell 202, elapsed: 0.005326032638549805
ell 201, elapsed: 0.00039005279541015625
ell 200, elapsed: 0.00037217140197753906
ell 199, elapsed: 0.00045490264892578125
ell 198, elapsed: 0.00037288665771484375
ell 152, elapsed: 0.0027451515197753906
ell 151, elapsed: 0.0005681514739990234
ell 150, elapsed: 0.0005710124969482422
ell 149, elapsed: 0.0004429817199707031
ell 148, elapsed: 0.0005991458892822266
ell 127, elapsed: 0.0016760826110839844
ell 126, elapsed: 0.0004620552062988281
ell 125, elapsed: 0.00036597251892089844
ell 124, elapsed: 0.0003612041473388672
ell 123, elapsed: 0.0003669261932373047
ell 114, elapsed: 0.0008890628814697266
ell 113, elapsed: 0.0003669261932373047
ell 112, elapsed: 0.0003669261932373047
ell 111, elapsed: 0.0003719329833984375
ell 110, elapsed: 0.0004608631134033203
ell 102, elapsed: 0.0008299350738525391
ell 101, elapsed: 0.00036716461181640625
ell 100, elapsed: 0.00036597251892089844
ell 99, elapsed: 0.00036215782165527344
ell 98, elapsed: 0.00036907196044921875
ell 97, elapsed: 0.00043582916259765625
ell 96, elapsed: 0.00042700767517089844
ell 95, elapsed: 0.0005381107330322266
ell 94, elapsed: 0.0004367828369140625
ell 93, elapsed: 0.0004470348358154297
ell 92, elapsed: 0.00043582916259765625
ell 91, elapsed: 0.0004341602325439453
ell 90, elapsed: 0.0004489421844482422
ell 89, elapsed: 0.0004298686981201172
ell 88, elapsed: 0.0004439353942871094
ell 87, elapsed: 0.0005128383636474609
ell 86, elapsed: 0.0004439353942871094
ell 85, elapsed: 0.0004470348358154297
ell 84, elapsed: 0.0004410743713378906
ell 83, elapsed: 0.0004448890686035156
ell 82, elapsed: 0.0004410743713378906
ell 81, elapsed: 0.00043892860412597656
ell 80, elapsed: 0.0004420280456542969
ell 79, elapsed: 0.0005340576171875
ell 78, elapsed: 0.0004410743713378906
ell 77, elapsed: 0.0004451274871826172
ell 76, elapsed: 0.0004429817199707031
ell 75, elapsed: 0.0004410743713378906
ell 74, elapsed: 0.0005338191986083984
ell 73, elapsed: 0.0005831718444824219
ell 72, elapsed: 0.0005409717559814453
ell 71, elapsed: 0.0004379749298095703
ell 70, elapsed: 0.00044918060302734375
ell 69, elapsed: 0.00043702125549316406
ell 68, elapsed: 0.00045013427734375
ell 67, elapsed: 0.0004420280456542969
ell 66, elapsed: 0.0004401206970214844
ell 65, elapsed: 0.0004329681396484375
ell 64, elapsed: 0.0005109310150146484
ell 63, elapsed: 0.0006380081176757812
ell 62, elapsed: 0.0006480216979980469
ell 61, elapsed: 0.0005478858947753906
ell 60, elapsed: 0.0006229877471923828
ell 59, elapsed: 0.0005660057067871094
ell 58, elapsed: 0.00045800209045410156
ell 57, elapsed: 0.00043892860412597656
ell 56, elapsed: 0.0004467964172363281
ell 55, elapsed: 0.0004391670227050781
ell 54, elapsed: 0.0005910396575927734
ell 53, elapsed: 0.0005559921264648438
ell 52, elapsed: 0.0004329681396484375
ell 51, elapsed: 0.0006539821624755859
ell 50, elapsed: 0.00047397613525390625
ell 49, elapsed: 0.0004391670227050781
ell 48, elapsed: 0.00043392181396484375
ell 47, elapsed: 0.0006000995635986328
ell 46, elapsed: 0.0004940032958984375
ell 45, elapsed: 0.0004401206970214844
ell 44, elapsed: 0.0004439353942871094
[...]
ell 790, elapsed: 0.0009551048278808594
ell 789, elapsed: 0.0009109973907470703
ell 788, elapsed: 0.001341104507446289
ell 782, elapsed: 0.0015821456909179688
ell 781, elapsed: 0.0009639263153076172
ell 780, elapsed: 0.0009541511535644531
ell 779, elapsed: 0.0009438991546630859
ell 778, elapsed: 0.0008928775787353516
ell 772, elapsed: 0.0022470951080322266
ell 771, elapsed: 0.001210927963256836
ell 770, elapsed: 0.0013020038604736328
ell 769, elapsed: 0.0012998580932617188
ell 768, elapsed: 0.0013120174407958984
ell 762, elapsed: 0.0025129318237304688
ell 761, elapsed: 0.0012819766998291016
ell 760, elapsed: 0.001299142837524414
ell 759, elapsed: 0.0012938976287841797
ell 758, elapsed: 0.0012819766998291016
ell 752, elapsed: 0.002468109130859375
ell 751, elapsed: 0.0012850761413574219
ell 750, elapsed: 0.001138925552368164
ell 749, elapsed: 0.0009300708770751953
ell 748, elapsed: 0.0009469985961914062
ell 742, elapsed: 0.0016322135925292969
ell 741, elapsed: 0.0009510517120361328
ell 740, elapsed: 0.000949859619140625
ell 739, elapsed: 0.0009291172027587891
ell 738, elapsed: 0.0011088848114013672
ell 732, elapsed: 0.0016121864318847656
ell 731, elapsed: 0.0011830329895019531
ell 730, elapsed: 0.0015468597412109375
ell 729, elapsed: 0.0011928081512451172
ell 728, elapsed: 0.0009248256683349609
ell 722, elapsed: 0.002137899398803711
ell 721, elapsed: 0.0011861324310302734
ell 720, elapsed: 0.0009288787841796875
ell 719, elapsed: 0.0013589859008789062
ell 718, elapsed: 0.0008420944213867188
ell 712, elapsed: 0.0016698837280273438
ell 711, elapsed: 0.0009250640869140625
ell 710, elapsed: 0.0012028217315673828
ell 709, elapsed: 0.0011858940124511719
ell 708, elapsed: 0.001277923583984375
ell 702, elapsed: 0.002917051315307617
ell 701, elapsed: 0.001283884048461914
ell 700, elapsed: 0.0012798309326171875
ell 699, elapsed: 0.0017330646514892578
ell 698, elapsed: 0.0012698173522949219
ell 692, elapsed: 0.002938985824584961
ell 691, elapsed: 0.0010449886322021484
ell 690, elapsed: 0.0008580684661865234
ell 689, elapsed: 0.0013279914855957031
ell 688, elapsed: 0.0008740425109863281
ell 682, elapsed: 0.00232696533203125
ell 681, elapsed: 0.0013070106506347656
ell 680, elapsed: 0.0013599395751953125
ell 679, elapsed: 0.0017440319061279297
ell 678, elapsed: 0.0010869503021240234
ell 672, elapsed: 0.002794027328491211
ell 671, elapsed: 0.0012028217315673828
ell 670, elapsed: 0.0012841224670410156
ell 669, elapsed: 0.0017380714416503906
ell 668, elapsed: 0.0011069774627685547
ell 662, elapsed: 0.002791881561279297
ell 661, elapsed: 0.0012271404266357422
ell 660, elapsed: 0.0019011497497558594
ell 659, elapsed: 0.0008478164672851562
ell 658, elapsed: 0.0009219646453857422
ell 652, elapsed: 0.0021810531616210938
ell 651, elapsed: 0.0011518001556396484
ell 650, elapsed: 0.0009250640869140625
ell 649, elapsed: 0.00138092041015625
ell 648, elapsed: 0.0008931159973144531
ell 642, elapsed: 0.0016009807586669922
ell 641, elapsed: 0.001522064208984375
ell 640, elapsed: 0.0009150505065917969
ell 639, elapsed: 0.0008699893951416016
ell 638, elapsed: 0.0008559226989746094
ell 632, elapsed: 0.0016269683837890625
ell 631, elapsed: 0.0009012222290039062
ell 630, elapsed: 0.001383066177368164
ell 629, elapsed: 0.0008680820465087891
ell 628, elapsed: 0.0009219646453857422
ell 622, elapsed: 0.002012968063354492
ell 621, elapsed: 0.0009009838104248047
ell 620, elapsed: 0.0009129047393798828
ell 619, elapsed: 0.0008828639984130859
ell 618, elapsed: 0.0013909339904785156
ell 612, elapsed: 0.0021419525146484375
ell 611, elapsed: 0.0016760826110839844
ell 610, elapsed: 0.0012559890747070312
ell 609, elapsed: 0.0016050338745117188
ell 608, elapsed: 0.0013489723205566406
ell 602, elapsed: 0.0017371177673339844
ell 601, elapsed: 0.0016169548034667969
ell 600, elapsed: 0.000926971435546875
ell 599, elapsed: 0.0009019374847412109
ell 598, elapsed: 0.0015189647674560547
ell 592, elapsed: 0.0021882057189941406
ell 591, elapsed: 0.0014820098876953125
ell 590, elapsed: 0.001374959945678711
ell 589, elapsed: 0.0013110637664794922
ell 588, elapsed: 0.00177001953125
ell 582, elapsed: 0.003364086151123047
ell 581, elapsed: 0.0009429454803466797
ell 580, elapsed: 0.0013010501861572266
ell 579, elapsed: 0.001990079879760742
ell 578, elapsed: 0.0012998580932617188
ell 572, elapsed: 0.0029990673065185547
ell 571, elapsed: 0.001531839370727539
ell 570, elapsed: 0.002032041549682617
ell 569, elapsed: 0.0012879371643066406
ell 568, elapsed: 0.0018990039825439453
ell 562, elapsed: 0.0029239654541015625
ell 561, elapsed: 0.0019290447235107422
ell 560, elapsed: 0.0013048648834228516
ell 559, elapsed: 0.0021038055419921875
ell 558, elapsed: 0.0012059211730957031
ell 552, elapsed: 0.003000974655151367
ell 551, elapsed: 0.0012221336364746094
ell 550, elapsed: 0.001987934112548828
ell 549, elapsed: 0.001589059829711914
ell 548, elapsed: 0.001859903335571289
ell 542, elapsed: 0.002580881118774414
ell 541, elapsed: 0.0018990039825439453
ell 540, elapsed: 0.0013148784637451172
ell 539, elapsed: 0.001775979995727539
ell 538, elapsed: 0.0013170242309570312
ell 532, elapsed: 0.0030241012573242188
ell 531, elapsed: 0.0013341903686523438
ell 530, elapsed: 0.0017960071563720703
ell 529, elapsed: 0.0013048648834228516
ell 528, elapsed: 0.001310110092163086
ell 522, elapsed: 0.0029609203338623047
ell 521, elapsed: 0.0012888908386230469
ell 520, elapsed: 0.001744985580444336
ell 519, elapsed: 0.001277923583984375
ell 518, elapsed: 0.001734018325805664
ell 512, elapsed: 0.0022230148315429688
ell 511, elapsed: 0.0016720294952392578
ell 510, elapsed: 0.0012888908386230469
ell 509, elapsed: 0.0013020038604736328
ell 508, elapsed: 0.001753091812133789
ell 502, elapsed: 0.002485036849975586
ell 501, elapsed: 0.0019979476928710938
ell 500, elapsed: 0.0012059211730957031
ell 499, elapsed: 0.0017650127410888672
ell 498, elapsed: 0.0009009838104248047
ell 492, elapsed: 0.0016930103302001953
ell 491, elapsed: 0.001199960708618164
ell 490, elapsed: 0.00109100341796875
ell 489, elapsed: 0.00084686279296875
ell 488, elapsed: 0.0009949207305908203
ell 482, elapsed: 0.001828908920288086
ell 481, elapsed: 0.0009219646453857422
ell 480, elapsed: 0.0008878707885742188
ell 479, elapsed: 0.001191854476928711
ell 478, elapsed: 0.0008859634399414062
ell 472, elapsed: 0.0016529560089111328
ell 471, elapsed: 0.0009210109710693359
ell 470, elapsed: 0.0008788108825683594
ell 469, elapsed: 0.0009150505065917969
ell 468, elapsed: 0.0008890628814697266
ell 462, elapsed: 0.0016770362854003906
ell 461, elapsed: 0.0009150505065917969
ell 460, elapsed: 0.0008528232574462891
ell 459, elapsed: 0.0009188652038574219
ell 458, elapsed: 0.0009148120880126953
ell 452, elapsed: 0.001550912857055664
ell 451, elapsed: 0.0009329319000244141
ell 450, elapsed: 0.0009210109710693359
ell 449, elapsed: 0.0009219646453857422
ell 448, elapsed: 0.000926971435546875
ell 442, elapsed: 0.0015499591827392578
ell 441, elapsed: 0.0009169578552246094
ell 440, elapsed: 0.0009219646453857422
ell 439, elapsed: 0.0009169578552246094
ell 438, elapsed: 0.0009241104125976562
ell 432, elapsed: 0.001558065414428711
ell 431, elapsed: 0.0012240409851074219
ell 430, elapsed: 0.0010228157043457031
ell 429, elapsed: 0.0009980201721191406
ell 428, elapsed: 0.0009238719940185547
ell 422, elapsed: 0.0017650127410888672
ell 421, elapsed: 0.0009319782257080078
ell 420, elapsed: 0.0009701251983642578
ell 419, elapsed: 0.0010099411010742188
ell 418, elapsed: 0.0009551048278808594
ell 412, elapsed: 0.0017330646514892578
ell 411, elapsed: 0.0009710788726806641
ell 410, elapsed: 0.0009999275207519531
ell 409, elapsed: 0.0011551380157470703
ell 408, elapsed: 0.0012409687042236328
ell 402, elapsed: 0.0027070045471191406
ell 401, elapsed: 0.0014109611511230469
ell 400, elapsed: 0.0013098716735839844
ell 399, elapsed: 0.0013048648834228516
ell 398, elapsed: 0.0010209083557128906
ell 392, elapsed: 0.0018270015716552734
ell 391, elapsed: 0.0009889602661132812
ell 390, elapsed: 0.001049041748046875
ell 389, elapsed: 0.0010478496551513672
ell 388, elapsed: 0.0009579658508300781
ell 382, elapsed: 0.0018050670623779297
ell 381, elapsed: 0.0010020732879638672
ell 380, elapsed: 0.0010538101196289062
ell 379, elapsed: 0.001007080078125
ell 378, elapsed: 0.0010440349578857422
ell 372, elapsed: 0.001947164535522461
ell 371, elapsed: 0.0009808540344238281
ell 370, elapsed: 0.001046895980834961
ell 369, elapsed: 0.0010218620300292969
ell 368, elapsed: 0.001043081283569336
ell 362, elapsed: 0.0016388893127441406
ell 361, elapsed: 0.0010609626770019531
ell 360, elapsed: 0.0010459423065185547
ell 359, elapsed: 0.0010409355163574219
ell 358, elapsed: 0.0010068416595458984
ell 352, elapsed: 0.0017778873443603516
ell 351, elapsed: 0.0009319782257080078
ell 350, elapsed: 0.0009729862213134766
ell 349, elapsed: 0.0010378360748291016
ell 348, elapsed: 0.0010378360748291016
ell 342, elapsed: 0.0019648075103759766
ell 341, elapsed: 0.0009868144989013672
ell 340, elapsed: 0.0012030601501464844
ell 339, elapsed: 0.0013208389282226562
ell 338, elapsed: 0.001325845718383789
ell 332, elapsed: 0.0025191307067871094
ell 331, elapsed: 0.001341104507446289
ell 330, elapsed: 0.0016169548034667969
ell 329, elapsed: 0.0013298988342285156
ell 328, elapsed: 0.0013659000396728516
ell 322, elapsed: 0.002524137496948242
ell 321, elapsed: 0.0017230510711669922
ell 320, elapsed: 0.0019330978393554688
ell 319, elapsed: 0.0009129047393798828
ell 318, elapsed: 0.0010449886322021484
ell 312, elapsed: 0.001708984375
ell 311, elapsed: 0.0010409355163574219
ell 310, elapsed: 0.0015518665313720703
ell 309, elapsed: 0.0009760856628417969
ell 308, elapsed: 0.0010461807250976562
ell 302, elapsed: 0.0017290115356445312
ell 301, elapsed: 0.0010838508605957031
ell 300, elapsed: 0.0013270378112792969
ell 299, elapsed: 0.0012629032135009766
ell 298, elapsed: 0.0012440681457519531
ell 292, elapsed: 0.00180816650390625
ell 291, elapsed: 0.001299142837524414
ell 290, elapsed: 0.0013980865478515625
ell 289, elapsed: 0.0009629726409912109
ell 288, elapsed: 0.0010521411895751953
ell 282, elapsed: 0.0017480850219726562
ell 281, elapsed: 0.0010561943054199219
ell 280, elapsed: 0.0010328292846679688
ell 279, elapsed: 0.0010218620300292969
ell 278, elapsed: 0.0010330677032470703
ell 272, elapsed: 0.001708984375
ell 271, elapsed: 0.0010631084442138672
ell 270, elapsed: 0.0010640621185302734
ell 269, elapsed: 0.0012371540069580078
ell 268, elapsed: 0.0013360977172851562
ell 262, elapsed: 0.003047943115234375
ell 261, elapsed: 0.001310110092163086
ell 260, elapsed: 0.0013480186462402344
ell 259, elapsed: 0.0013430118560791016
ell 258, elapsed: 0.0013418197631835938
ell 252, elapsed: 0.0020780563354492188
ell 251, elapsed: 0.0010008811950683594
ell 250, elapsed: 0.0010669231414794922
ell 249, elapsed: 0.0010559558868408203
ell 248, elapsed: 0.0009930133819580078
ell 242, elapsed: 0.0018150806427001953
ell 241, elapsed: 0.00125885009765625
ell 240, elapsed: 0.0010600090026855469
ell 239, elapsed: 0.0010638236999511719
ell 238, elapsed: 0.0009911060333251953
ell 232, elapsed: 0.0019960403442382812
ell 231, elapsed: 0.0009179115295410156
ell 230, elapsed: 0.001088857650756836
ell 229, elapsed: 0.0010869503021240234
ell 228, elapsed: 0.0010180473327636719
ell 222, elapsed: 0.0017628669738769531
ell 221, elapsed: 0.0009191036224365234
ell 220, elapsed: 0.0008780956268310547
ell 219, elapsed: 0.0006968975067138672
ell 218, elapsed: 0.0009400844573974609
ell 212, elapsed: 0.0016281604766845703
ell 211, elapsed: 0.0010199546813964844
ell 210, elapsed: 0.0010287761688232422
ell 209, elapsed: 0.001188039779663086
ell 208, elapsed: 0.0010809898376464844
ell 202, elapsed: 0.001653909683227539
ell 201, elapsed: 0.0011060237884521484
ell 200, elapsed: 0.0010178089141845703
ell 199, elapsed: 0.00109100341796875
ell 198, elapsed: 0.0009410381317138672
ell 192, elapsed: 0.0017981529235839844
ell 191, elapsed: 0.0009541511535644531
ell 190, elapsed: 0.0014030933380126953
ell 189, elapsed: 0.0009341239929199219
ell 188, elapsed: 0.0011560916900634766
ell 182, elapsed: 0.0016050338745117188
ell 181, elapsed: 0.00102996826171875
ell 180, elapsed: 0.0013668537139892578
ell 179, elapsed: 0.0013589859008789062
ell 178, elapsed: 0.001958131790161133
ell 172, elapsed: 0.002878904342651367
ell 171, elapsed: 0.0012750625610351562
ell 170, elapsed: 0.0011570453643798828
ell 169, elapsed: 0.001110076904296875
ell 168, elapsed: 0.0012030601501464844
ell 162, elapsed: 0.0024709701538085938
ell 161, elapsed: 0.0009310245513916016
ell 160, elapsed: 0.0012459754943847656
ell 159, elapsed: 0.0010409355163574219
ell 158, elapsed: 0.0009200572967529297
ell 152, elapsed: 0.0020198822021484375
ell 151, elapsed: 0.0009698867797851562
ell 150, elapsed: 0.0010390281677246094
ell 149, elapsed: 0.0013630390167236328
ell 148, elapsed: 0.0013170242309570312
ell 142, elapsed: 0.0023429393768310547
ell 141, elapsed: 0.0011501312255859375
ell 140, elapsed: 0.0010809898376464844
ell 139, elapsed: 0.0009961128234863281
ell 138, elapsed: 0.0010988712310791016
ell 132, elapsed: 0.0017671585083007812
ell 131, elapsed: 0.0011081695556640625
ell 130, elapsed: 0.0010781288146972656
ell 129, elapsed: 0.0010080337524414062
ell 128, elapsed: 0.0011000633239746094
ell 122, elapsed: 0.0017080307006835938
ell 121, elapsed: 0.001035928726196289
ell 120, elapsed: 0.0010190010070800781
ell 119, elapsed: 0.0010981559753417969
ell 118, elapsed: 0.0009469985961914062
ell 112, elapsed: 0.0017888545989990234
ell 111, elapsed: 0.0009660720825195312
ell 110, elapsed: 0.0013790130615234375
ell 109, elapsed: 0.0009050369262695312
ell 108, elapsed: 0.001027822494506836
ell 102, elapsed: 0.0017402172088623047
ell 101, elapsed: 0.003612995147705078
ell 100, elapsed: 0.003838777542114258
ell 99, elapsed: 0.004408121109008789
ell 98, elapsed: 0.0035581588745117188
ell 92, elapsed: 0.006367921829223633
ell 91, elapsed: 0.00409698486328125
ell 90, elapsed: 0.004168987274169922
ell 89, elapsed: 0.003721952438354492
ell 88, elapsed: 0.004051923751831055
ell 82, elapsed: 0.006414175033569336
ell 81, elapsed: 0.0037598609924316406
ell 80, elapsed: 0.0039000511169433594
ell 79, elapsed: 0.004943132400512695
ell 78, elapsed: 0.004759788513183594
ell 72, elapsed: 0.008941173553466797
ell 71, elapsed: 0.0050508975982666016
ell 70, elapsed: 0.003615140914916992
ell 69, elapsed: 0.0038089752197265625
ell 68, elapsed: 0.004066944122314453
ell 62, elapsed: 0.006515979766845703
ell 61, elapsed: 0.003911018371582031
ell 60, elapsed: 0.003931999206542969
ell 59, elapsed: 0.003618001937866211
ell 58, elapsed: 0.0038559436798095703
ell 52, elapsed: 0.008979082107543945
ell 51, elapsed: 0.0052700042724609375
ell 50, elapsed: 0.005053997039794922
ell 49, elapsed: 0.005067110061645508
ell 48, elapsed: 0.007230997085571289
ell 42, elapsed: 0.008893966674804688
ell 41, elapsed: 0.004827022552490234
ell 40, elapsed: 0.003322124481201172
ell 39, elapsed: 0.005568981170654297
ell 38, elapsed: 0.0048520565032958984
ell 32, elapsed: 0.007788181304931641
ell 31, elapsed: 0.003818988800048828
ell 30, elapsed: 0.003862142562866211
ell 29, elapsed: 0.003471851348876953
ell 28, elapsed: 0.0043179988861083984
ell 22, elapsed: 0.006622791290283203
ell 21, elapsed: 0.0040509700775146484
ell 20, elapsed: 0.0038537979125976562
ell 19, elapsed: 0.003927946090698242
ell 18, elapsed: 0.0041811466217041016
ell 12, elapsed: 0.006186008453369141
ell 11, elapsed: 0.004197835922241211
ell 10, elapsed: 0.003859996795654297
ell 9, elapsed: 0.0038080215454101562
ell 8, elapsed: 0.003468036651611328
  1.122184 seconds (97.69 k allocations: 12.621 MiB)
elapsed: 0.005441188812255859
step:          0.077091 sec (0 allocations: 0 byte, 0.0% gc time)
swapping:      0.000808 sec (0 allocations: 0 byte, 0.0% gc time)
calc_Mellell!: 0.064698 sec (0 allocations: 0 byte, 0.0% gc time)
  t0 :  0.010759 sec (0 allocations: 0 byte, 0.0% gc time)
  tm2 : 0.093157 sec (0 allocations: 0 byte, 0.0% gc time)
  tm2s: 0.010917 sec (0 allocations: 0 byte, 0.0% gc time)
  tm4 : 0.218583 sec (0 allocations: 0 byte, 0.0% gc time)
  tp2 : 0.0 sec (0 allocations: 0 byte, 0.0% gc time)
  tp2s: 0.0 sec (0 allocations: 0 byte, 0.0% gc time)
  tp4 : 0.0 sec (0 allocations: 0 byte, 0.0% gc time)
calc_wtdll!:   0.673719 sec (48.6 k allocations: 11.096 MB, 0.0% gc time)
calc_wljj!:    0.046105 sec (69 allocations: 1.078 KB, 0.0% gc time)
mult_prefac!:  0.0 sec (0 allocations: 0 byte, 0.0% gc time)
convert:       0.0 sec (0 allocations: 0 byte, 0.0% gc time)
write:         0.044242 sec (0 allocations: 0 byte, 0.0% gc time)
test_rand_2f1: 0.0 sec (0 allocations: 0 byte, 0.0% gc time)
Closing outfile out/MlCache/MlCache.bin...   0.000126 seconds
xi, l=0, nu=0:   0.639876 seconds (602.77 k allocations: 32.922 MiB)
xi, l=0, nu=-2:  0.004739 seconds (114 allocations: 148.969 KiB)
Created 'out/xi.tsv'.
  q=1.1, R=0.6:	  1.130681 seconds (264.52 k allocations: 38.099 MiB, 6.52% gc time)
  q=1.1, R=0.7:	  1.040815 seconds (276.46 k allocations: 40.114 MiB)
  q=1.1, R=0.8:	  1.055755 seconds (271.68 k allocations: 39.302 MiB, 2.32% gc time)
  q=1.1, R=0.9:	  1.148127 seconds (266.62 k allocations: 38.459 MiB, 2.27% gc time)
  q=1.1, R=0.998:	 23.753473 seconds (114.96 k allocations: 7.588 MiB)
  q=1.1, R=1.0:	  0.004042 seconds (8.20 k allocations: 704.344 KiB)

ℓ = 1000
Δℓ = 4
ΔℓRg1 = -4
N = 4096
q = 1.1
kmin = 1.0e-5
kmax = 1000.0
χ0 = 0.001
RR = RR.tsv
ℓmax = ℓmax.bin
f21 = f21.bin
kmin = 1.0e-5
kmax = 1000.0
dlrec    = 4
dlrecRg1 = -4
Output size: 1573632 bytes = 0.0014655590057373047 GiB
Output size: 786816 bytes = 0.0007327795028686523 GiB
Reading 'out/F21EllCache'...   0.001426 seconds (198 allocations: 533.078 KiB)
ellmax: 1002
lmaxcache: 1000
fell[:,1,1] = ComplexF64[1.7262928128202118e-224 - 4.2281979352226944e-240im, 1.7282693092099662e-224 - 4.233038955177176e-240im]
ell 1002, elapsed: 8.082389831542969e-5
ell 1001, elapsed: 0.0008399486541748047
ell 1000, elapsed: 0.000827789306640625
ell 999, elapsed: 0.006033897399902344
ell 998, elapsed: 0.005980014801025391
ell 44, elapsed: 0.869816780090332
ell 43, elapsed: 0.006308078765869141
ell 42, elapsed: 0.006264925003051758
ell 41, elapsed: 0.006195068359375
ell 40, elapsed: 0.005921840667724609
  0.918246 seconds (5.08 k allocations: 329.516 KiB)
elapsed: 0.008216142654418945
step:          0.865842 sec (0 allocations: 0 byte, 0.0% gc time)
swapping:      0.000469 sec (0 allocations: 0 byte, 0.0% gc time)
calc_Mellell!: 0.001355 sec (0 allocations: 0 byte, 0.0% gc time)
  t0 :  0.000518 sec (0 allocations: 0 byte, 0.0% gc time)
  tm2 : 0.010176 sec (0 allocations: 0 byte, 0.0% gc time)
  tm2s: 0.000427 sec (0 allocations: 0 byte, 0.0% gc time)
  tm4 : 0.028198 sec (0 allocations: 0 byte, 0.0% gc time)
  tp2 : 0.0 sec (0 allocations: 0 byte, 0.0% gc time)
  tp2s: 0.0 sec (0 allocations: 0 byte, 0.0% gc time)
  tp4 : 0.0 sec (0 allocations: 0 byte, 0.0% gc time)
calc_wtdll!:   0.039501 sec (480 allocations: 52.5 KB, 0.0% gc time)
calc_wljj!:    0.001185 sec (1 allocations: 16 byte, 0.0% gc time)
mult_prefac!:  0.0 sec (0 allocations: 0 byte, 0.0% gc time)
convert:       0.0 sec (0 allocations: 0 byte, 0.0% gc time)
write:         0.000948 sec (0 allocations: 0 byte, 0.0% gc time)
test_rand_2f1: 0.0 sec (0 allocations: 0 byte, 0.0% gc time)
Closing outfile out/MlCache/MlCache.bin...   0.000007 seconds
  0.491170 seconds (38 allocations: 66.859 KiB)
make_phi():   0.009768 seconds (65 allocations: 275.984 KiB)
  0.041218 seconds (11.44 k allocations: 712.460 KiB)
tskip:       1.0e-6 sec (0 allocations: 0 byte, 0.0% gc time)
tread:       0.000759 sec (17 allocations: 1.266 KB, 0.0% gc time)
tmultphi:    0.000318 sec (0 allocations: 0 byte, 0.0% gc time)
tbrfft:      0.0014 sec (0 allocations: 0 byte, 0.0% gc time)
tmultprefac: 0.001138 sec (0 allocations: 0 byte, 0.0% gc time)
toutfunc:    0.000151 sec (0 allocations: 0 byte, 0.0% gc time)
Created 'out/wl42_jj00.tsv'.
Created 'out/wl42_jj02.tsv'.
    Testing TwoFAST tests passed 
