Julia Version 1.6.0-DEV.993
Commit 5a86131b14* (2020-09-21 17:04 UTC)
Platform Info:
  OS: Linux (x86_64-linux-gnu)
  CPU: Intel(R) Xeon(R) Silver 4114 CPU @ 2.20GHz
  WORD_SIZE: 64
  LIBM: libopenlibm
  LLVM: libLLVM-9.0.1 (ORCJIT, skylake-avx512)
Environment:
  JULIA_DEPOT_PATH = ::/usr/local/share/julia
  JULIA_NUM_THREADS = 2

  Resolving package versions...
  Installed CompilerSupportLibraries_jll ─ v0.3.3+0
  Installed OpenSpecFun_jll ────────────── v0.5.3+3
  Installed FFTW ───────────────────────── v1.2.4
  Installed Reexport ───────────────────── v0.2.0
  Installed TwoFAST ────────────────────── v0.1.3
  Installed BinaryProvider ─────────────── v0.5.10
  Installed IntelOpenMP_jll ────────────── v2018.0.3+0
  Installed GenericSchur ───────────────── v0.4.0
  Installed AbstractFFTs ───────────────── v0.5.0
  Installed MKL_jll ────────────────────── v2020.2.254+0
  Installed Readables ──────────────────── v0.3.3
  Installed FFTW_jll ───────────────────── v3.3.9+5
  Installed GenericSVD ─────────────────── v0.3.0
  Installed ArbNumerics ────────────────── v1.2.1
  Installed SpecialFunctions ───────────── v0.10.3
Updating `~/.julia/environments/v1.6/Project.toml`
  [0dd23c3e] + TwoFAST v0.1.3
Updating `~/.julia/environments/v1.6/Manifest.toml`
  [621f4979] + AbstractFFTs v0.5.0
  [7e558dbc] + ArbNumerics v1.2.1
  [b99e7846] + BinaryProvider v0.5.10
  [e66e0078] + CompilerSupportLibraries_jll v0.3.3+0
  [7a1cc6ca] + FFTW v1.2.4
  [f5851436] + FFTW_jll v3.3.9+5
  [01680d73] + GenericSVD v0.3.0
  [c145ed77] + GenericSchur v0.4.0
  [1d5cc7b8] + IntelOpenMP_jll v2018.0.3+0
  [856f044c] + MKL_jll v2020.2.254+0
  [efe28fd5] + OpenSpecFun_jll v0.5.3+3
  [0d4725de] + Readables v0.3.3
  [189a3867] + Reexport v0.2.0
  [276daf66] + SpecialFunctions v0.10.3
  [0dd23c3e] + TwoFAST v0.1.3
  [56f22d72] + Artifacts
  [2a0f44e3] + Base64
  [ade2ca70] + Dates
  [8bb1440f] + DelimitedFiles
  [8ba89e20] + Distributed
  [b77e0a4c] + InteractiveUtils
  [76f85450] + LibGit2
  [8f399da3] + Libdl
  [37e2e46d] + LinearAlgebra
  [56ddb016] + Logging
  [d6f4376e] + Markdown
  [a63ad114] + Mmap
  [44cfe95a] + Pkg
  [de0858da] + Printf
  [3fa0cd96] + REPL
  [9a3f8284] + Random
  [ea8e919c] + SHA
  [9e88b42a] + Serialization
  [6462fe0b] + Sockets
  [fa267f1f] + TOML
  [8dfed614] + Test
  [cf7118a7] + UUIDs
  [4ec0a83e] + Unicode
   Building FFTW ───────→ `~/.julia/packages/FFTW/DMUbN/deps/build.log`
   Building ArbNumerics → `~/.julia/packages/ArbNumerics/joGFm/deps/build.log`
    Testing TwoFAST
Status `/tmp/jl_XKOmSO/Project.toml`
  [7e558dbc] ArbNumerics v1.2.1
  [39dd38d3] Dierckx v0.5.0
  [7a1cc6ca] FFTW v1.2.4
  [276daf66] SpecialFunctions v0.10.3
  [0dd23c3e] TwoFAST v0.1.3
  [8bb1440f] DelimitedFiles
  [37e2e46d] LinearAlgebra
  [56ddb016] Logging
  [8dfed614] Test
Status `/tmp/jl_XKOmSO/Manifest.toml`
  [621f4979] AbstractFFTs v0.5.0
  [7e558dbc] ArbNumerics v1.2.1
  [b99e7846] BinaryProvider v0.5.10
  [e66e0078] CompilerSupportLibraries_jll v0.3.3+0
  [39dd38d3] Dierckx v0.5.0
  [cd4c43a9] Dierckx_jll v0.0.1+0
  [7a1cc6ca] FFTW v1.2.4
  [f5851436] FFTW_jll v3.3.9+5
  [01680d73] GenericSVD v0.3.0
  [c145ed77] GenericSchur v0.4.0
  [1d5cc7b8] IntelOpenMP_jll v2018.0.3+0
  [856f044c] MKL_jll v2020.2.254+0
  [efe28fd5] OpenSpecFun_jll v0.5.3+3
  [0d4725de] Readables v0.3.3
  [189a3867] Reexport v0.2.0
  [276daf66] SpecialFunctions v0.10.3
  [0dd23c3e] TwoFAST v0.1.3
  [56f22d72] Artifacts
  [2a0f44e3] Base64
  [ade2ca70] Dates
  [8bb1440f] DelimitedFiles
  [8ba89e20] Distributed
  [b77e0a4c] InteractiveUtils
  [76f85450] LibGit2
  [8f399da3] Libdl
  [37e2e46d] LinearAlgebra
  [56ddb016] Logging
  [d6f4376e] Markdown
  [a63ad114] Mmap
  [44cfe95a] Pkg
  [de0858da] Printf
  [3fa0cd96] REPL
  [9a3f8284] Random
  [ea8e919c] SHA
  [9e88b42a] Serialization
  [6462fe0b] Sockets
  [fa267f1f] TOML
  [8dfed614] Test
  [cf7118a7] UUIDs
  [4ec0a83e] Unicode
    Testing Running tests...
WARNING: could not import Printf.ini_hex into ArbNumerics
WARNING: could not import Printf.ini_HEX into ArbNumerics
t = 0.0 sec (0 allocations: 0 byte, 0.0% gc time)
typeof(t) = NamedTuple{(:value, :time, :bytes, :gctime, :gcstats), Tuple{DataType, Float64, Int64, Float64, Base.GC_Diff}}
TwoFAST.PerformanceStats.TimedType = Union{NamedTuple{(:value, :time, :bytes, :gctime, :gcstats), Tuple{T, Float64, Int64, Float64, Base.GC_Diff}}, Tuple{Any, Float64, Int64, Float64, Base.GC_Diff}} where T
t = 0.0 sec (0 allocations: 0 byte, 0.0% gc time)
t: 0.0 sec (0 allocations: 0 byte, 0.0% gc time)
Testing ξ(r), ℓ=0, ν=-1 ... passed
Testing ξ(r), ℓ=0, ν=0 ... passed
Testing ξ(r), ℓ=0, ν=1 ... passed
Testing ξ(r), ℓ=0, ν=2 ... passed
Testing ξ(r), ℓ=0, ν=3 ... passed
Testing ξ(r), ℓ=1, ν=0 ... passed
Testing ξ(r), ℓ=1, ν=1 ... passed
Testing ξ(r), ℓ=1, ν=2 ... passed
Testing ξ(r), ℓ=1, ν=3 ... passed
Testing ξ(r), ℓ=2, ν=-1 ... passed
Testing ξ(r), ℓ=2, ν=0 ... passed
Testing ξ(r), ℓ=2, ν=1 ... passed
Testing ξ(r), ℓ=2, ν=2 ... passed
Testing ξ(r), ℓ=2, ν=3 ... passed
Testing ξ(r), ℓ=3, ν=-1 ... passed
Testing ξ(r), ℓ=3, ν=0 ... passed
Testing ξ(r), ℓ=3, ν=1 ... passed
Testing ξ(r), ℓ=3, ν=2 ... passed
Testing ξ(r), ℓ=3, ν=3 ... passed
Testing ξ(r), ℓ=4, ν=-1 ... passed
Testing ξ(r), ℓ=4, ν=0 ... passed
Testing ξ(r), ℓ=4, ν=1 ... passed
Testing ξ(r), ℓ=4, ν=2 ... passed
Testing ξ(r), ℓ=4, ν=3 ... passed
Testing ξ(r) ... passed
Testing ξ′(r) ... passed
Testing ξ″(r) ... passed
Calculating fmax: 
  dlrec    = 4
  dlrecRg1 = -4
  q=1.1, R=1.1:	  4.588170 seconds (838.67 k allocations: 53.536 MiB, 0.45% gc time)

  4.603976 seconds (851.35 k allocations: 54.326 MiB, 0.45% gc time)
ℓ = 1202
Δℓ = 4
ΔℓRg1 = -4
N = 1600
q = 1.1
kmin = 1.0e-5
kmax = 100000.00000000004
χ0 = 0.023029999999999995
RR = RR.tsv
ℓmax = ℓmax.bin
f21 = f21.bin
kmin = 1.0e-5
kmax = 100000.0
dlrec    = 4
dlrecRg1 = -4
Output size: 5741568 bytes = 0.005347251892089844 GiB
Output size: 51264 bytes = 4.774332046508789e-5 GiB
Reading 'out/F21EllCache'...   0.839941 seconds (396.01 k allocations: 23.245 MiB, 7.26% gc time)
ellmax: 1202
lmaxcache: 1202
fell[:,1,1] = ComplexF64[3.9583795592771634e-52 - 9.695233714158177e-68im, 3.990121772925759e-52 - 9.772979714843386e-68im]
ell 1202, elapsed: 7.104873657226562e-5
ell 1201, elapsed: 1.305772066116333
ell 1200, elapsed: 0.0006089210510253906
ell 1199, elapsed: 0.0005369186401367188
ell 1198, elapsed: 0.0004899501800537109
ell 1002, elapsed: 0.010174989700317383
ell 1001, elapsed: 0.0005209445953369141
ell 1000, elapsed: 0.0004999637603759766
ell 999, elapsed: 0.0005009174346923828
ell 998, elapsed: 0.0004968643188476562
ell 902, elapsed: 0.005261898040771484
ell 901, elapsed: 0.0005509853363037109
ell 900, elapsed: 0.0004990100860595703
ell 899, elapsed: 0.0004940032958984375
ell 898, elapsed: 0.00049591064453125
ell 802, elapsed: 0.005249977111816406
ell 801, elapsed: 0.0005640983581542969
ell 800, elapsed: 0.0005109310150146484
ell 799, elapsed: 0.0005071163177490234
ell 798, elapsed: 0.0004940032958984375
ell 702, elapsed: 0.005260944366455078
ell 701, elapsed: 0.0004999637603759766
ell 700, elapsed: 0.0005421638488769531
ell 699, elapsed: 0.0005018711090087891
ell 698, elapsed: 0.0004961490631103516
ell 602, elapsed: 0.005331993103027344
ell 601, elapsed: 0.0005018711090087891
ell 600, elapsed: 0.00048804283142089844
ell 599, elapsed: 0.0006411075592041016
ell 598, elapsed: 0.0004940032958984375
ell 502, elapsed: 0.005322933197021484
ell 501, elapsed: 0.0005168914794921875
ell 500, elapsed: 0.0005469322204589844
ell 499, elapsed: 0.0008268356323242188
ell 498, elapsed: 0.0005898475646972656
ell 402, elapsed: 0.005415201187133789
ell 401, elapsed: 0.0005161762237548828
ell 400, elapsed: 0.000492095947265625
ell 399, elapsed: 0.0004940032958984375
ell 398, elapsed: 0.0004940032958984375
ell 302, elapsed: 0.0053369998931884766
ell 301, elapsed: 0.0005288124084472656
ell 300, elapsed: 0.0004968643188476562
ell 299, elapsed: 0.0005970001220703125
ell 298, elapsed: 0.0006439685821533203
ell 202, elapsed: 0.00573420524597168
ell 201, elapsed: 0.0006120204925537109
ell 200, elapsed: 0.0005259513854980469
ell 199, elapsed: 0.0004990100860595703
ell 198, elapsed: 0.0004940032958984375
ell 152, elapsed: 0.002830028533935547
ell 151, elapsed: 0.0004990100860595703
ell 150, elapsed: 0.0004940032958984375
ell 149, elapsed: 0.0004899501800537109
ell 148, elapsed: 0.0004930496215820312
ell 127, elapsed: 0.0015399456024169922
ell 126, elapsed: 0.0006320476531982422
ell 125, elapsed: 0.0005512237548828125
ell 124, elapsed: 0.00048089027404785156
ell 123, elapsed: 0.0004839897155761719
ell 114, elapsed: 0.00109100341796875
ell 113, elapsed: 0.0005059242248535156
ell 112, elapsed: 0.0006501674652099609
ell 111, elapsed: 0.0005600452423095703
ell 110, elapsed: 0.00048804283142089844
ell 102, elapsed: 0.0009050369262695312
ell 101, elapsed: 0.000492095947265625
ell 100, elapsed: 0.000492095947265625
ell 99, elapsed: 0.0006010532379150391
ell 98, elapsed: 0.0004930496215820312
ell 97, elapsed: 0.0005710124969482422
ell 96, elapsed: 0.00055694580078125
ell 95, elapsed: 0.0007297992706298828
ell 94, elapsed: 0.0006539821624755859
ell 93, elapsed: 0.0005819797515869141
ell 92, elapsed: 0.0005590915679931641
ell 91, elapsed: 0.0005559921264648438
ell 90, elapsed: 0.0005700588226318359
ell 89, elapsed: 0.0005559921264648438
ell 88, elapsed: 0.0005669593811035156
ell 87, elapsed: 0.0007379055023193359
ell 86, elapsed: 0.0006139278411865234
ell 85, elapsed: 0.0005660057067871094
ell 84, elapsed: 0.00055694580078125
ell 83, elapsed: 0.0005490779876708984
ell 82, elapsed: 0.0005791187286376953
ell 81, elapsed: 0.0007178783416748047
ell 80, elapsed: 0.0005688667297363281
ell 79, elapsed: 0.0005559921264648438
ell 78, elapsed: 0.0005609989166259766
ell 77, elapsed: 0.0005540847778320312
ell 76, elapsed: 0.0005640983581542969
ell 75, elapsed: 0.0005590915679931641
ell 74, elapsed: 0.0006310939788818359
ell 73, elapsed: 0.0006389617919921875
ell 72, elapsed: 0.0005939006805419922
ell 71, elapsed: 0.0006239414215087891
ell 70, elapsed: 0.0005660057067871094
ell 69, elapsed: 0.0005588531494140625
ell 68, elapsed: 0.0006730556488037109
ell 67, elapsed: 0.0005598068237304688
ell 66, elapsed: 0.0005638599395751953
ell 65, elapsed: 0.0005979537963867188
ell 64, elapsed: 0.0006220340728759766
ell 63, elapsed: 0.0005598068237304688
ell 62, elapsed: 0.0006730556488037109
ell 61, elapsed: 0.0006589889526367188
ell 60, elapsed: 0.0005590915679931641
ell 59, elapsed: 0.0005600452423095703
ell 58, elapsed: 0.00055694580078125
ell 57, elapsed: 0.0005528926849365234
ell 56, elapsed: 0.0005791187286376953
ell 55, elapsed: 0.0005590915679931641
ell 54, elapsed: 0.0005729198455810547
ell 53, elapsed: 0.0005600452423095703
ell 52, elapsed: 0.000553131103515625
ell 51, elapsed: 0.0005590915679931641
ell 50, elapsed: 0.0005540847778320312
ell 49, elapsed: 0.0006678104400634766
ell 48, elapsed: 0.0005619525909423828
ell 47, elapsed: 0.0005629062652587891
ell 46, elapsed: 0.0005559921264648438
ell 45, elapsed: 0.000576019287109375
ell 44, elapsed: 0.0006241798400878906
ell 43, elapsed: 0.0006549358367919922
ell 42, elapsed: 0.0005679130554199219
ell 41, elapsed: 0.0005640983581542969
ell 40, elapsed: 0.0005578994750976562
ell 39, elapsed: 0.0005700588226318359
ell 38, elapsed: 0.00055694580078125
ell 37, elapsed: 0.0006558895111083984
ell 36, elapsed: 0.0005838871002197266
ell 35, elapsed: 0.0005741119384765625
ell 34, elapsed: 0.0005578994750976562
ell 33, elapsed: 0.0005619525909423828
ell 32, elapsed: 0.0005929470062255859
ell 31, elapsed: 0.0007059574127197266
ell 30, elapsed: 0.0005729198455810547
ell 29, elapsed: 0.0005609989166259766
ell 28, elapsed: 0.0005700588226318359
ell 27, elapsed: 0.0005550384521484375
ell 26, elapsed: 0.0005719661712646484
ell 25, elapsed: 0.0005631446838378906
ell 24, elapsed: 0.0006680488586425781
ell 23, elapsed: 0.0005559921264648438
ell 22, elapsed: 0.0005600452423095703
ell 21, elapsed: 0.0005619525909423828
ell 20, elapsed: 0.0005629062652587891
ell 19, elapsed: 0.0005590915679931641
ell 18, elapsed: 0.0006480216979980469
ell 17, elapsed: 0.0005741119384765625
ell 16, elapsed: 0.0005679130554199219
ell 15, elapsed: 0.0005640983581542969
ell 14, elapsed: 0.0005710124969482422
ell 13, elapsed: 0.0005600452423095703
ell 12, elapsed: 0.0006880760192871094
ell 11, elapsed: 0.0006291866302490234
ell 10, elapsed: 0.0005941390991210938
ell 9, elapsed: 0.0006260871887207031
ell 8, elapsed: 0.0005681514739990234
ell 7, elapsed: 0.0005629062652587891
ell 6, elapsed: 0.0007109642028808594
ell 5, elapsed: 0.000553131103515625
ell 4, elapsed: 0.0005650520324707031
ell 3, elapsed: 0.0005548000335693359
ell 2, elapsed: 0.0005660057067871094
ell 1, elapsed: 0.0005588531494140625
ell 0, elapsed: 0.0005528926849365234
  2.029739 seconds (1.27 M allocations: 69.778 MiB, 2.48% gc time)
elapsed: 0.0007791519165039062
step:          0.339009 sec (307.129 k allocations: 16.679 MB, 6.02% gc time)
swapping:      0.000537 sec (0 allocations: 0 byte, 0.0% gc time)
calc_Mellell!: 0.127634 sec (133.359 k allocations: 7.263 MB, 0.0% gc time)
  t0 :  0.0 sec (0 allocations: 0 byte, 0.0% gc time)
  tm2 : 0.0 sec (0 allocations: 0 byte, 0.0% gc time)
  tm2s: 0.0 sec (0 allocations: 0 byte, 0.0% gc time)
  tm4 : 0.0 sec (0 allocations: 0 byte, 0.0% gc time)
  tp2 : 0.0 sec (0 allocations: 0 byte, 0.0% gc time)
  tp2s: 0.0 sec (0 allocations: 0 byte, 0.0% gc time)
  tp4 : 0.0 sec (0 allocations: 0 byte, 0.0% gc time)
calc_wtdll!:   0.970779 sec (510.258 k allocations: 28.228 MB, 0.0% gc time)
calc_wljj!:    0.003496 sec (6 allocations: 96 byte, 0.0% gc time)
mult_prefac!:  0.0 sec (0 allocations: 0 byte, 0.0% gc time)
convert:       0.0 sec (0 allocations: 0 byte, 0.0% gc time)
write:         0.00463 sec (0 allocations: 0 byte, 0.0% gc time)
test_rand_2f1: 0.0 sec (0 allocations: 0 byte, 0.0% gc time)
Closing outfile out/Ml21-cache.bin...   0.000008 seconds
  1.337649 seconds (347.03 k allocations: 21.121 MiB)
make_phi():   0.013752 seconds (8.18 k allocations: 237.844 KiB)
  0.286326 seconds (87.66 k allocations: 4.754 MiB, 6.51% gc time)
tskip:       2.7e-5 sec (0 allocations: 0 byte, 0.0% gc time)
tread:       0.003683 sec (17 allocations: 2.125 KB, 0.0% gc time)
tmultphi:    0.053106 sec (21.455 k allocations: 1.289 MB, 0.0% gc time)
tbrfft:      0.006429 sec (0 allocations: 0 byte, 0.0% gc time)
tmultprefac: 0.006904 sec (0 allocations: 0 byte, 0.0% gc time)
toutfunc:    0.172015 sec (64.546 k allocations: 3.334 MB, 10.84% gc time)
Testing R=1.1 ... passed
Calculating fmax: 
  dlrec    = 4
  dlrecRg1 = -4
  q=1.1, R=1.0:	  0.001623 seconds (3.20 k allocations: 275.344 KiB)

  0.001830 seconds (3.34 k allocations: 311.422 KiB)
ℓ = 1202
Δℓ = 4
ΔℓRg1 = -4
N = 1600
q = 1.1
kmin = 1.0e-5
kmax = 100000.00000000004
χ0 = 0.023029999999999995
RR = RR.tsv
ℓmax = ℓmax.bin
f21 = f21.bin
kmin = 1.0e-5
kmax = 100000.0
dlrec    = 4
dlrecRg1 = -4
Output size: 61465536 bytes = 0.05724424123764038 GiB
Output size: 51264 bytes = 4.774332046508789e-5 GiB
Reading 'out/F21EllCache'...   0.001111 seconds (197 allocations: 84.203 KiB)
ellmax: 1202
lmaxcache: 1202
fell[:,1,1] = ComplexF64[809.6031528389767 - 1.9829558194077161e-13im, 0.0 + 0.0im]
ell 1202, elapsed: 0.00010204315185546875
ell 1201, elapsed: 0.014001131057739258
ell 1200, elapsed: 0.013607025146484375
ell 1199, elapsed: 0.000431060791015625
ell 1198, elapsed: 0.00043010711669921875
ell 1197, elapsed: 0.0005190372467041016
ell 1196, elapsed: 0.0004949569702148438
ell 1195, elapsed: 0.0004730224609375
ell 1194, elapsed: 0.00047397613525390625
ell 1193, elapsed: 0.0004911422729492188
ell 1192, elapsed: 0.00047206878662109375
ell 1191, elapsed: 0.0005190372467041016
ell 1190, elapsed: 0.0004918575286865234
ell 1189, elapsed: 0.0004911422729492188
ell 1188, elapsed: 0.00047206878662109375
ell 1187, elapsed: 0.0004680156707763672
ell 1186, elapsed: 0.0004620552062988281
ell 1185, elapsed: 0.0004508495330810547
ell 1184, elapsed: 0.0005431175231933594
ell 1183, elapsed: 0.0004980564117431641
ell 1182, elapsed: 0.0004680156707763672
ell 1181, elapsed: 0.0007970333099365234
ell 1180, elapsed: 0.0007829666137695312
ell 1179, elapsed: 0.000888824462890625
ell 1178, elapsed: 0.0005228519439697266
ell 1177, elapsed: 0.000514984130859375
ell 1176, elapsed: 0.0007479190826416016
ell 1175, elapsed: 0.0006139278411865234
ell 1174, elapsed: 0.0006778240203857422
ell 1173, elapsed: 0.0006918907165527344
ell 1172, elapsed: 0.000553131103515625
ell 1171, elapsed: 0.0004379749298095703
ell 1170, elapsed: 0.00043201446533203125
ell 1169, elapsed: 0.0006399154663085938
ell 1168, elapsed: 0.00067901611328125
ell 1167, elapsed: 0.00046896934509277344
ell 1166, elapsed: 0.0005879402160644531
ell 1165, elapsed: 0.0005009174346923828
ell 1164, elapsed: 0.0006270408630371094
ell 1163, elapsed: 0.0006728172302246094
ell 1162, elapsed: 0.0006339550018310547
ell 1161, elapsed: 0.0005409717559814453
ell 1160, elapsed: 0.00043392181396484375
ell 1159, elapsed: 0.0006339550018310547
ell 1158, elapsed: 0.0006299018859863281
ell 1157, elapsed: 0.0005750656127929688
ell 1156, elapsed: 0.0004429817199707031
ell 1155, elapsed: 0.0005519390106201172
ell 1154, elapsed: 0.0005638599395751953
ell 1153, elapsed: 0.0005509853363037109
ell 1152, elapsed: 0.0006401538848876953
ell 1151, elapsed: 0.0007178783416748047
ell 1150, elapsed: 0.0005259513854980469
ell 1149, elapsed: 0.0005550384521484375
ell 1148, elapsed: 0.0006871223449707031
ell 1147, elapsed: 0.0006661415100097656
ell 1146, elapsed: 0.000682830810546875
ell 1145, elapsed: 0.0006990432739257812
ell 1144, elapsed: 0.000579833984375
ell 1143, elapsed: 0.000431060791015625
ell 1142, elapsed: 0.0004119873046875
ell 1141, elapsed: 0.0004210472106933594
ell 1140, elapsed: 0.000537872314453125
ell 1139, elapsed: 0.0005621910095214844
ell 1138, elapsed: 0.0006039142608642578
ell 1137, elapsed: 0.0005209445953369141
ell 1136, elapsed: 0.0004520416259765625
ell 1135, elapsed: 0.00043201446533203125
ell 1134, elapsed: 0.0004980564117431641
ell 1133, elapsed: 0.0006899833679199219
ell 1132, elapsed: 0.0006909370422363281
ell 1131, elapsed: 0.0005910396575927734
ell 1130, elapsed: 0.0006229877471923828
ell 1129, elapsed: 0.0006067752838134766
ell 1128, elapsed: 0.0005600452423095703
ell 1127, elapsed: 0.0004429817199707031
ell 1126, elapsed: 0.000453948974609375
ell 1125, elapsed: 0.0006530284881591797
ell 1124, elapsed: 0.0004930496215820312
ell 1123, elapsed: 0.0004489421844482422
ell 1122, elapsed: 0.0004470348358154297
ell 1121, elapsed: 0.00044798851013183594
ell 1120, elapsed: 0.0004398822784423828
ell 1119, elapsed: 0.0004489421844482422
ell 1118, elapsed: 0.00045299530029296875
ell 1117, elapsed: 0.00044608116149902344
ell 1116, elapsed: 0.0004520416259765625
ell 1115, elapsed: 0.00044798851013183594
ell 1114, elapsed: 0.0004489421844482422
ell 1113, elapsed: 0.00044608116149902344
ell 1112, elapsed: 0.00044798851013183594
ell 1111, elapsed: 0.00045490264892578125
ell 1110, elapsed: 0.0004448890686035156
ell 1109, elapsed: 0.000453948974609375
ell 1108, elapsed: 0.00044608116149902344
ell 1107, elapsed: 0.0004489421844482422
ell 1106, elapsed: 0.00044989585876464844
ell 1105, elapsed: 0.0004470348358154297
ell 1104, elapsed: 0.00044798851013183594
ell 1103, elapsed: 0.0004429817199707031
ell 1102, elapsed: 0.0004410743713378906
ell 1101, elapsed: 0.0004661083221435547
ell 1100, elapsed: 0.0004420280456542969
ell 1099, elapsed: 0.0004489421844482422
ell 1098, elapsed: 0.0004489421844482422
ell 1097, elapsed: 0.00044918060302734375
ell 1096, elapsed: 0.0004489421844482422
ell 1095, elapsed: 0.00044989585876464844
ell 1094, elapsed: 0.00044798851013183594
ell 1093, elapsed: 0.00045800209045410156
ell 1092, elapsed: 0.00044608116149902344
ell 1091, elapsed: 0.00044798851013183594
ell 1090, elapsed: 0.0004489421844482422
ell 1089, elapsed: 0.00044608116149902344
ell 1088, elapsed: 0.0004429817199707031
ell 1087, elapsed: 0.0004448890686035156
ell 1086, elapsed: 0.00045299530029296875
ell 1085, elapsed: 0.00045800209045410156
ell 1084, elapsed: 0.0004508495330810547
ell 1083, elapsed: 0.00044608116149902344
ell 1082, elapsed: 0.0004448890686035156
ell 1081, elapsed: 0.0004448890686035156
ell 1080, elapsed: 0.0004429817199707031
ell 1079, elapsed: 0.0004458427429199219
ell 1078, elapsed: 0.00044608116149902344
ell 1077, elapsed: 0.0004570484161376953
ell 1076, elapsed: 0.00044798851013183594
ell 1075, elapsed: 0.0004420280456542969
ell 1074, elapsed: 0.00044918060302734375
ell 1073, elapsed: 0.0004410743713378906
ell 1072, elapsed: 0.00044417381286621094
ell 1071, elapsed: 0.0004379749298095703
ell 1070, elapsed: 0.0004448890686035156
ell 1069, elapsed: 0.0004589557647705078
ell 1068, elapsed: 0.0004448890686035156
ell 1067, elapsed: 0.0004470348358154297
ell 1066, elapsed: 0.0004439353942871094
ell 1065, elapsed: 0.00044608116149902344
ell 1064, elapsed: 0.0004508495330810547
ell 1063, elapsed: 0.00044417381286621094
ell 1062, elapsed: 0.0004520416259765625
ell 1061, elapsed: 0.0004589557647705078
ell 1060, elapsed: 0.00044798851013183594
ell 1059, elapsed: 0.00045013427734375
ell 1058, elapsed: 0.0004439353942871094
ell 1057, elapsed: 0.00045299530029296875
ell 1056, elapsed: 0.0004429817199707031
ell 1055, elapsed: 0.00044798851013183594
ell 1054, elapsed: 0.0004520416259765625
ell 1053, elapsed: 0.0004489421844482422
ell 1052, elapsed: 0.0004470348358154297
ell 1051, elapsed: 0.00044798851013183594
ell 1050, elapsed: 0.00044608116149902344
ell 1049, elapsed: 0.0004489421844482422
ell 1048, elapsed: 0.0004439353942871094
ell 1047, elapsed: 0.00045180320739746094
ell 1046, elapsed: 0.0004439353942871094
ell 1045, elapsed: 0.0004420280456542969
ell 1044, elapsed: 0.0004661083221435547
ell 1043, elapsed: 0.0005180835723876953
ell 1042, elapsed: 0.00044798851013183594
ell 1041, elapsed: 0.0004470348358154297
ell 1040, elapsed: 0.0004448890686035156
ell 1039, elapsed: 0.0004532337188720703
ell 1038, elapsed: 0.0004451274871826172
ell 1037, elapsed: 0.00045108795166015625
ell 1036, elapsed: 0.0004570484161376953
ell 1035, elapsed: 0.0004451274871826172
ell 1034, elapsed: 0.00044608116149902344
ell 1033, elapsed: 0.0004432201385498047
ell 1032, elapsed: 0.00044989585876464844
ell 1031, elapsed: 0.00044417381286621094
ell 1030, elapsed: 0.00043892860412597656
ell 1029, elapsed: 0.000453948974609375
ell 1028, elapsed: 0.0004677772521972656
ell 1027, elapsed: 0.00044798851013183594
ell 1026, elapsed: 0.0004448890686035156
ell 1025, elapsed: 0.0004439353942871094
ell 1024, elapsed: 0.00045108795166015625
ell 1023, elapsed: 0.0004439353942871094
ell 1022, elapsed: 0.00045108795166015625
ell 1021, elapsed: 0.0004470348358154297
ell 1020, elapsed: 0.0004649162292480469
ell 1019, elapsed: 0.0004448890686035156
ell 1018, elapsed: 0.00044798851013183594
ell 1017, elapsed: 0.0004520416259765625
ell 1016, elapsed: 0.00044798851013183594
ell 1015, elapsed: 0.0004508495330810547
ell 1014, elapsed: 0.0004458427429199219
ell 1013, elapsed: 0.00044417381286621094
ell 1012, elapsed: 0.0004630088806152344
ell 1011, elapsed: 0.0004420280456542969
ell 1010, elapsed: 0.00044608116149902344
ell 1009, elapsed: 0.00044083595275878906
ell 1008, elapsed: 0.0004420280456542969
ell 1007, elapsed: 0.00044608116149902344
ell 1006, elapsed: 0.0004489421844482422
ell 1005, elapsed: 0.0004420280456542969
ell 1004, elapsed: 0.00045108795166015625
ell 1003, elapsed: 0.0004458427429199219
ell 1002, elapsed: 0.0004520416259765625
ell 1001, elapsed: 0.0004448890686035156
ell 1000, elapsed: 0.00044989585876464844
ell 999, elapsed: 0.0004439353942871094
ell 998, elapsed: 0.0004439353942871094
ell 997, elapsed: 0.0004467964172363281
ell 996, elapsed: 0.0004570484161376953
ell 995, elapsed: 0.00044608116149902344
ell 994, elapsed: 0.0004448890686035156
ell 993, elapsed: 0.00045609474182128906
ell 992, elapsed: 0.0004520416259765625
ell 991, elapsed: 0.00044798851013183594
ell 990, elapsed: 0.0004489421844482422
ell 989, elapsed: 0.00044798851013183594
ell 988, elapsed: 0.0004620552062988281
ell 987, elapsed: 0.00045299530029296875
ell 986, elapsed: 0.00043702125549316406
ell 985, elapsed: 0.0004451274871826172
ell 984, elapsed: 0.0004379749298095703
ell 983, elapsed: 0.00041794776916503906
ell 982, elapsed: 0.00041604042053222656
ell 981, elapsed: 0.00041604042053222656
ell 980, elapsed: 0.00043010711669921875
ell 979, elapsed: 0.0004551410675048828
ell 978, elapsed: 0.0004100799560546875
ell 977, elapsed: 0.00041604042053222656
ell 976, elapsed: 0.0004279613494873047
ell 975, elapsed: 0.00045299530029296875
ell 974, elapsed: 0.0005710124969482422
ell 973, elapsed: 0.0006887912750244141
ell 972, elapsed: 0.0005238056182861328
ell 971, elapsed: 0.0006170272827148438
ell 970, elapsed: 0.0005700588226318359
ell 969, elapsed: 0.00041794776916503906
ell 968, elapsed: 0.0004138946533203125
ell 967, elapsed: 0.0004210472106933594
ell 966, elapsed: 0.0004172325134277344
ell 965, elapsed: 0.0006070137023925781
ell 964, elapsed: 0.0006380081176757812
ell 963, elapsed: 0.0005409717559814453
ell 962, elapsed: 0.00043201446533203125
ell 961, elapsed: 0.0005898475646972656
ell 960, elapsed: 0.0005190372467041016
ell 959, elapsed: 0.0004298686981201172
ell 958, elapsed: 0.0006480216979980469
ell 957, elapsed: 0.0006840229034423828
ell 956, elapsed: 0.0006079673767089844
ell 955, elapsed: 0.0005431175231933594
ell 954, elapsed: 0.0006029605865478516
ell 953, elapsed: 0.0006859302520751953
ell 952, elapsed: 0.0006899833679199219
ell 951, elapsed: 0.0005640983581542969
ell 950, elapsed: 0.0004401206970214844
ell 949, elapsed: 0.0004298686981201172
ell 948, elapsed: 0.0004360675811767578
ell 947, elapsed: 0.0006170272827148438
ell 946, elapsed: 0.0007059574127197266
ell 945, elapsed: 0.0005970001220703125
ell 944, elapsed: 0.0006070137023925781
ell 943, elapsed: 0.0006511211395263672
ell 942, elapsed: 0.0005238056182861328
ell 941, elapsed: 0.00043392181396484375
ell 940, elapsed: 0.0005230903625488281
ell 939, elapsed: 0.0007059574127197266
ell 938, elapsed: 0.0005571842193603516
ell 937, elapsed: 0.0004909038543701172
ell 936, elapsed: 0.0006749629974365234
ell 935, elapsed: 0.0006768703460693359
ell 934, elapsed: 0.0006890296936035156
ell 933, elapsed: 0.0006661415100097656
ell 932, elapsed: 0.0005869865417480469
ell 931, elapsed: 0.0004138946533203125
ell 930, elapsed: 0.00041103363037109375
ell 929, elapsed: 0.0004630088806152344
ell 928, elapsed: 0.0006940364837646484
ell 927, elapsed: 0.0006749629974365234
ell 926, elapsed: 0.0004780292510986328
ell 925, elapsed: 0.0007100105285644531
ell 924, elapsed: 0.0006730556488037109
ell 923, elapsed: 0.0007710456848144531
ell 922, elapsed: 0.0007259845733642578
ell 921, elapsed: 0.0006458759307861328
ell 920, elapsed: 0.0005159378051757812
ell 919, elapsed: 0.0007121562957763672
ell 918, elapsed: 0.0005331039428710938
ell 917, elapsed: 0.0005040168762207031
ell 916, elapsed: 0.0004818439483642578
ell 915, elapsed: 0.0005018711090087891
ell 914, elapsed: 0.00048613548278808594
ell 913, elapsed: 0.0004990100860595703
ell 912, elapsed: 0.0004830360412597656
ell 911, elapsed: 0.0005080699920654297
ell 910, elapsed: 0.000514984130859375
ell 909, elapsed: 0.0005049705505371094
ell 908, elapsed: 0.0005059242248535156
ell 907, elapsed: 0.0004899501800537109
ell 906, elapsed: 0.0005068778991699219
ell 905, elapsed: 0.0005059242248535156
ell 904, elapsed: 0.0004918575286865234
ell 903, elapsed: 0.0005130767822265625
ell 902, elapsed: 0.0005021095275878906
ell 901, elapsed: 0.0005278587341308594
ell 900, elapsed: 0.0004940032958984375
ell 899, elapsed: 0.0004909038543701172
ell 898, elapsed: 0.0004899501800537109
ell 897, elapsed: 0.0005052089691162109
ell 896, elapsed: 0.0005228519439697266
ell 895, elapsed: 0.0004849433898925781
ell 894, elapsed: 0.0004849433898925781
ell 893, elapsed: 0.0004868507385253906
ell 892, elapsed: 0.0004870891571044922
ell 891, elapsed: 0.0005021095275878906
ell 890, elapsed: 0.0004968643188476562
ell 889, elapsed: 0.0004849433898925781
ell 888, elapsed: 0.0005030632019042969
ell 887, elapsed: 0.0004830360412597656
ell 886, elapsed: 0.0004901885986328125
ell 885, elapsed: 0.00048804283142089844
ell 884, elapsed: 0.0004930496215820312
ell 883, elapsed: 0.00048613548278808594
ell 882, elapsed: 0.00048804283142089844
ell 881, elapsed: 0.0004909038543701172
ell 880, elapsed: 0.0004849433898925781
ell 879, elapsed: 0.0005040168762207031
ell 878, elapsed: 0.0004870891571044922
ell 877, elapsed: 0.0005009174346923828
ell 876, elapsed: 0.0004849433898925781
ell 875, elapsed: 0.0005049705505371094
ell 874, elapsed: 0.0004899501800537109
ell 873, elapsed: 0.0005080699920654297
ell 872, elapsed: 0.0004830360412597656
ell 871, elapsed: 0.0004949569702148438
ell 870, elapsed: 0.0004980564117431641
ell 869, elapsed: 0.0005009174346923828
ell 868, elapsed: 0.0005030632019042969
ell 867, elapsed: 0.0005159378051757812
ell 866, elapsed: 0.0005009174346923828
ell 865, elapsed: 0.0005071163177490234
ell 864, elapsed: 0.0005030632019042969
ell 863, elapsed: 0.0005009174346923828
ell 862, elapsed: 0.000514984130859375
ell 861, elapsed: 0.0005040168762207031
ell 860, elapsed: 0.0005059242248535156
ell 859, elapsed: 0.0005059242248535156
ell 858, elapsed: 0.0004980564117431641
ell 857, elapsed: 0.0004990100860595703
ell 856, elapsed: 0.0005211830139160156
ell 855, elapsed: 0.0005040168762207031
ell 854, elapsed: 0.0005040168762207031
ell 853, elapsed: 0.0005030632019042969
ell 852, elapsed: 0.0005021095275878906
ell 851, elapsed: 0.0004999637603759766
ell 850, elapsed: 0.000514984130859375
ell 849, elapsed: 0.0005059242248535156
ell 848, elapsed: 0.0005002021789550781
ell 847, elapsed: 0.0005080699920654297
ell 846, elapsed: 0.0004999637603759766
ell 845, elapsed: 0.0005040168762207031
ell 844, elapsed: 0.0005099773406982422
ell 843, elapsed: 0.0005021095275878906
ell 842, elapsed: 0.0005040168762207031
ell 841, elapsed: 0.0005052089691162109
ell 840, elapsed: 0.0005040168762207031
ell 839, elapsed: 0.0005080699920654297
ell 838, elapsed: 0.0005049705505371094
ell 837, elapsed: 0.0005090236663818359
ell 836, elapsed: 0.0004889965057373047
ell 835, elapsed: 0.0005009174346923828
ell 834, elapsed: 0.0004940032958984375
ell 833, elapsed: 0.0005209445953369141
ell 832, elapsed: 0.0005109310150146484
ell 831, elapsed: 0.0004849433898925781
ell 830, elapsed: 0.0004851818084716797
ell 829, elapsed: 0.0004889965057373047
ell 828, elapsed: 0.0004820823669433594
ell 827, elapsed: 0.0005199909210205078
ell 826, elapsed: 0.00049591064453125
ell 825, elapsed: 0.0004990100860595703
ell 824, elapsed: 0.0005130767822265625
ell 823, elapsed: 0.0004870891571044922
ell 822, elapsed: 0.0005090236663818359
ell 821, elapsed: 0.0005030632019042969
ell 820, elapsed: 0.0004968643188476562
ell 819, elapsed: 0.0004990100860595703
ell 818, elapsed: 0.0005059242248535156
ell 817, elapsed: 0.0005118846893310547
ell 816, elapsed: 0.0005028247833251953
ell 815, elapsed: 0.0005118846893310547
ell 814, elapsed: 0.0005090236663818359
ell 813, elapsed: 0.0005021095275878906
ell 812, elapsed: 0.0005059242248535156
ell 811, elapsed: 0.000514984130859375
ell 810, elapsed: 0.0005190372467041016
ell 809, elapsed: 0.0004999637603759766
ell 808, elapsed: 0.000476837158203125
ell 807, elapsed: 0.0004899501800537109
ell 806, elapsed: 0.0004909038543701172
ell 805, elapsed: 0.0004799365997314453
ell 804, elapsed: 0.0004818439483642578
ell 803, elapsed: 0.0004878044128417969
ell 802, elapsed: 0.0006668567657470703
ell 801, elapsed: 0.0006320476531982422
ell 800, elapsed: 0.0005400180816650391
ell 799, elapsed: 0.0007281303405761719
ell 798, elapsed: 0.0005040168762207031
ell 797, elapsed: 0.0004868507385253906
ell 796, elapsed: 0.000492095947265625
ell 795, elapsed: 0.0004999637603759766
ell 794, elapsed: 0.0007200241088867188
ell 793, elapsed: 0.0005500316619873047
ell 792, elapsed: 0.0006899833679199219
ell 791, elapsed: 0.0007658004760742188
ell 790, elapsed: 0.0004980564117431641
ell 789, elapsed: 0.0006730556488037109
ell 788, elapsed: 0.0005061626434326172
ell 787, elapsed: 0.0004899501800537109
ell 786, elapsed: 0.0006589889526367188
ell 785, elapsed: 0.00061798095703125
ell 784, elapsed: 0.0005240440368652344
ell 783, elapsed: 0.0007078647613525391
ell 782, elapsed: 0.0006639957427978516
ell 781, elapsed: 0.0006711483001708984
ell 780, elapsed: 0.0007309913635253906
ell 779, elapsed: 0.0007300376892089844
ell 778, elapsed: 0.0007119178771972656
ell 777, elapsed: 0.0007250308990478516
ell 776, elapsed: 0.0006809234619140625
ell 775, elapsed: 0.0007100105285644531
ell 774, elapsed: 0.0004858970642089844
ell 773, elapsed: 0.0005888938903808594
ell 772, elapsed: 0.0007429122924804688
ell 771, elapsed: 0.0006639957427978516
ell 770, elapsed: 0.0006809234619140625
ell 769, elapsed: 0.0006399154663085938
ell 768, elapsed: 0.0004899501800537109
ell 767, elapsed: 0.00046706199645996094
ell 766, elapsed: 0.0004911422729492188
ell 765, elapsed: 0.0007100105285644531
ell 764, elapsed: 0.0005869865417480469
ell 763, elapsed: 0.0005409717559814453
ell 762, elapsed: 0.0007240772247314453
ell 761, elapsed: 0.0005021095275878906
ell 760, elapsed: 0.0004968643188476562
ell 759, elapsed: 0.0005021095275878906
ell 758, elapsed: 0.0007021427154541016
ell 757, elapsed: 0.0006239414215087891
ell 756, elapsed: 0.0007319450378417969
ell 755, elapsed: 0.0005018711090087891
ell 754, elapsed: 0.0005009174346923828
ell 753, elapsed: 0.0005080699920654297
ell 752, elapsed: 0.0005009174346923828
ell 751, elapsed: 0.0004930496215820312
ell 750, elapsed: 0.0005068778991699219
ell 749, elapsed: 0.0006439685821533203
ell 748, elapsed: 0.0005118846893310547
ell 747, elapsed: 0.0004990100860595703
ell 746, elapsed: 0.0005168914794921875
ell 745, elapsed: 0.0005021095275878906
ell 744, elapsed: 0.0004990100860595703
ell 743, elapsed: 0.0005011558532714844
ell 742, elapsed: 0.0005128383636474609
ell 741, elapsed: 0.00048613548278808594
ell 740, elapsed: 0.0005049705505371094
ell 739, elapsed: 0.0004858970642089844
ell 738, elapsed: 0.0004839897155761719
ell 737, elapsed: 0.0004889965057373047
ell 736, elapsed: 0.0005180835723876953
ell 735, elapsed: 0.0004999637603759766
ell 734, elapsed: 0.0004911422729492188
ell 733, elapsed: 0.0005049705505371094
ell 732, elapsed: 0.00048613548278808594
ell 731, elapsed: 0.0004940032958984375
ell 730, elapsed: 0.0004971027374267578
ell 729, elapsed: 0.0005061626434326172
ell 728, elapsed: 0.0004849433898925781
ell 727, elapsed: 0.00048804283142089844
ell 726, elapsed: 0.0004930496215820312
ell 725, elapsed: 0.000492095947265625
ell 724, elapsed: 0.00048613548278808594
ell 723, elapsed: 0.0006520748138427734
ell 722, elapsed: 0.0005078315734863281
ell 721, elapsed: 0.0004961490631103516
ell 720, elapsed: 0.0004999637603759766
ell 719, elapsed: 0.0005052089691162109
ell 718, elapsed: 0.0004889965057373047
ell 717, elapsed: 0.0005130767822265625
ell 716, elapsed: 0.0004889965057373047
ell 715, elapsed: 0.0004858970642089844
ell 714, elapsed: 0.0005052089691162109
ell 713, elapsed: 0.0004889965057373047
ell 712, elapsed: 0.00048804283142089844
ell 711, elapsed: 0.0005068778991699219
ell 710, elapsed: 0.0004951953887939453
ell 709, elapsed: 0.0004870891571044922
ell 708, elapsed: 0.0004990100860595703
ell 707, elapsed: 0.0004818439483642578
ell 706, elapsed: 0.0004909038543701172
ell 705, elapsed: 0.0004978179931640625
ell 704, elapsed: 0.0005021095275878906
ell 703, elapsed: 0.0004858970642089844
ell 702, elapsed: 0.0005190372467041016
ell 701, elapsed: 0.0004990100860595703
ell 700, elapsed: 0.0005018711090087891
ell 699, elapsed: 0.0005011558532714844
ell 698, elapsed: 0.0004990100860595703
ell 697, elapsed: 0.0005049705505371094
ell 696, elapsed: 0.000514984130859375
ell 695, elapsed: 0.0004980564117431641
ell 694, elapsed: 0.0004928112030029297
ell 693, elapsed: 0.0004990100860595703
ell 692, elapsed: 0.0005090236663818359
ell 691, elapsed: 0.0005319118499755859
ell 690, elapsed: 0.0005059242248535156
ell 689, elapsed: 0.0005040168762207031
ell 688, elapsed: 0.0005018711090087891
ell 687, elapsed: 0.0005061626434326172
ell 686, elapsed: 0.0005040168762207031
ell 685, elapsed: 0.0005140304565429688
ell 684, elapsed: 0.0005068778991699219
ell 683, elapsed: 0.0005099773406982422
ell 682, elapsed: 0.0005090236663818359
ell 681, elapsed: 0.0005071163177490234
ell 680, elapsed: 0.0005021095275878906
ell 679, elapsed: 0.0005040168762207031
ell 678, elapsed: 0.0005068778991699219
ell 677, elapsed: 0.0005049705505371094
ell 676, elapsed: 0.0005099773406982422
ell 675, elapsed: 0.0005130767822265625
ell 674, elapsed: 0.0005011558532714844
ell 673, elapsed: 0.0005049705505371094
ell 672, elapsed: 0.0004889965057373047
ell 671, elapsed: 0.0005049705505371094
ell 670, elapsed: 0.0005049705505371094
ell 669, elapsed: 0.0005030632019042969
ell 668, elapsed: 0.0005130767822265625
ell 667, elapsed: 0.0005068778991699219
ell 666, elapsed: 0.0005021095275878906
ell 665, elapsed: 0.0005021095275878906
ell 664, elapsed: 0.0004999637603759766
ell 663, elapsed: 0.0005018711090087891
ell 662, elapsed: 0.0004990100860595703
ell 661, elapsed: 0.0004980564117431641
ell 660, elapsed: 0.0005028247833251953
ell 659, elapsed: 0.0004980564117431641
ell 658, elapsed: 0.0004990100860595703
ell 657, elapsed: 0.0005040168762207031
ell 656, elapsed: 0.0004839897155761719
ell 655, elapsed: 0.0004849433898925781
ell 654, elapsed: 0.0004839897155761719
ell 653, elapsed: 0.0004849433898925781
ell 652, elapsed: 0.0004901885986328125
ell 651, elapsed: 0.0004839897155761719
ell 650, elapsed: 0.0005009174346923828
ell 649, elapsed: 0.0004918575286865234
ell 648, elapsed: 0.00049591064453125
ell 647, elapsed: 0.0005221366882324219
ell 646, elapsed: 0.0004990100860595703
ell 645, elapsed: 0.000720977783203125
ell 644, elapsed: 0.0005068778991699219
ell 643, elapsed: 0.00047278404235839844
ell 642, elapsed: 0.0006639957427978516
ell 641, elapsed: 0.0004839897155761719
ell 640, elapsed: 0.0004971027374267578
ell 639, elapsed: 0.0007150173187255859
ell 638, elapsed: 0.0007550716400146484
ell 637, elapsed: 0.000720977783203125
ell 636, elapsed: 0.0007619857788085938
ell 635, elapsed: 0.0007178783416748047
ell 634, elapsed: 0.0007269382476806641
ell 633, elapsed: 0.0007350444793701172
ell 632, elapsed: 0.0007350444793701172
ell 631, elapsed: 0.0004999637603759766
ell 630, elapsed: 0.0004627704620361328
ell 629, elapsed: 0.0004532337188720703
ell 628, elapsed: 0.00047016143798828125
ell 627, elapsed: 0.0006649494171142578
ell 626, elapsed: 0.0006780624389648438
ell 625, elapsed: 0.0005829334259033203
ell 624, elapsed: 0.0006711483001708984
ell 623, elapsed: 0.0005099773406982422
ell 622, elapsed: 0.0004990100860595703
ell 621, elapsed: 0.0006849765777587891
ell 620, elapsed: 0.0005190372467041016
ell 619, elapsed: 0.0006299018859863281
ell 618, elapsed: 0.0007560253143310547
ell 617, elapsed: 0.0007419586181640625
ell 616, elapsed: 0.00049591064453125
ell 615, elapsed: 0.0004909038543701172
ell 614, elapsed: 0.0004799365997314453
ell 613, elapsed: 0.0006539821624755859
ell 612, elapsed: 0.0007750988006591797
ell 611, elapsed: 0.0004868507385253906
ell 610, elapsed: 0.0006120204925537109
ell 609, elapsed: 0.0006949901580810547
ell 608, elapsed: 0.0007309913635253906
ell 607, elapsed: 0.0006492137908935547
ell 606, elapsed: 0.0006129741668701172
ell 605, elapsed: 0.0006661415100097656
ell 604, elapsed: 0.0006940364837646484
ell 603, elapsed: 0.0006999969482421875
ell 602, elapsed: 0.0005099773406982422
ell 601, elapsed: 0.00047707557678222656
ell 600, elapsed: 0.0004718303680419922
ell 599, elapsed: 0.00046896934509277344
ell 598, elapsed: 0.0007059574127197266
ell 597, elapsed: 0.0005078315734863281
ell 596, elapsed: 0.0006561279296875
ell 595, elapsed: 0.0004730224609375
ell 594, elapsed: 0.0005970001220703125
ell 593, elapsed: 0.0005159378051757812
ell 592, elapsed: 0.00046896934509277344
ell 591, elapsed: 0.0005018711090087891
ell 590, elapsed: 0.0005011558532714844
ell 589, elapsed: 0.0004909038543701172
ell 588, elapsed: 0.0004949569702148438
ell 587, elapsed: 0.00048613548278808594
ell 586, elapsed: 0.0004978179931640625
ell 585, elapsed: 0.0004980564117431641
ell 584, elapsed: 0.00048613548278808594
ell 583, elapsed: 0.0004909038543701172
ell 582, elapsed: 0.0004849433898925781
ell 581, elapsed: 0.0004889965057373047
ell 580, elapsed: 0.00048613548278808594
ell 579, elapsed: 0.0004940032958984375
ell 578, elapsed: 0.0004849433898925781
ell 577, elapsed: 0.0004990100860595703
ell 576, elapsed: 0.0004949569702148438
ell 575, elapsed: 0.00048613548278808594
ell 574, elapsed: 0.0005049705505371094
ell 573, elapsed: 0.0004849433898925781
ell 572, elapsed: 0.0004858970642089844
ell 571, elapsed: 0.0005052089691162109
ell 570, elapsed: 0.0004811286926269531
ell 569, elapsed: 0.0005030632019042969
ell 568, elapsed: 0.0004858970642089844
ell 567, elapsed: 0.00048804283142089844
ell 566, elapsed: 0.000492095947265625
ell 565, elapsed: 0.0005030632019042969
ell 564, elapsed: 0.0004911422729492188
ell 563, elapsed: 0.0004858970642089844
ell 562, elapsed: 0.0005030632019042969
ell 561, elapsed: 0.0004899501800537109
ell 560, elapsed: 0.0004858970642089844
ell 559, elapsed: 0.0004978179931640625
ell 558, elapsed: 0.0004849433898925781
ell 557, elapsed: 0.00048804283142089844
ell 556, elapsed: 0.0005059242248535156
ell 555, elapsed: 0.00048804283142089844
ell 554, elapsed: 0.0004899501800537109
ell 553, elapsed: 0.0004990100860595703
ell 552, elapsed: 0.0005059242248535156
ell 551, elapsed: 0.0004839897155761719
ell 550, elapsed: 0.0004839897155761719
ell 549, elapsed: 0.0004868507385253906
ell 548, elapsed: 0.0004878044128417969
ell 547, elapsed: 0.0004911422729492188
ell 546, elapsed: 0.0005021095275878906
ell 545, elapsed: 0.00048613548278808594
ell 544, elapsed: 0.0004849433898925781
ell 543, elapsed: 0.0005002021789550781
ell 542, elapsed: 0.0005078315734863281
ell 541, elapsed: 0.0004849433898925781
ell 540, elapsed: 0.00048279762268066406
ell 539, elapsed: 0.000492095947265625
ell 538, elapsed: 0.0004820823669433594
ell 537, elapsed: 0.0005080699920654297
ell 536, elapsed: 0.0005009174346923828
ell 535, elapsed: 0.00048804283142089844
ell 534, elapsed: 0.0005040168762207031
ell 533, elapsed: 0.0004911422729492188
ell 532, elapsed: 0.0004870891571044922
ell 531, elapsed: 0.0005028247833251953
ell 530, elapsed: 0.0004990100860595703
ell 529, elapsed: 0.0005028247833251953
ell 528, elapsed: 0.0004980564117431641
ell 527, elapsed: 0.0004930496215820312
ell 526, elapsed: 0.0004830360412597656
ell 525, elapsed: 0.0004909038543701172
ell 524, elapsed: 0.0004889965057373047
ell 523, elapsed: 0.0004868507385253906
ell 522, elapsed: 0.0004868507385253906
ell 521, elapsed: 0.0004878044128417969
ell 520, elapsed: 0.0005018711090087891
ell 519, elapsed: 0.0005040168762207031
ell 518, elapsed: 0.0004868507385253906
ell 517, elapsed: 0.000492095947265625
ell 516, elapsed: 0.0004849433898925781
ell 515, elapsed: 0.000492095947265625
ell 514, elapsed: 0.0004899501800537109
ell 513, elapsed: 0.0005002021789550781
ell 512, elapsed: 0.00049591064453125
ell 511, elapsed: 0.0004858970642089844
ell 510, elapsed: 0.00048804283142089844
ell 509, elapsed: 0.0004858970642089844
ell 508, elapsed: 0.0004839897155761719
ell 507, elapsed: 0.0004949569702148438
ell 506, elapsed: 0.0004851818084716797
ell 505, elapsed: 0.0004851818084716797
ell 504, elapsed: 0.0004811286926269531
ell 503, elapsed: 0.0004858970642089844
ell 502, elapsed: 0.0005059242248535156
ell 501, elapsed: 0.0004851818084716797
ell 500, elapsed: 0.0004980564117431641
ell 499, elapsed: 0.0004820823669433594
ell 498, elapsed: 0.00048613548278808594
ell 497, elapsed: 0.0004930496215820312
ell 496, elapsed: 0.0005130767822265625
ell 495, elapsed: 0.0005030632019042969
ell 494, elapsed: 0.0004851818084716797
ell 493, elapsed: 0.00048089027404785156
ell 492, elapsed: 0.0004849433898925781
ell 491, elapsed: 0.0004868507385253906
ell 490, elapsed: 0.0005018711090087891
ell 489, elapsed: 0.00049591064453125
ell 488, elapsed: 0.0006878376007080078
ell 487, elapsed: 0.0005140304565429688
ell 486, elapsed: 0.0006608963012695312
ell 485, elapsed: 0.00047397613525390625
ell 484, elapsed: 0.0006761550903320312
ell 483, elapsed: 0.0004889965057373047
ell 482, elapsed: 0.00045299530029296875
ell 481, elapsed: 0.0004551410675048828
ell 480, elapsed: 0.0007450580596923828
ell 479, elapsed: 0.0007200241088867188
ell 478, elapsed: 0.0007510185241699219
ell 477, elapsed: 0.0006780624389648438
ell 476, elapsed: 0.0007388591766357422
ell 475, elapsed: 0.0007169246673583984
ell 474, elapsed: 0.0007328987121582031
ell 473, elapsed: 0.000759124755859375
ell 472, elapsed: 0.0007610321044921875
ell 471, elapsed: 0.0007269382476806641
ell 470, elapsed: 0.00047516822814941406
ell 469, elapsed: 0.00045609474182128906
ell 468, elapsed: 0.0004630088806152344
ell 467, elapsed: 0.000492095947265625
ell 466, elapsed: 0.0006539821624755859
ell 465, elapsed: 0.0006978511810302734
ell 464, elapsed: 0.0005338191986083984
ell 463, elapsed: 0.00048613548278808594
ell 462, elapsed: 0.000637054443359375
ell 461, elapsed: 0.0004949569702148438
ell 460, elapsed: 0.0004761219024658203
ell 459, elapsed: 0.0006840229034423828
ell 458, elapsed: 0.0007240772247314453
ell 457, elapsed: 0.0005459785461425781
ell 456, elapsed: 0.0006659030914306641
ell 455, elapsed: 0.000659942626953125
ell 454, elapsed: 0.0005030632019042969
ell 453, elapsed: 0.0005009174346923828
ell 452, elapsed: 0.0007190704345703125
ell 451, elapsed: 0.0006721019744873047
ell 450, elapsed: 0.0006859302520751953
ell 449, elapsed: 0.0007469654083251953
ell 448, elapsed: 0.000514984130859375
ell 447, elapsed: 0.0004749298095703125
ell 446, elapsed: 0.0006418228149414062
ell 445, elapsed: 0.0006501674652099609
ell 444, elapsed: 0.0007159709930419922
ell 443, elapsed: 0.0007159709930419922
ell 442, elapsed: 0.0006759166717529297
ell 441, elapsed: 0.0006899833679199219
ell 440, elapsed: 0.000476837158203125
ell 439, elapsed: 0.0004620552062988281
ell 438, elapsed: 0.0006878376007080078
ell 437, elapsed: 0.0007190704345703125
ell 436, elapsed: 0.0007319450378417969
ell 435, elapsed: 0.000492095947265625
ell 434, elapsed: 0.0006239414215087891
ell 433, elapsed: 0.0006239414215087891
ell 432, elapsed: 0.0007548332214355469
ell 431, elapsed: 0.0006551742553710938
ell 430, elapsed: 0.0005218982696533203
ell 429, elapsed: 0.0004930496215820312
ell 428, elapsed: 0.00048089027404785156
ell 427, elapsed: 0.0004839897155761719
ell 426, elapsed: 0.0005140304565429688
ell 425, elapsed: 0.0005090236663818359
ell 424, elapsed: 0.0004899501800537109
ell 423, elapsed: 0.0004940032958984375
ell 422, elapsed: 0.0004830360412597656
ell 421, elapsed: 0.0005002021789550781
ell 420, elapsed: 0.0004858970642089844
ell 419, elapsed: 0.0005130767822265625
ell 418, elapsed: 0.0004818439483642578
ell 417, elapsed: 0.0005040168762207031
ell 416, elapsed: 0.0004611015319824219
ell 415, elapsed: 0.00044989585876464844
ell 414, elapsed: 0.00045013427734375
ell 413, elapsed: 0.00047016143798828125
ell 412, elapsed: 0.0004470348358154297
ell 411, elapsed: 0.00045490264892578125
ell 410, elapsed: 0.0004451274871826172
ell 409, elapsed: 0.00045299530029296875
ell 408, elapsed: 0.00044083595275878906
ell 407, elapsed: 0.00044608116149902344
ell 406, elapsed: 0.00044608116149902344
ell 405, elapsed: 0.0004589557647705078
ell 404, elapsed: 0.0004489421844482422
ell 403, elapsed: 0.0004439353942871094
ell 402, elapsed: 0.0004489421844482422
ell 401, elapsed: 0.0004429817199707031
ell 400, elapsed: 0.0004429817199707031
ell 399, elapsed: 0.00044608116149902344
ell 398, elapsed: 0.00044083595275878906
ell 397, elapsed: 0.0004589557647705078
ell 396, elapsed: 0.0004420280456542969
ell 395, elapsed: 0.0004420280456542969
ell 394, elapsed: 0.0004489421844482422
ell 393, elapsed: 0.0004429817199707031
ell 392, elapsed: 0.0004429817199707031
ell 391, elapsed: 0.0004451274871826172
ell 390, elapsed: 0.0004420280456542969
ell 389, elapsed: 0.0004451274871826172
ell 388, elapsed: 0.0004458427429199219
ell 387, elapsed: 0.0004470348358154297
ell 386, elapsed: 0.00045108795166015625
ell 385, elapsed: 0.0004439353942871094
ell 384, elapsed: 0.00045180320739746094
ell 383, elapsed: 0.0004439353942871094
ell 382, elapsed: 0.00044608116149902344
ell 381, elapsed: 0.0004379749298095703
ell 380, elapsed: 0.0004570484161376953
ell 379, elapsed: 0.0004439353942871094
ell 378, elapsed: 0.0004410743713378906
ell 377, elapsed: 0.0004451274871826172
ell 376, elapsed: 0.0004451274871826172
ell 375, elapsed: 0.0004420280456542969
ell 374, elapsed: 0.00044798851013183594
ell 373, elapsed: 0.0004429817199707031
ell 372, elapsed: 0.0004630088806152344
ell 371, elapsed: 0.0004439353942871094
ell 370, elapsed: 0.00044798851013183594
ell 369, elapsed: 0.0004448890686035156
ell 368, elapsed: 0.0004448890686035156
ell 367, elapsed: 0.0004420280456542969
ell 366, elapsed: 0.00043201446533203125
ell 365, elapsed: 0.00044798851013183594
ell 364, elapsed: 0.0004668235778808594
ell 363, elapsed: 0.0004439353942871094
ell 362, elapsed: 0.00044798851013183594
ell 361, elapsed: 0.0004420280456542969
ell 360, elapsed: 0.0004508495330810547
ell 359, elapsed: 0.0004417896270751953
ell 358, elapsed: 0.00044417381286621094
ell 357, elapsed: 0.0004470348358154297
ell 356, elapsed: 0.00045800209045410156
ell 355, elapsed: 0.00045108795166015625
ell 354, elapsed: 0.0004429817199707031
ell 353, elapsed: 0.0004439353942871094
ell 352, elapsed: 0.00045180320739746094
ell 351, elapsed: 0.00044798851013183594
ell 350, elapsed: 0.0004467964172363281
ell 349, elapsed: 0.00045108795166015625
ell 348, elapsed: 0.0004570484161376953
ell 347, elapsed: 0.0004458427429199219
ell 346, elapsed: 0.0004458427429199219
ell 345, elapsed: 0.00045299530029296875
ell 344, elapsed: 0.0004439353942871094
ell 343, elapsed: 0.00044989585876464844
ell 342, elapsed: 0.0004429817199707031
ell 341, elapsed: 0.0004429817199707031
ell 340, elapsed: 0.0004630088806152344
ell 339, elapsed: 0.0004448890686035156
ell 338, elapsed: 0.0004467964172363281
ell 337, elapsed: 0.0004420280456542969
ell 336, elapsed: 0.0004448890686035156
ell 335, elapsed: 0.00044989585876464844
ell 334, elapsed: 0.0004420280456542969
ell 333, elapsed: 0.00045108795166015625
ell 332, elapsed: 0.0004558563232421875
ell 331, elapsed: 0.00044608116149902344
ell 330, elapsed: 0.000453948974609375
ell 329, elapsed: 0.0004439353942871094
ell 328, elapsed: 0.00045299530029296875
ell 327, elapsed: 0.0004439353942871094
ell 326, elapsed: 0.0004432201385498047
ell 325, elapsed: 0.00045108795166015625
ell 324, elapsed: 0.00045490264892578125
ell 323, elapsed: 0.00044608116149902344
ell 322, elapsed: 0.0004410743713378906
ell 321, elapsed: 0.0004451274871826172
ell 320, elapsed: 0.00044918060302734375
ell 319, elapsed: 0.0004448890686035156
ell 318, elapsed: 0.0004467964172363281
ell 317, elapsed: 0.0004410743713378906
ell 316, elapsed: 0.0004661083221435547
ell 315, elapsed: 0.0004420280456542969
ell 314, elapsed: 0.0004448890686035156
ell 313, elapsed: 0.0004470348358154297
ell 312, elapsed: 0.0004429817199707031
ell 311, elapsed: 0.00044083595275878906
ell 310, elapsed: 0.0004410743713378906
ell 309, elapsed: 0.0004410743713378906
ell 308, elapsed: 0.0004608631134033203
ell 307, elapsed: 0.00043702125549316406
ell 306, elapsed: 0.00044798851013183594
ell 305, elapsed: 0.0004391670227050781
ell 304, elapsed: 0.00044608116149902344
ell 303, elapsed: 0.00044798851013183594
ell 302, elapsed: 0.0004429817199707031
ell 301, elapsed: 0.0004439353942871094
ell 300, elapsed: 0.0006508827209472656
ell 299, elapsed: 0.0004918575286865234
ell 298, elapsed: 0.00044417381286621094
ell 297, elapsed: 0.00041413307189941406
ell 296, elapsed: 0.00041103363037109375
ell 295, elapsed: 0.0005700588226318359
ell 294, elapsed: 0.0005171298980712891
ell 293, elapsed: 0.0004260540008544922
ell 292, elapsed: 0.00042319297790527344
ell 291, elapsed: 0.00041413307189941406
ell 290, elapsed: 0.0005979537963867188
ell 289, elapsed: 0.0006799697875976562
ell 288, elapsed: 0.0006899833679199219
ell 287, elapsed: 0.00057220458984375
ell 286, elapsed: 0.0006299018859863281
ell 285, elapsed: 0.0007030963897705078
ell 284, elapsed: 0.0006909370422363281
ell 283, elapsed: 0.0006880760192871094
ell 282, elapsed: 0.0007011890411376953
ell 281, elapsed: 0.0007181167602539062
ell 280, elapsed: 0.0006899833679199219
ell 279, elapsed: 0.0006968975067138672
ell 278, elapsed: 0.0006959438323974609
ell 277, elapsed: 0.0007009506225585938
ell 276, elapsed: 0.0007479190826416016
ell 275, elapsed: 0.0007159709930419922
ell 274, elapsed: 0.0007021427154541016
ell 273, elapsed: 0.0004649162292480469
ell 272, elapsed: 0.00041794776916503906
ell 271, elapsed: 0.0004248619079589844
ell 270, elapsed: 0.00042510032653808594
ell 269, elapsed: 0.0006160736083984375
ell 268, elapsed: 0.0005230903625488281
ell 267, elapsed: 0.0006170272827148438
ell 266, elapsed: 0.0005900859832763672
ell 265, elapsed: 0.0005950927734375
ell 264, elapsed: 0.0004379749298095703
ell 263, elapsed: 0.0006339550018310547
ell 262, elapsed: 0.0006079673767089844
ell 261, elapsed: 0.0006968975067138672
ell 260, elapsed: 0.0005030632019042969
ell 259, elapsed: 0.0005240440368652344
ell 258, elapsed: 0.0006530284881591797
ell 257, elapsed: 0.0006959438323974609
ell 256, elapsed: 0.0005271434783935547
ell 255, elapsed: 0.0006189346313476562
ell 254, elapsed: 0.0006861686706542969
ell 253, elapsed: 0.0006139278411865234
ell 252, elapsed: 0.0005500316619873047
ell 251, elapsed: 0.0006368160247802734
ell 250, elapsed: 0.0006239414215087891
ell 249, elapsed: 0.0006759166717529297
ell 248, elapsed: 0.00067901611328125
ell 247, elapsed: 0.0006051063537597656
ell 246, elapsed: 0.0006098747253417969
ell 245, elapsed: 0.0005140304565429688
ell 244, elapsed: 0.0004439353942871094
ell 243, elapsed: 0.0004911422729492188
ell 242, elapsed: 0.0006151199340820312
ell 241, elapsed: 0.0005521774291992188
ell 240, elapsed: 0.0006852149963378906
ell 239, elapsed: 0.0007059574127197266
ell 238, elapsed: 0.0006611347198486328
ell 237, elapsed: 0.0005869865417480469
ell 236, elapsed: 0.0004341602325439453
ell 235, elapsed: 0.00040984153747558594
ell 234, elapsed: 0.0004169940948486328
ell 233, elapsed: 0.0004220008850097656
ell 232, elapsed: 0.000614166259765625
ell 231, elapsed: 0.000576019287109375
ell 230, elapsed: 0.0006721019744873047
ell 229, elapsed: 0.0006768703460693359
ell 228, elapsed: 0.0006740093231201172
ell 227, elapsed: 0.0005450248718261719
ell 226, elapsed: 0.000576019287109375
ell 225, elapsed: 0.0006928443908691406
ell 224, elapsed: 0.0004940032958984375
ell 223, elapsed: 0.0006380081176757812
ell 222, elapsed: 0.0006968975067138672
ell 221, elapsed: 0.0007088184356689453
ell 220, elapsed: 0.000701904296875
ell 219, elapsed: 0.0006840229034423828
ell 218, elapsed: 0.0006949901580810547
ell 217, elapsed: 0.0007040500640869141
ell 216, elapsed: 0.0006890296936035156
ell 215, elapsed: 0.0007169246673583984
ell 214, elapsed: 0.0006990432739257812
ell 213, elapsed: 0.0006909370422363281
ell 212, elapsed: 0.0006909370422363281
ell 211, elapsed: 0.0006890296936035156
ell 210, elapsed: 0.0007200241088867188
ell 209, elapsed: 0.0006918907165527344
ell 208, elapsed: 0.0006909370422363281
ell 207, elapsed: 0.0006999969482421875
ell 206, elapsed: 0.0006868839263916016
ell 205, elapsed: 0.0007171630859375
ell 204, elapsed: 0.0006899833679199219
ell 203, elapsed: 0.0007090568542480469
ell 202, elapsed: 0.0007028579711914062
ell 201, elapsed: 0.0006940364837646484
ell 200, elapsed: 0.0007159709930419922
ell 199, elapsed: 0.0006990432739257812
ell 198, elapsed: 0.0006880760192871094
ell 197, elapsed: 0.0007030963897705078
ell 196, elapsed: 0.0006918907165527344
ell 195, elapsed: 0.000720977783203125
ell 194, elapsed: 0.0006959438323974609
ell 193, elapsed: 0.0006971359252929688
ell 192, elapsed: 0.0006968975067138672
ell 191, elapsed: 0.0006899833679199219
ell 190, elapsed: 0.0007269382476806641
ell 189, elapsed: 0.0006940364837646484
ell 188, elapsed: 0.0007009506225585938
ell 187, elapsed: 0.0006909370422363281
ell 186, elapsed: 0.0006940364837646484
ell 185, elapsed: 0.0007219314575195312
ell 184, elapsed: 0.0006928443908691406
ell 183, elapsed: 0.000698089599609375
ell 182, elapsed: 0.0006968975067138672
ell 181, elapsed: 0.0006928443908691406
ell 180, elapsed: 0.0006990432739257812
ell 179, elapsed: 0.0006921291351318359
ell 178, elapsed: 0.0006971359252929688
ell 177, elapsed: 0.0006859302520751953
ell 176, elapsed: 0.0006968975067138672
ell 175, elapsed: 0.0007040500640869141
ell 174, elapsed: 0.0007059574127197266
ell 173, elapsed: 0.0006918907165527344
ell 172, elapsed: 0.0006909370422363281
ell 171, elapsed: 0.0006899833679199219
ell 170, elapsed: 0.0007030963897705078
ell 169, elapsed: 0.0007112026214599609
ell 168, elapsed: 0.000698089599609375
ell 167, elapsed: 0.0006890296936035156
ell 166, elapsed: 0.0006959438323974609
ell 165, elapsed: 0.0007090568542480469
ell 164, elapsed: 0.0007119178771972656
ell 163, elapsed: 0.0006978511810302734
ell 162, elapsed: 0.0006909370422363281
ell 161, elapsed: 0.0006999969482421875
ell 160, elapsed: 0.0006999969482421875
ell 159, elapsed: 0.0007090568542480469
ell 158, elapsed: 0.0007059574127197266
ell 157, elapsed: 0.0006990432739257812
ell 156, elapsed: 0.0006937980651855469
ell 155, elapsed: 0.0007140636444091797
ell 154, elapsed: 0.0007030963897705078
ell 153, elapsed: 0.0006990432739257812
ell 152, elapsed: 0.0006871223449707031
ell 151, elapsed: 0.0006971359252929688
ell 150, elapsed: 0.0006909370422363281
ell 149, elapsed: 0.0006949901580810547
ell 148, elapsed: 0.0007119178771972656
ell 147, elapsed: 0.0006968975067138672
ell 146, elapsed: 0.0006971359252929688
ell 145, elapsed: 0.0006928443908691406
ell 144, elapsed: 0.0006959438323974609
ell 143, elapsed: 0.000720977783203125
ell 142, elapsed: 0.0006909370422363281
ell 141, elapsed: 0.000701904296875
ell 140, elapsed: 0.0006930828094482422
ell 139, elapsed: 0.0006921291351318359
ell 138, elapsed: 0.0007178783416748047
ell 137, elapsed: 0.0006890296936035156
ell 136, elapsed: 0.0006921291351318359
ell 135, elapsed: 0.0006999969482421875
ell 134, elapsed: 0.0006978511810302734
ell 133, elapsed: 0.0007269382476806641
ell 132, elapsed: 0.0007061958312988281
ell 131, elapsed: 0.0007028579711914062
ell 130, elapsed: 0.0006959438323974609
ell 129, elapsed: 0.0007109642028808594
ell 128, elapsed: 0.0007150173187255859
ell 127, elapsed: 0.0006928443908691406
ell 126, elapsed: 0.0007069110870361328
ell 125, elapsed: 0.0007009506225585938
ell 124, elapsed: 0.0007050037384033203
ell 123, elapsed: 0.0007140636444091797
ell 122, elapsed: 0.0006968975067138672
ell 121, elapsed: 0.0007090568542480469
ell 120, elapsed: 0.000698089599609375
ell 119, elapsed: 0.0007038116455078125
ell 118, elapsed: 0.0007028579711914062
ell 117, elapsed: 0.0007109642028808594
ell 116, elapsed: 0.0006988048553466797
ell 115, elapsed: 0.0006930828094482422
ell 114, elapsed: 0.0007021427154541016
ell 113, elapsed: 0.0007071495056152344
ell 112, elapsed: 0.0007090568542480469
ell 111, elapsed: 0.0006959438323974609
ell 110, elapsed: 0.0006961822509765625
ell 109, elapsed: 0.0007030963897705078
ell 108, elapsed: 0.0006959438323974609
ell 107, elapsed: 0.0007081031799316406
ell 106, elapsed: 0.0006959438323974609
ell 105, elapsed: 0.0006999969482421875
ell 104, elapsed: 0.0007009506225585938
ell 103, elapsed: 0.0006928443908691406
ell 102, elapsed: 0.0007150173187255859
ell 101, elapsed: 0.0006899833679199219
ell 100, elapsed: 0.0006921291351318359
ell 99, elapsed: 0.0007011890411376953
ell 98, elapsed: 0.0006990432739257812
ell 97, elapsed: 0.0007169246673583984
ell 96, elapsed: 0.0006930828094482422
ell 95, elapsed: 0.0007038116455078125
ell 94, elapsed: 0.0007011890411376953
ell 93, elapsed: 0.0006990432739257812
ell 92, elapsed: 0.0007090568542480469
ell 91, elapsed: 0.0006990432739257812
ell 90, elapsed: 0.0006849765777587891
ell 89, elapsed: 0.0006890296936035156
ell 88, elapsed: 0.0006680488586425781
ell 87, elapsed: 0.0006530284881591797
ell 86, elapsed: 0.0006649494171142578
ell 85, elapsed: 0.0006780624389648438
ell 84, elapsed: 0.0006518363952636719
ell 83, elapsed: 0.0006470680236816406
ell 82, elapsed: 0.0006880760192871094
ell 81, elapsed: 0.0007300376892089844
ell 80, elapsed: 0.0006198883056640625
ell 79, elapsed: 0.0006999969482421875
ell 78, elapsed: 0.0006229877471923828
ell 77, elapsed: 0.0006959438323974609
ell 76, elapsed: 0.0007081031799316406
ell 75, elapsed: 0.0006310939788818359
ell 74, elapsed: 0.0006930828094482422
ell 73, elapsed: 0.0005300045013427734
ell 72, elapsed: 0.0006439685821533203
ell 71, elapsed: 0.0006821155548095703
ell 70, elapsed: 0.0007131099700927734
ell 69, elapsed: 0.0007009506225585938
ell 68, elapsed: 0.0006859302520751953
ell 67, elapsed: 0.0006949901580810547
ell 66, elapsed: 0.0006799697875976562
ell 65, elapsed: 0.0005681514739990234
ell 64, elapsed: 0.00041294097900390625
ell 63, elapsed: 0.0004169940948486328
ell 62, elapsed: 0.0004220008850097656
ell 61, elapsed: 0.0004260540008544922
ell 60, elapsed: 0.0004410743713378906
ell 59, elapsed: 0.0006170272827148438
ell 58, elapsed: 0.0004839897155761719
ell 57, elapsed: 0.0005578994750976562
ell 56, elapsed: 0.0005559921264648438
ell 55, elapsed: 0.000576019287109375
ell 54, elapsed: 0.0005249977111816406
ell 53, elapsed: 0.0005879402160644531
ell 52, elapsed: 0.0005750656127929688
ell 51, elapsed: 0.0004470348358154297
ell 50, elapsed: 0.00061798095703125
ell 49, elapsed: 0.0006818771362304688
ell 48, elapsed: 0.0006830692291259766
ell 47, elapsed: 0.0006120204925537109
ell 46, elapsed: 0.0006148815155029297
ell 45, elapsed: 0.0007119178771972656
ell 44, elapsed: 0.0005629062652587891
ell 43, elapsed: 0.0005471706390380859
ell 42, elapsed: 0.0005800724029541016
ell 41, elapsed: 0.00043892860412597656
ell 40, elapsed: 0.0004410743713378906
ell 39, elapsed: 0.0005869865417480469
ell 38, elapsed: 0.0005528926849365234
ell 37, elapsed: 0.0006411075592041016
ell 36, elapsed: 0.0006911754608154297
ell 35, elapsed: 0.0005800724029541016
ell 34, elapsed: 0.0004382133483886719
ell 33, elapsed: 0.0006079673767089844
ell 32, elapsed: 0.0005800724029541016
ell 31, elapsed: 0.0006139278411865234
ell 30, elapsed: 0.0006859302520751953
ell 29, elapsed: 0.0006818771362304688
ell 28, elapsed: 0.0006501674652099609
ell 27, elapsed: 0.0006270408630371094
ell 26, elapsed: 0.00041794776916503906
ell 25, elapsed: 0.00041604042053222656
ell 24, elapsed: 0.0004298686981201172
ell 23, elapsed: 0.0005888938903808594
ell 22, elapsed: 0.0005669593811035156
ell 21, elapsed: 0.0006160736083984375
ell 20, elapsed: 0.0007121562957763672
ell 19, elapsed: 0.0006299018859863281
ell 18, elapsed: 0.0005619525909423828
ell 17, elapsed: 0.00043702125549316406
ell 16, elapsed: 0.0005218982696533203
ell 15, elapsed: 0.0006937980651855469
ell 14, elapsed: 0.0006120204925537109
ell 13, elapsed: 0.000453948974609375
ell 12, elapsed: 0.0004470348358154297
ell 11, elapsed: 0.0004620552062988281
ell 10, elapsed: 0.0006008148193359375
ell 9, elapsed: 0.0005381107330322266
ell 8, elapsed: 0.0004520416259765625
ell 7, elapsed: 0.0006618499755859375
ell 6, elapsed: 0.0004870891571044922
ell 5, elapsed: 0.00045108795166015625
ell 4, elapsed: 0.00044417381286621094
ell 3, elapsed: 0.00044608116149902344
ell 2, elapsed: 0.0004448890686035156
ell 1, elapsed: 0.00044918060302734375
ell 0, elapsed: 0.0004439353942871094
  0.837080 seconds (103.59 k allocations: 3.969 MiB)
elapsed: 0.000553131103515625
step:          0.076892 sec (0 allocations: 0 byte, 0.0% gc time)
swapping:      0.000749 sec (0 allocations: 0 byte, 0.0% gc time)
calc_Mellell!: 0.013329 sec (0 allocations: 0 byte, 0.0% gc time)
  t0 :  0.00246 sec (0 allocations: 0 byte, 0.0% gc time)
  tm2 : 0.1073 sec (0 allocations: 0 byte, 0.0% gc time)
  tm2s: 0.001593 sec (0 allocations: 0 byte, 0.0% gc time)
  tm4 : 0.293814 sec (0 allocations: 0 byte, 0.0% gc time)
  tp2 : 0.0 sec (0 allocations: 0 byte, 0.0% gc time)
  tp2s: 0.0 sec (0 allocations: 0 byte, 0.0% gc time)
  tp4 : 0.0 sec (0 allocations: 0 byte, 0.0% gc time)
calc_wtdll!:   0.435795 sec (9.9 k allocations: 1.047 MB, 0.0% gc time)
calc_wljj!:    0.051022 sec (689 allocations: 10.766 KB, 0.0% gc time)
mult_prefac!:  0.0 sec (0 allocations: 0 byte, 0.0% gc time)
convert:       0.0 sec (0 allocations: 0 byte, 0.0% gc time)
write:         0.044986 sec (0 allocations: 0 byte, 0.0% gc time)
test_rand_2f1: 0.0 sec (0 allocations: 0 byte, 0.0% gc time)
Closing outfile out/Ml21-cache.bin...   0.000008 seconds
  0.000526 seconds (36 allocations: 27.953 KiB)
make_phi():   0.003045 seconds (8.18 k allocations: 237.844 KiB)
  0.278856 seconds (141.90 k allocations: 3.483 MiB)
tskip:       0.001382 sec (0 allocations: 0 byte, 0.0% gc time)
tread:       0.035186 sec (17 allocations: 10.641 KB, 0.0% gc time)
tmultphi:    0.020977 sec (0 allocations: 0 byte, 0.0% gc time)
tbrfft:      0.067041 sec (0 allocations: 0 byte, 0.0% gc time)
tmultprefac: 0.063184 sec (0 allocations: 0 byte, 0.0% gc time)
toutfunc:    0.085825 sec (127.507 k allocations: 2.312 MB, 0.0% gc time)
Testing R=1.0 ... passed
Calculating fmax: 
  dlrec    = 4
  dlrecRg1 = -4
  q=1.1, R=0.9:	  0.486931 seconds (105.76 k allocations: 15.287 MiB)

  0.487289 seconds (105.99 k allocations: 15.324 MiB)
ℓ = 1202
Δℓ = 4
ΔℓRg1 = -4
N = 1600
q = 1.1
kmin = 1.0e-5
kmax = 100000.00000000004
χ0 = 0.023029999999999995
RR = RR.tsv
ℓmax = ℓmax.bin
f21 = f21.bin
kmin = 1.0e-5
kmax = 100000.0
dlrec    = 4
dlrecRg1 = -4
Output size: 5741568 bytes = 0.005347251892089844 GiB
Output size: 51264 bytes = 4.774332046508789e-5 GiB
Reading 'out/F21EllCache'...   0.001201 seconds (197 allocations: 84.203 KiB)
ellmax: 1202
lmaxcache: 1202
fell[:,1,1] = ComplexF64[1.3482014726274674e-57 - 3.302141236118086e-73im, 1.357860004724329e-57 - 3.3257978169518355e-73im]
ell 1202, elapsed: 3.0994415283203125e-5
ell 1201, elapsed: 0.0005991458892822266
ell 1200, elapsed: 0.0006821155548095703
ell 1199, elapsed: 0.0006840229034423828
ell 1198, elapsed: 0.0005660057067871094
ell 1002, elapsed: 0.013220071792602539
ell 1001, elapsed: 0.0005099773406982422
ell 1000, elapsed: 0.00046706199645996094
ell 999, elapsed: 0.00040721893310546875
ell 998, elapsed: 0.0003800392150878906
ell 902, elapsed: 0.006747007369995117
ell 901, elapsed: 0.0004940032958984375
ell 900, elapsed: 0.0005009174346923828
ell 899, elapsed: 0.00043201446533203125
ell 898, elapsed: 0.0005929470062255859
ell 802, elapsed: 0.006777048110961914
ell 801, elapsed: 0.0005450248718261719
ell 800, elapsed: 0.0004901885986328125
ell 799, elapsed: 0.0004858970642089844
ell 798, elapsed: 0.0006470680236816406
ell 702, elapsed: 0.006638050079345703
ell 701, elapsed: 0.0005040168762207031
ell 700, elapsed: 0.0004780292510986328
ell 699, elapsed: 0.0004451274871826172
ell 698, elapsed: 0.0004420280456542969
ell 602, elapsed: 0.006712913513183594
ell 601, elapsed: 0.0005061626434326172
ell 600, elapsed: 0.00047707557678222656
ell 599, elapsed: 0.0004000663757324219
ell 598, elapsed: 0.0003769397735595703
ell 502, elapsed: 0.005897998809814453
ell 501, elapsed: 0.00039386749267578125
ell 500, elapsed: 0.0004830360412597656
ell 499, elapsed: 0.0005199909210205078
ell 498, elapsed: 0.0004429817199707031
ell 402, elapsed: 0.0067598819732666016
ell 401, elapsed: 0.0005090236663818359
ell 400, elapsed: 0.0007491111755371094
ell 399, elapsed: 0.00044083595275878906
ell 398, elapsed: 0.0004661083221435547
ell 302, elapsed: 0.006296873092651367
ell 301, elapsed: 0.0004208087921142578
ell 300, elapsed: 0.00039196014404296875
ell 299, elapsed: 0.0005359649658203125
ell 298, elapsed: 0.0005059242248535156
ell 202, elapsed: 0.006975889205932617
ell 201, elapsed: 0.00041484832763671875
ell 200, elapsed: 0.0003819465637207031
ell 199, elapsed: 0.00037789344787597656
ell 198, elapsed: 0.0003941059112548828
ell 152, elapsed: 0.0027370452880859375
ell 151, elapsed: 0.0003809928894042969
ell 150, elapsed: 0.0003821849822998047
ell 149, elapsed: 0.00037288665771484375
ell 148, elapsed: 0.00037288665771484375
ell 127, elapsed: 0.0020279884338378906
ell 126, elapsed: 0.0005140304565429688
ell 125, elapsed: 0.00046896934509277344
ell 124, elapsed: 0.00039505958557128906
ell 123, elapsed: 0.0003669261932373047
ell 114, elapsed: 0.0012540817260742188
ell 113, elapsed: 0.0004520416259765625
ell 112, elapsed: 0.0004401206970214844
ell 111, elapsed: 0.0004558563232421875
ell 110, elapsed: 0.0004830360412597656
ell 102, elapsed: 0.0010209083557128906
ell 101, elapsed: 0.0005059242248535156
ell 100, elapsed: 0.0003921985626220703
ell 99, elapsed: 0.0003731250762939453
ell 98, elapsed: 0.0003790855407714844
ell 97, elapsed: 0.0004680156707763672
ell 96, elapsed: 0.0004520416259765625
ell 95, elapsed: 0.000453948974609375
ell 94, elapsed: 0.0004360675811767578
ell 93, elapsed: 0.00047087669372558594
ell 92, elapsed: 0.0004448890686035156
ell 91, elapsed: 0.0004451274871826172
ell 90, elapsed: 0.0007989406585693359
ell 89, elapsed: 0.00046515464782714844
ell 88, elapsed: 0.0004482269287109375
ell 87, elapsed: 0.0004379749298095703
ell 86, elapsed: 0.000453948974609375
ell 85, elapsed: 0.0004379749298095703
ell 84, elapsed: 0.0005888938903808594
ell 83, elapsed: 0.0005729198455810547
ell 82, elapsed: 0.0005071163177490234
ell 81, elapsed: 0.0005578994750976562
ell 80, elapsed: 0.000576019287109375
ell 79, elapsed: 0.0005679130554199219
ell 78, elapsed: 0.0004851818084716797
ell 77, elapsed: 0.0004928112030029297
ell 76, elapsed: 0.0004839897155761719
ell 75, elapsed: 0.0004980564117431641
ell 74, elapsed: 0.0004260540008544922
ell 73, elapsed: 0.0004229545593261719
ell 72, elapsed: 0.0005450248718261719
ell 71, elapsed: 0.0016331672668457031
ell 70, elapsed: 0.001463174819946289
ell 69, elapsed: 0.0029649734497070312
ell 68, elapsed: 0.001068115234375
ell 67, elapsed: 0.0011620521545410156
ell 66, elapsed: 0.00139617919921875
ell 65, elapsed: 0.0008420944213867188
ell 64, elapsed: 0.0005249977111816406
ell 63, elapsed: 0.0005497932434082031
ell 62, elapsed: 0.0005509853363037109
ell 61, elapsed: 0.0005910396575927734
ell 60, elapsed: 0.00048279762268066406
ell 59, elapsed: 0.0006148815155029297
ell 58, elapsed: 0.0015521049499511719
ell 57, elapsed: 0.0007610321044921875
ell 56, elapsed: 0.0005359649658203125
ell 55, elapsed: 0.00043392181396484375
ell 54, elapsed: 0.00045609474182128906
ell 53, elapsed: 0.0006048679351806641
ell 52, elapsed: 0.0005168914794921875
ell 51, elapsed: 0.0007069110870361328
ell 50, elapsed: 0.0005819797515869141
ell 49, elapsed: 0.0005578994750976562
ell 48, elapsed: 0.000553131103515625
ell 47, elapsed: 0.0005030632019042969
ell 46, elapsed: 0.0005469322204589844
ell 45, elapsed: 0.0005218982696533203
ell 44, elapsed: 0.0005090236663818359
ell 43, elapsed: 0.0005459785461425781
ell 42, elapsed: 0.00048613548278808594
ell 41, elapsed: 0.0004711151123046875
ell 40, elapsed: 0.0004379749298095703
ell 39, elapsed: 0.00045800209045410156
ell 38, elapsed: 0.00044417381286621094
ell 37, elapsed: 0.0004448890686035156
ell 36, elapsed: 0.0004470348358154297
ell 35, elapsed: 0.0004341602325439453
ell 34, elapsed: 0.0004870891571044922
ell 33, elapsed: 0.0005500316619873047
ell 32, elapsed: 0.0005300045013427734
ell 31, elapsed: 0.00045800209045410156
ell 30, elapsed: 0.0004520416259765625
ell 29, elapsed: 0.0004611015319824219
ell 28, elapsed: 0.000453948974609375
ell 27, elapsed: 0.0004489421844482422
ell 26, elapsed: 0.000637054443359375
ell 25, elapsed: 0.0005929470062255859
ell 24, elapsed: 0.0005710124969482422
ell 23, elapsed: 0.0005528926849365234
ell 22, elapsed: 0.0005750656127929688
ell 21, elapsed: 0.0005998611450195312
ell 20, elapsed: 0.0005180835723876953
ell 19, elapsed: 0.0005891323089599609
ell 18, elapsed: 0.000579833984375
ell 17, elapsed: 0.0008070468902587891
ell 16, elapsed: 0.0006449222564697266
ell 15, elapsed: 0.0005638599395751953
ell 14, elapsed: 0.0004761219024658203
ell 13, elapsed: 0.00044798851013183594
ell 12, elapsed: 0.0006158351898193359
ell 11, elapsed: 0.0007500648498535156
ell 10, elapsed: 0.0005941390991210938
ell 9, elapsed: 0.0005841255187988281
ell 8, elapsed: 0.0005698204040527344
ell 7, elapsed: 0.0008018016815185547
ell 6, elapsed: 0.0008039474487304688
ell 5, elapsed: 0.0005521774291992188
ell 4, elapsed: 0.0007519721984863281
ell 3, elapsed: 0.0008330345153808594
ell 2, elapsed: 0.0006120204925537109
ell 1, elapsed: 0.0006589889526367188
ell 0, elapsed: 0.0005660057067871094
  0.174598 seconds (19.53 k allocations: 844.906 KiB)
elapsed: 0.0011861324310302734
step:          0.074368 sec (0 allocations: 0 byte, 0.0% gc time)
swapping:      0.000625 sec (0 allocations: 0 byte, 0.0% gc time)
calc_Mellell!: 0.002076 sec (0 allocations: 0 byte, 0.0% gc time)
  t0 :  0.000426 sec (0 allocations: 0 byte, 0.0% gc time)
  tm2 : 0.017133 sec (0 allocations: 0 byte, 0.0% gc time)
  tm2s: 0.000382 sec (0 allocations: 0 byte, 0.0% gc time)
  tm4 : 0.045884 sec (0 allocations: 0 byte, 0.0% gc time)
  tp2 : 0.0 sec (0 allocations: 0 byte, 0.0% gc time)
  tp2s: 0.0 sec (0 allocations: 0 byte, 0.0% gc time)
  tp4 : 0.0 sec (0 allocations: 0 byte, 0.0% gc time)
calc_wtdll!:   0.064726 sec (1.344 k allocations: 147.0 KB, 0.0% gc time)
calc_wljj!:    0.005194 sec (6 allocations: 96 byte, 0.0% gc time)
mult_prefac!:  0.0 sec (0 allocations: 0 byte, 0.0% gc time)
convert:       0.0 sec (0 allocations: 0 byte, 0.0% gc time)
write:         0.005828 sec (0 allocations: 0 byte, 0.0% gc time)
test_rand_2f1: 0.0 sec (0 allocations: 0 byte, 0.0% gc time)
Closing outfile out/Ml21-cache.bin...   0.000007 seconds
  0.000481 seconds (36 allocations: 27.953 KiB)
make_phi():   0.003718 seconds (8.18 k allocations: 237.844 KiB)
  0.035008 seconds (11.65 k allocations: 308.688 KiB)
tskip:       5.0e-5 sec (0 allocations: 0 byte, 0.0% gc time)
tread:       0.004475 sec (17 allocations: 2.125 KB, 0.0% gc time)
tmultphi:    0.00258 sec (0 allocations: 0 byte, 0.0% gc time)
tbrfft:      0.008325 sec (0 allocations: 0 byte, 0.0% gc time)
tmultprefac: 0.007686 sec (0 allocations: 0 byte, 0.0% gc time)
toutfunc:    0.011037 sec (10.304 k allocations: 196.0 KB, 0.0% gc time)
Testing R=0.9 ... passed
Calculating fmax: 
  dlrec    = 4
  dlrecRg1 = -4
  q=1.1, R=0.8:	  0.479058 seconds (103.25 k allocations: 14.856 MiB)

  0.479426 seconds (103.48 k allocations: 14.893 MiB)
ℓ = 1202
Δℓ = 4
ΔℓRg1 = -4
N = 1600
q = 1.1
kmin = 1.0e-5
kmax = 100000.00000000004
χ0 = 0.023029999999999995
RR = RR.tsv
ℓmax = ℓmax.bin
f21 = f21.bin
kmin = 1.0e-5
kmax = 100000.0
dlrec    = 4
dlrecRg1 = -4
Output size: 5741568 bytes = 0.005347251892089844 GiB
Output size: 51264 bytes = 4.774332046508789e-5 GiB
Reading 'out/F21EllCache'...   0.001138 seconds (197 allocations: 84.203 KiB)
ellmax: 1202
lmaxcache: 1202
fell[:,1,1] = ComplexF64[7.519068145690986e-120 - 1.8416405474382574e-135im, 7.541664537386155e-120 - 1.847175067190611e-135im]
ell 1202, elapsed: 2.9087066650390625e-5
ell 1201, elapsed: 0.00046896934509277344
ell 1200, elapsed: 0.00037288665771484375
ell 1199, elapsed: 0.00037288665771484375
ell 1198, elapsed: 0.00041794776916503906
ell 1002, elapsed: 0.010300159454345703
ell 1001, elapsed: 0.000408172607421875
ell 1000, elapsed: 0.0003790855407714844
ell 999, elapsed: 0.00037598609924316406
ell 998, elapsed: 0.0003910064697265625
ell 902, elapsed: 0.0057108402252197266
ell 901, elapsed: 0.0003941059112548828
ell 900, elapsed: 0.0003800392150878906
ell 899, elapsed: 0.0003800392150878906
ell 898, elapsed: 0.0003800392150878906
ell 802, elapsed: 0.005792140960693359
ell 801, elapsed: 0.0003960132598876953
ell 800, elapsed: 0.0003790855407714844
ell 799, elapsed: 0.0003790855407714844
ell 798, elapsed: 0.0003769397735595703
ell 702, elapsed: 0.005743980407714844
ell 701, elapsed: 0.0003898143768310547
ell 700, elapsed: 0.00036907196044921875
ell 699, elapsed: 0.00038504600524902344
ell 698, elapsed: 0.00039696693420410156
ell 602, elapsed: 0.005702972412109375
ell 601, elapsed: 0.0003960132598876953
ell 600, elapsed: 0.00038504600524902344
ell 599, elapsed: 0.0003819465637207031
ell 598, elapsed: 0.000370025634765625
ell 502, elapsed: 0.005167961120605469
ell 501, elapsed: 0.0004220008850097656
ell 500, elapsed: 0.0003800392150878906
ell 499, elapsed: 0.0003809928894042969
ell 498, elapsed: 0.0003809928894042969
ell 402, elapsed: 0.005522012710571289
ell 401, elapsed: 0.0004038810729980469
ell 400, elapsed: 0.0003948211669921875
ell 399, elapsed: 0.00037598609924316406
ell 398, elapsed: 0.00038504600524902344
ell 302, elapsed: 0.005514860153198242
ell 301, elapsed: 0.0004119873046875
ell 300, elapsed: 0.0003750324249267578
ell 299, elapsed: 0.00039505958557128906
ell 298, elapsed: 0.00037789344787597656
ell 202, elapsed: 0.005254983901977539
ell 201, elapsed: 0.00039505958557128906
ell 200, elapsed: 0.00037217140197753906
ell 199, elapsed: 0.00037097930908203125
ell 198, elapsed: 0.0003719329833984375
ell 152, elapsed: 0.003290891647338867
ell 151, elapsed: 0.0003819465637207031
ell 150, elapsed: 0.0003781318664550781
ell 149, elapsed: 0.0003910064697265625
ell 148, elapsed: 0.0003771781921386719
ell 127, elapsed: 0.0015358924865722656
ell 126, elapsed: 0.00037980079650878906
ell 125, elapsed: 0.00036978721618652344
ell 124, elapsed: 0.00036907196044921875
ell 123, elapsed: 0.0003859996795654297
ell 114, elapsed: 0.0008950233459472656
ell 113, elapsed: 0.0003681182861328125
ell 112, elapsed: 0.0003712177276611328
ell 111, elapsed: 0.0003688335418701172
ell 110, elapsed: 0.000370025634765625
ell 102, elapsed: 0.0008440017700195312
ell 101, elapsed: 0.00039196014404296875
ell 100, elapsed: 0.000370025634765625
ell 99, elapsed: 0.00037598609924316406
ell 98, elapsed: 0.0003750324249267578
ell 97, elapsed: 0.00045800209045410156
ell 96, elapsed: 0.0004630088806152344
ell 95, elapsed: 0.0004448890686035156
ell 94, elapsed: 0.0004429817199707031
ell 93, elapsed: 0.0005660057067871094
ell 92, elapsed: 0.00045299530029296875
ell 91, elapsed: 0.0004470348358154297
ell 90, elapsed: 0.0004551410675048828
ell 89, elapsed: 0.00045299530029296875
ell 88, elapsed: 0.000453948974609375
ell 87, elapsed: 0.0004558563232421875
ell 86, elapsed: 0.0004551410675048828
ell 85, elapsed: 0.0005619525909423828
ell 84, elapsed: 0.0004520416259765625
ell 83, elapsed: 0.0004448890686035156
ell 82, elapsed: 0.00045490264892578125
ell 81, elapsed: 0.00045108795166015625
ell 80, elapsed: 0.0004558563232421875
ell 79, elapsed: 0.0004470348358154297
ell 78, elapsed: 0.0004482269287109375
ell 77, elapsed: 0.0005090236663818359
ell 76, elapsed: 0.00045108795166015625
ell 75, elapsed: 0.00045680999755859375
ell 74, elapsed: 0.0005490779876708984
ell 73, elapsed: 0.0005748271942138672
ell 72, elapsed: 0.0005221366882324219
ell 71, elapsed: 0.0006010532379150391
ell 70, elapsed: 0.0004620552062988281
ell 69, elapsed: 0.0004448890686035156
ell 68, elapsed: 0.0004489421844482422
ell 67, elapsed: 0.000453948974609375
ell 66, elapsed: 0.0004467964172363281
ell 65, elapsed: 0.00044798851013183594
ell 64, elapsed: 0.0004520416259765625
ell 63, elapsed: 0.0004978179931640625
ell 62, elapsed: 0.00045609474182128906
ell 61, elapsed: 0.0004520416259765625
ell 60, elapsed: 0.00045013427734375
ell 59, elapsed: 0.000453948974609375
ell 58, elapsed: 0.0004439353942871094
ell 57, elapsed: 0.0004520416259765625
ell 56, elapsed: 0.0004520416259765625
ell 55, elapsed: 0.000514984130859375
ell 54, elapsed: 0.000453948974609375
ell 53, elapsed: 0.0004589557647705078
ell 52, elapsed: 0.00045800209045410156
ell 51, elapsed: 0.00045490264892578125
ell 50, elapsed: 0.00045800209045410156
ell 49, elapsed: 0.00044989585876464844
ell 48, elapsed: 0.0004482269287109375
ell 47, elapsed: 0.000453948974609375
ell 46, elapsed: 0.00043702125549316406
ell 45, elapsed: 0.0004630088806152344
ell 44, elapsed: 0.0005340576171875
ell 43, elapsed: 0.0005691051483154297
ell 42, elapsed: 0.0004410743713378906
[...]
ell 788, elapsed: 0.0008409023284912109
ell 782, elapsed: 0.0015859603881835938
ell 781, elapsed: 0.0008549690246582031
ell 780, elapsed: 0.0008318424224853516
ell 779, elapsed: 0.000827789306640625
ell 778, elapsed: 0.0008409023284912109
ell 772, elapsed: 0.0015709400177001953
ell 771, elapsed: 0.0008308887481689453
ell 770, elapsed: 0.0008380413055419922
ell 769, elapsed: 0.0008490085601806641
ell 768, elapsed: 0.0008549690246582031
ell 762, elapsed: 0.0015559196472167969
ell 761, elapsed: 0.0008280277252197266
ell 760, elapsed: 0.0008449554443359375
ell 759, elapsed: 0.0007760524749755859
ell 758, elapsed: 0.0007982254028320312
ell 752, elapsed: 0.0014560222625732422
ell 751, elapsed: 0.0008349418640136719
ell 750, elapsed: 0.0008771419525146484
ell 749, elapsed: 0.0008320808410644531
ell 748, elapsed: 0.0008099079132080078
ell 742, elapsed: 0.001519918441772461
ell 741, elapsed: 0.0008339881896972656
ell 740, elapsed: 0.0008370876312255859
ell 739, elapsed: 0.0008349418640136719
ell 738, elapsed: 0.0008449554443359375
ell 732, elapsed: 0.001506805419921875
ell 731, elapsed: 0.000843048095703125
ell 730, elapsed: 0.0008270740509033203
ell 729, elapsed: 0.0008189678192138672
ell 728, elapsed: 0.0008449554443359375
ell 722, elapsed: 0.0017549991607666016
ell 721, elapsed: 0.0008289813995361328
ell 720, elapsed: 0.0008399486541748047
ell 719, elapsed: 0.0008280277252197266
ell 718, elapsed: 0.0008301734924316406
ell 712, elapsed: 0.0017209053039550781
ell 711, elapsed: 0.0008211135864257812
ell 710, elapsed: 0.0008440017700195312
ell 709, elapsed: 0.0008089542388916016
ell 708, elapsed: 0.0008380413055419922
ell 702, elapsed: 0.0017330646514892578
ell 701, elapsed: 0.0007650852203369141
ell 700, elapsed: 0.0008301734924316406
ell 699, elapsed: 0.0008251667022705078
ell 698, elapsed: 0.000843048095703125
ell 692, elapsed: 0.0015528202056884766
ell 691, elapsed: 0.0008289813995361328
ell 690, elapsed: 0.0008771419525146484
ell 689, elapsed: 0.0008578300476074219
ell 688, elapsed: 0.0008599758148193359
ell 682, elapsed: 0.0018138885498046875
ell 681, elapsed: 0.0008327960968017578
ell 680, elapsed: 0.0008640289306640625
ell 679, elapsed: 0.0008320808410644531
ell 678, elapsed: 0.0008590221405029297
ell 672, elapsed: 0.0019099712371826172
ell 671, elapsed: 0.0007688999176025391
ell 670, elapsed: 0.000782012939453125
ell 669, elapsed: 0.0008130073547363281
ell 668, elapsed: 0.0007898807525634766
ell 662, elapsed: 0.0015590190887451172
ell 661, elapsed: 0.000843048095703125
ell 660, elapsed: 0.0008561611175537109
ell 659, elapsed: 0.0008349418640136719
ell 658, elapsed: 0.0008389949798583984
ell 652, elapsed: 0.0015628337860107422
ell 651, elapsed: 0.0008480548858642578
ell 650, elapsed: 0.0008330345153808594
ell 649, elapsed: 0.0008358955383300781
ell 648, elapsed: 0.0008370876312255859
ell 642, elapsed: 0.0015418529510498047
ell 641, elapsed: 0.0008330345153808594
ell 640, elapsed: 0.0008320808410644531
ell 639, elapsed: 0.0008268356323242188
ell 638, elapsed: 0.0008640289306640625
ell 632, elapsed: 0.0017299652099609375
ell 631, elapsed: 0.0007841587066650391
ell 630, elapsed: 0.0008461475372314453
ell 629, elapsed: 0.0008590221405029297
ell 628, elapsed: 0.0008339881896972656
ell 622, elapsed: 0.0015599727630615234
ell 621, elapsed: 0.0008480548858642578
ell 620, elapsed: 0.0008399486541748047
ell 619, elapsed: 0.0008280277252197266
ell 618, elapsed: 0.0008370876312255859
ell 612, elapsed: 0.0015950202941894531
ell 611, elapsed: 0.0008339881896972656
ell 610, elapsed: 0.0008339881896972656
ell 609, elapsed: 0.000823974609375
ell 608, elapsed: 0.0008339881896972656
ell 602, elapsed: 0.001409769058227539
ell 601, elapsed: 0.0007929801940917969
ell 600, elapsed: 0.0007970333099365234
ell 599, elapsed: 0.0008521080017089844
ell 598, elapsed: 0.0008280277252197266
ell 592, elapsed: 0.0017321109771728516
ell 591, elapsed: 0.0007441043853759766
ell 590, elapsed: 0.0008540153503417969
ell 589, elapsed: 0.0008180141448974609
ell 588, elapsed: 0.0008330345153808594
ell 582, elapsed: 0.001477956771850586
ell 581, elapsed: 0.0008540153503417969
ell 580, elapsed: 0.0008330345153808594
ell 579, elapsed: 0.0008258819580078125
ell 578, elapsed: 0.0008339881896972656
ell 572, elapsed: 0.0017871856689453125
ell 571, elapsed: 0.000782012939453125
ell 570, elapsed: 0.0008289813995361328
ell 569, elapsed: 0.0008261203765869141
ell 568, elapsed: 0.0008509159088134766
ell 562, elapsed: 0.0015630722045898438
ell 561, elapsed: 0.0008280277252197266
ell 560, elapsed: 0.0008499622344970703
ell 559, elapsed: 0.0008280277252197266
ell 558, elapsed: 0.0008330345153808594
ell 552, elapsed: 0.0015690326690673828
ell 551, elapsed: 0.0008409023284912109
ell 550, elapsed: 0.0008320808410644531
ell 549, elapsed: 0.0008330345153808594
ell 548, elapsed: 0.0008380413055419922
ell 542, elapsed: 0.0015990734100341797
ell 541, elapsed: 0.0008280277252197266
ell 540, elapsed: 0.0008330345153808594
ell 539, elapsed: 0.0008270740509033203
ell 538, elapsed: 0.0008549690246582031
ell 532, elapsed: 0.0017609596252441406
ell 531, elapsed: 0.0007669925689697266
ell 530, elapsed: 0.0008308887481689453
ell 529, elapsed: 0.0009181499481201172
ell 528, elapsed: 0.0008401870727539062
ell 522, elapsed: 0.0015490055084228516
ell 521, elapsed: 0.0008449554443359375
ell 520, elapsed: 0.0008308887481689453
ell 519, elapsed: 0.0008280277252197266
ell 518, elapsed: 0.0008289813995361328
ell 512, elapsed: 0.001550912857055664
ell 511, elapsed: 0.0008440017700195312
ell 510, elapsed: 0.0008308887481689453
ell 509, elapsed: 0.0008289813995361328
ell 508, elapsed: 0.0008299350738525391
ell 502, elapsed: 0.001580953598022461
ell 501, elapsed: 0.0010361671447753906
ell 500, elapsed: 0.0008311271667480469
ell 499, elapsed: 0.0008330345153808594
ell 498, elapsed: 0.0008289813995361328
ell 492, elapsed: 0.001550912857055664
ell 491, elapsed: 0.0009131431579589844
ell 490, elapsed: 0.0008389949798583984
ell 489, elapsed: 0.0008218288421630859
ell 488, elapsed: 0.0008339881896972656
ell 482, elapsed: 0.0016758441925048828
ell 481, elapsed: 0.0008289813995361328
ell 480, elapsed: 0.0008299350738525391
ell 479, elapsed: 0.0008230209350585938
ell 478, elapsed: 0.0008270740509033203
ell 472, elapsed: 0.0016548633575439453
ell 471, elapsed: 0.0008318424224853516
ell 470, elapsed: 0.0008339881896972656
ell 469, elapsed: 0.0009491443634033203
ell 468, elapsed: 0.0008320808410644531
ell 462, elapsed: 0.001550912857055664
ell 461, elapsed: 0.000823974609375
ell 460, elapsed: 0.000993967056274414
ell 459, elapsed: 0.0008339881896972656
ell 458, elapsed: 0.0008330345153808594
ell 452, elapsed: 0.0016660690307617188
ell 451, elapsed: 0.0008280277252197266
ell 450, elapsed: 0.0008280277252197266
ell 449, elapsed: 0.0008141994476318359
ell 448, elapsed: 0.0008270740509033203
ell 442, elapsed: 0.0017309188842773438
ell 441, elapsed: 0.0008318424224853516
ell 440, elapsed: 0.0008339881896972656
ell 439, elapsed: 0.0008420944213867188
ell 438, elapsed: 0.0008330345153808594
ell 432, elapsed: 0.001561880111694336
ell 431, elapsed: 0.0008280277252197266
ell 430, elapsed: 0.0009310245513916016
ell 429, elapsed: 0.0008399486541748047
ell 428, elapsed: 0.0008380413055419922
ell 422, elapsed: 0.0016748905181884766
ell 421, elapsed: 0.000827789306640625
ell 420, elapsed: 0.0008270740509033203
ell 419, elapsed: 0.0011038780212402344
ell 418, elapsed: 0.0008502006530761719
ell 412, elapsed: 0.0018548965454101562
ell 411, elapsed: 0.0007779598236083984
ell 410, elapsed: 0.0008230209350585938
ell 409, elapsed: 0.0007431507110595703
ell 408, elapsed: 0.0008370876312255859
ell 402, elapsed: 0.001422882080078125
ell 401, elapsed: 0.0007801055908203125
ell 400, elapsed: 0.0008580684661865234
ell 399, elapsed: 0.0008041858673095703
ell 398, elapsed: 0.0008029937744140625
ell 392, elapsed: 0.0014739036560058594
ell 391, elapsed: 0.0007989406585693359
ell 390, elapsed: 0.0007998943328857422
ell 389, elapsed: 0.0008091926574707031
ell 388, elapsed: 0.0008001327514648438
ell 382, elapsed: 0.0018398761749267578
ell 381, elapsed: 0.0008001327514648438
ell 380, elapsed: 0.0008218288421630859
ell 379, elapsed: 0.0008208751678466797
ell 378, elapsed: 0.0008549690246582031
ell 372, elapsed: 0.0014498233795166016
ell 371, elapsed: 0.0007929801940917969
ell 370, elapsed: 0.0008461475372314453
ell 369, elapsed: 0.0007989406585693359
ell 368, elapsed: 0.0007948875427246094
ell 362, elapsed: 0.0014269351959228516
ell 361, elapsed: 0.0008170604705810547
ell 360, elapsed: 0.0007920265197753906
ell 359, elapsed: 0.0007669925689697266
ell 358, elapsed: 0.0008089542388916016
ell 352, elapsed: 0.0016798973083496094
ell 351, elapsed: 0.0008161067962646484
ell 350, elapsed: 0.0007889270782470703
ell 349, elapsed: 0.0008199214935302734
ell 348, elapsed: 0.0008101463317871094
ell 342, elapsed: 0.0014269351959228516
ell 341, elapsed: 0.0008108615875244141
ell 340, elapsed: 0.0007841587066650391
ell 339, elapsed: 0.0008039474487304688
ell 338, elapsed: 0.0007991790771484375
ell 332, elapsed: 0.001789093017578125
ell 331, elapsed: 0.0008320808410644531
ell 330, elapsed: 0.0008690357208251953
ell 329, elapsed: 0.0008089542388916016
ell 328, elapsed: 0.0008258819580078125
ell 322, elapsed: 0.0014951229095458984
ell 321, elapsed: 0.0008440017700195312
ell 320, elapsed: 0.0008130073547363281
ell 319, elapsed: 0.0008170604705810547
ell 318, elapsed: 0.0008199214935302734
ell 312, elapsed: 0.0017161369323730469
ell 311, elapsed: 0.0007810592651367188
ell 310, elapsed: 0.0008258819580078125
ell 309, elapsed: 0.0008289813995361328
ell 308, elapsed: 0.0008330345153808594
ell 302, elapsed: 0.0014960765838623047
ell 301, elapsed: 0.0008540153503417969
ell 300, elapsed: 0.0008280277252197266
ell 299, elapsed: 0.0008339881896972656
ell 298, elapsed: 0.0008311271667480469
ell 292, elapsed: 0.0014731884002685547
ell 291, elapsed: 0.0008399486541748047
ell 290, elapsed: 0.0010349750518798828
ell 289, elapsed: 0.0007960796356201172
ell 288, elapsed: 0.0008339881896972656
ell 282, elapsed: 0.001619100570678711
ell 281, elapsed: 0.0007960796356201172
ell 280, elapsed: 0.0008070468902587891
ell 279, elapsed: 0.0008020401000976562
ell 278, elapsed: 0.0009479522705078125
ell 272, elapsed: 0.001455068588256836
ell 271, elapsed: 0.0008208751678466797
ell 270, elapsed: 0.0008320808410644531
ell 269, elapsed: 0.0009469985961914062
ell 268, elapsed: 0.0008261203765869141
ell 262, elapsed: 0.0018210411071777344
ell 261, elapsed: 0.000881195068359375
ell 260, elapsed: 0.0008449554443359375
ell 259, elapsed: 0.0008370876312255859
ell 258, elapsed: 0.0008459091186523438
ell 252, elapsed: 0.0019390583038330078
ell 251, elapsed: 0.0007419586181640625
ell 250, elapsed: 0.0007889270782470703
ell 249, elapsed: 0.000804901123046875
ell 248, elapsed: 0.0009081363677978516
ell 242, elapsed: 0.0016720294952392578
ell 241, elapsed: 0.0007631778717041016
ell 240, elapsed: 0.0009310245513916016
ell 239, elapsed: 0.0008080005645751953
ell 238, elapsed: 0.0008280277252197266
ell 232, elapsed: 0.001508951187133789
ell 231, elapsed: 0.0009329319000244141
ell 230, elapsed: 0.0007998943328857422
ell 229, elapsed: 0.0008058547973632812
ell 228, elapsed: 0.0008139610290527344
ell 222, elapsed: 0.001631021499633789
ell 221, elapsed: 0.0008180141448974609
ell 220, elapsed: 0.0007841587066650391
ell 219, elapsed: 0.000804901123046875
ell 218, elapsed: 0.000949859619140625
ell 212, elapsed: 0.0016999244689941406
ell 211, elapsed: 0.0007569789886474609
ell 210, elapsed: 0.0008790493011474609
ell 209, elapsed: 0.000782012939453125
ell 208, elapsed: 0.0007998943328857422
ell 202, elapsed: 0.0014841556549072266
ell 201, elapsed: 0.0009138584136962891
ell 200, elapsed: 0.0008039474487304688
ell 199, elapsed: 0.0007817745208740234
ell 198, elapsed: 0.0008139610290527344
ell 192, elapsed: 0.001641988754272461
ell 191, elapsed: 0.0008039474487304688
ell 190, elapsed: 0.0008120536804199219
ell 189, elapsed: 0.0008051395416259766
ell 188, elapsed: 0.0009069442749023438
ell 182, elapsed: 0.0014040470123291016
ell 181, elapsed: 0.0007989406585693359
ell 180, elapsed: 0.0008060932159423828
ell 179, elapsed: 0.0008859634399414062
ell 178, elapsed: 0.0008051395416259766
ell 172, elapsed: 0.0014910697937011719
ell 171, elapsed: 0.0007998943328857422
ell 170, elapsed: 0.0008599758148193359
ell 169, elapsed: 0.0010750293731689453
ell 168, elapsed: 0.0008060932159423828
ell 162, elapsed: 0.0017960071563720703
ell 161, elapsed: 0.0007729530334472656
ell 160, elapsed: 0.0008020401000976562
ell 159, elapsed: 0.0007901191711425781
ell 158, elapsed: 0.0008101463317871094
ell 152, elapsed: 0.0015530586242675781
ell 151, elapsed: 0.0008327960968017578
ell 150, elapsed: 0.0008399486541748047
ell 149, elapsed: 0.0008561611175537109
ell 148, elapsed: 0.0008349418640136719
ell 142, elapsed: 0.0015301704406738281
ell 141, elapsed: 0.0008339881896972656
ell 140, elapsed: 0.0008499622344970703
ell 139, elapsed: 0.0008299350738525391
ell 138, elapsed: 0.0008261203765869141
ell 132, elapsed: 0.0015041828155517578
ell 131, elapsed: 0.0008449554443359375
ell 130, elapsed: 0.0008411407470703125
ell 129, elapsed: 0.0008368492126464844
ell 128, elapsed: 0.0008351802825927734
ell 122, elapsed: 0.0015549659729003906
ell 121, elapsed: 0.0008361339569091797
ell 120, elapsed: 0.0008449554443359375
ell 119, elapsed: 0.0008449554443359375
ell 118, elapsed: 0.0008521080017089844
ell 112, elapsed: 0.0015380382537841797
ell 111, elapsed: 0.0008420944213867188
ell 110, elapsed: 0.0008060932159423828
ell 109, elapsed: 0.000823974609375
ell 108, elapsed: 0.0008108615875244141
ell 102, elapsed: 0.0014858245849609375
ell 101, elapsed: 0.003309011459350586
ell 100, elapsed: 0.003336191177368164
ell 99, elapsed: 0.0033431053161621094
ell 98, elapsed: 0.0033071041107177734
ell 92, elapsed: 0.006218910217285156
ell 91, elapsed: 0.003256082534790039
ell 90, elapsed: 0.003303050994873047
ell 89, elapsed: 0.0033121109008789062
ell 88, elapsed: 0.0032889842987060547
ell 82, elapsed: 0.006247997283935547
ell 81, elapsed: 0.0033500194549560547
ell 80, elapsed: 0.0035719871520996094
ell 79, elapsed: 0.0035920143127441406
ell 78, elapsed: 0.003309011459350586
ell 72, elapsed: 0.006479978561401367
ell 71, elapsed: 0.003301858901977539
ell 70, elapsed: 0.00331878662109375
ell 69, elapsed: 0.003298044204711914
ell 68, elapsed: 0.003551959991455078
ell 62, elapsed: 0.0062007904052734375
ell 61, elapsed: 0.003265857696533203
ell 60, elapsed: 0.0033469200134277344
ell 59, elapsed: 0.003323078155517578
ell 58, elapsed: 0.004167079925537109
ell 52, elapsed: 0.007077932357788086
ell 51, elapsed: 0.003719806671142578
ell 50, elapsed: 0.003370046615600586
ell 49, elapsed: 0.00339508056640625
ell 48, elapsed: 0.0033159255981445312
ell 42, elapsed: 0.0067119598388671875
ell 41, elapsed: 0.003443002700805664
ell 40, elapsed: 0.003407001495361328
ell 39, elapsed: 0.003648996353149414
ell 38, elapsed: 0.0033838748931884766
ell 32, elapsed: 0.00644993782043457
ell 31, elapsed: 0.004408121109008789
ell 30, elapsed: 0.003242969512939453
ell 29, elapsed: 0.0038068294525146484
ell 28, elapsed: 0.0032668113708496094
ell 22, elapsed: 0.006515026092529297
ell 21, elapsed: 0.003350973129272461
ell 20, elapsed: 0.003626108169555664
ell 19, elapsed: 0.003340005874633789
ell 18, elapsed: 0.0033159255981445312
ell 12, elapsed: 0.006253957748413086
ell 11, elapsed: 0.003287076950073242
ell 10, elapsed: 0.003304004669189453
ell 9, elapsed: 0.0032989978790283203
ell 8, elapsed: 0.003326892852783203
  0.783959 seconds (97.06 k allocations: 12.611 MiB)
elapsed: 0.004164934158325195
step:          0.067359 sec (0 allocations: 0 byte, 0.0% gc time)
swapping:      0.000708 sec (0 allocations: 0 byte, 0.0% gc time)
calc_Mellell!: 0.039845 sec (0 allocations: 0 byte, 0.0% gc time)
  t0 :  0.009661 sec (0 allocations: 0 byte, 0.0% gc time)
  tm2 : 0.075394 sec (0 allocations: 0 byte, 0.0% gc time)
  tm2s: 0.007571 sec (0 allocations: 0 byte, 0.0% gc time)
  tm4 : 0.180032 sec (0 allocations: 0 byte, 0.0% gc time)
  tp2 : 0.0 sec (0 allocations: 0 byte, 0.0% gc time)
  tp2s: 0.0 sec (0 allocations: 0 byte, 0.0% gc time)
  tp4 : 0.0 sec (0 allocations: 0 byte, 0.0% gc time)
calc_wtdll!:   0.538369 sec (48.6 k allocations: 11.096 MB, 0.0% gc time)
calc_wljj!:    0.042456 sec (69 allocations: 1.078 KB, 0.0% gc time)
mult_prefac!:  0.0 sec (0 allocations: 0 byte, 0.0% gc time)
convert:       0.0 sec (0 allocations: 0 byte, 0.0% gc time)
write:         0.037349 sec (0 allocations: 0 byte, 0.0% gc time)
test_rand_2f1: 0.0 sec (0 allocations: 0 byte, 0.0% gc time)
Closing outfile out/MlCache/MlCache.bin...   0.000008 seconds
xi, l=0, nu=0:   0.365425 seconds (602.82 k allocations: 32.922 MiB, 6.67% gc time)
xi, l=0, nu=-2:  0.002482 seconds (114 allocations: 148.969 KiB)
Created 'out/xi.tsv'.
  q=1.1, R=0.6:	  0.779493 seconds (264.52 k allocations: 38.099 MiB, 2.33% gc time)
  q=1.1, R=0.7:	  0.948009 seconds (276.46 k allocations: 40.114 MiB)
  q=1.1, R=0.8:	  0.966376 seconds (271.68 k allocations: 39.302 MiB, 1.11% gc time)
  q=1.1, R=0.9:	  1.234268 seconds (266.62 k allocations: 38.459 MiB, 0.68% gc time)
  q=1.1, R=0.998:	 22.794393 seconds (114.96 k allocations: 7.588 MiB)
  q=1.1, R=1.0:	  0.004285 seconds (8.20 k allocations: 704.344 KiB)

ℓ = 1000
Δℓ = 4
ΔℓRg1 = -4
N = 4096
q = 1.1
kmin = 1.0e-5
kmax = 1000.0
χ0 = 0.001
RR = RR.tsv
ℓmax = ℓmax.bin
f21 = f21.bin
kmin = 1.0e-5
kmax = 1000.0
dlrec    = 4
dlrecRg1 = -4
Output size: 1573632 bytes = 0.0014655590057373047 GiB
Output size: 786816 bytes = 0.0007327795028686523 GiB
Reading 'out/F21EllCache'...   0.001576 seconds (198 allocations: 533.078 KiB)
ellmax: 1002
lmaxcache: 1000
fell[:,1,1] = ComplexF64[1.7262928128202118e-224 - 4.2281979352226944e-240im, 1.7282693092099662e-224 - 4.233038955177176e-240im]
ell 1002, elapsed: 0.0001289844512939453
ell 1001, elapsed: 0.0014040470123291016
ell 1000, elapsed: 0.0008778572082519531
ell 999, elapsed: 0.007756948471069336
ell 998, elapsed: 0.006541013717651367
ell 44, elapsed: 0.6958179473876953
ell 43, elapsed: 0.0055599212646484375
ell 42, elapsed: 0.005472898483276367
ell 41, elapsed: 0.005822896957397461
ell 40, elapsed: 0.0067081451416015625
  0.746849 seconds (5.05 k allocations: 329.391 KiB)
elapsed: 0.009758949279785156
step:          0.691578 sec (0 allocations: 0 byte, 0.0% gc time)
swapping:      0.000587 sec (0 allocations: 0 byte, 0.0% gc time)
calc_Mellell!: 0.001392 sec (0 allocations: 0 byte, 0.0% gc time)
  t0 :  0.000953 sec (0 allocations: 0 byte, 0.0% gc time)
  tm2 : 0.011104 sec (0 allocations: 0 byte, 0.0% gc time)
  tm2s: 0.000798 sec (0 allocations: 0 byte, 0.0% gc time)
  tm4 : 0.031244 sec (0 allocations: 0 byte, 0.0% gc time)
  tp2 : 0.0 sec (0 allocations: 0 byte, 0.0% gc time)
  tp2s: 0.0 sec (0 allocations: 0 byte, 0.0% gc time)
  tp4 : 0.0 sec (0 allocations: 0 byte, 0.0% gc time)
calc_wtdll!:   0.044354 sec (480 allocations: 52.5 KB, 0.0% gc time)
calc_wljj!:    0.001661 sec (1 allocations: 16 byte, 0.0% gc time)
mult_prefac!:  0.0 sec (0 allocations: 0 byte, 0.0% gc time)
convert:       0.0 sec (0 allocations: 0 byte, 0.0% gc time)
write:         0.001093 sec (0 allocations: 0 byte, 0.0% gc time)
test_rand_2f1: 0.0 sec (0 allocations: 0 byte, 0.0% gc time)
Closing outfile out/MlCache/MlCache.bin...   0.000008 seconds
  0.508087 seconds (38 allocations: 66.859 KiB)
make_phi():   0.010497 seconds (65 allocations: 275.984 KiB)
  0.044380 seconds (11.44 k allocations: 712.460 KiB)
tskip:       1.0e-6 sec (0 allocations: 0 byte, 0.0% gc time)
tread:       0.000877 sec (17 allocations: 1.266 KB, 0.0% gc time)
tmultphi:    0.000423 sec (0 allocations: 0 byte, 0.0% gc time)
tbrfft:      0.00181 sec (0 allocations: 0 byte, 0.0% gc time)
tmultprefac: 0.00105 sec (0 allocations: 0 byte, 0.0% gc time)
toutfunc:    0.000151 sec (0 allocations: 0 byte, 0.0% gc time)
Created 'out/wl42_jj00.tsv'.
Created 'out/wl42_jj02.tsv'.
    Testing TwoFAST tests passed 
