Julia Version 1.6.0-DEV.1155
Commit c12ef833fc (2020-10-08 05:46 UTC)
Platform Info:
  OS: Linux (x86_64-linux-gnu)
  CPU: AMD EPYC 7502 32-Core Processor
  WORD_SIZE: 64
  LIBM: libopenlibm
  LLVM: libLLVM-10.0.1 (ORCJIT, znver2)
Environment:
  JULIA_DEPOT_PATH = ::/usr/local/share/julia
  JULIA_NUM_THREADS = 2

  Resolving package versions...
  Installed IntelOpenMP_jll ────────────── v2018.0.3+0
  Installed CompilerSupportLibraries_jll ─ v0.3.3+0
  Installed GenericSVD ─────────────────── v0.3.0
  Installed FFTW_jll ───────────────────── v3.3.9+5
  Installed Reexport ───────────────────── v0.2.0
  Installed OpenSpecFun_jll ────────────── v0.5.3+3
  Installed GenericSchur ───────────────── v0.4.0
  Installed Readables ──────────────────── v0.3.3
  Installed AbstractFFTs ───────────────── v0.5.0
  Installed MKL_jll ────────────────────── v2020.2.254+0
  Installed TwoFAST ────────────────────── v0.1.3
  Installed FFTW ───────────────────────── v1.2.4
  Installed BinaryProvider ─────────────── v0.5.10
  Installed SpecialFunctions ───────────── v0.10.3
  Installed ArbNumerics ────────────────── v1.2.1
Updating `~/.julia/environments/v1.6/Project.toml`
  [0dd23c3e] + TwoFAST v0.1.3
Updating `~/.julia/environments/v1.6/Manifest.toml`
  [621f4979] + AbstractFFTs v0.5.0
  [7e558dbc] + ArbNumerics v1.2.1
  [b99e7846] + BinaryProvider v0.5.10
  [e66e0078] + CompilerSupportLibraries_jll v0.3.3+0
  [7a1cc6ca] + FFTW v1.2.4
  [f5851436] + FFTW_jll v3.3.9+5
  [01680d73] + GenericSVD v0.3.0
  [c145ed77] + GenericSchur v0.4.0
  [1d5cc7b8] + IntelOpenMP_jll v2018.0.3+0
  [856f044c] + MKL_jll v2020.2.254+0
  [efe28fd5] + OpenSpecFun_jll v0.5.3+3
  [0d4725de] + Readables v0.3.3
  [189a3867] + Reexport v0.2.0
  [276daf66] + SpecialFunctions v0.10.3
  [0dd23c3e] + TwoFAST v0.1.3
  [56f22d72] + Artifacts
  [2a0f44e3] + Base64
  [ade2ca70] + Dates
  [8bb1440f] + DelimitedFiles
  [b77e0a4c] + InteractiveUtils
  [76f85450] + LibGit2
  [8f399da3] + Libdl
  [37e2e46d] + LinearAlgebra
  [56ddb016] + Logging
  [d6f4376e] + Markdown
  [a63ad114] + Mmap
  [44cfe95a] + Pkg
  [de0858da] + Printf
  [3fa0cd96] + REPL
  [9a3f8284] + Random
  [ea8e919c] + SHA
  [9e88b42a] + Serialization
  [6462fe0b] + Sockets
  [fa267f1f] + TOML
  [8dfed614] + Test
  [cf7118a7] + UUIDs
  [4ec0a83e] + Unicode
   Building ArbNumerics → `~/.julia/scratchspaces/44cfe95a-1eb2-52ea-b672-e2afdf69b78f/329a81d67c64e3a51c176a243b6424fbe39213d0/build.log`
   Building FFTW ───────→ `~/.julia/scratchspaces/44cfe95a-1eb2-52ea-b672-e2afdf69b78f/8b7c16b56936047ca41bf25effa137ae0b381ae8/build.log`
    Testing TwoFAST
Status `/tmp/jl_B3Ux5Z/Project.toml`
  [7e558dbc] ArbNumerics v1.2.1
  [39dd38d3] Dierckx v0.5.0
  [7a1cc6ca] FFTW v1.2.4
  [276daf66] SpecialFunctions v0.10.3
  [0dd23c3e] TwoFAST v0.1.3
  [8bb1440f] DelimitedFiles
  [37e2e46d] LinearAlgebra
  [56ddb016] Logging
  [8dfed614] Test
Status `/tmp/jl_B3Ux5Z/Manifest.toml`
  [621f4979] AbstractFFTs v0.5.0
  [7e558dbc] ArbNumerics v1.2.1
  [b99e7846] BinaryProvider v0.5.10
  [e66e0078] CompilerSupportLibraries_jll v0.3.3+0
  [39dd38d3] Dierckx v0.5.0
  [cd4c43a9] Dierckx_jll v0.0.1+0
  [7a1cc6ca] FFTW v1.2.4
  [f5851436] FFTW_jll v3.3.9+5
  [01680d73] GenericSVD v0.3.0
  [c145ed77] GenericSchur v0.4.0
  [1d5cc7b8] IntelOpenMP_jll v2018.0.3+0
  [856f044c] MKL_jll v2020.2.254+0
  [efe28fd5] OpenSpecFun_jll v0.5.3+3
  [0d4725de] Readables v0.3.3
  [189a3867] Reexport v0.2.0
  [276daf66] SpecialFunctions v0.10.3
  [0dd23c3e] TwoFAST v0.1.3
  [56f22d72] Artifacts
  [2a0f44e3] Base64
  [ade2ca70] Dates
  [8bb1440f] DelimitedFiles
  [b77e0a4c] InteractiveUtils
  [76f85450] LibGit2
  [8f399da3] Libdl
  [37e2e46d] LinearAlgebra
  [56ddb016] Logging
  [d6f4376e] Markdown
  [a63ad114] Mmap
  [44cfe95a] Pkg
  [de0858da] Printf
  [3fa0cd96] REPL
  [9a3f8284] Random
  [ea8e919c] SHA
  [9e88b42a] Serialization
  [6462fe0b] Sockets
  [fa267f1f] TOML
  [8dfed614] Test
  [cf7118a7] UUIDs
  [4ec0a83e] Unicode
    Testing Running tests...
WARNING: could not import Printf.ini_hex into ArbNumerics
WARNING: could not import Printf.ini_HEX into ArbNumerics
t = 0.0 sec (0 allocations: 0 byte, 0.0% gc time)
typeof(t) = NamedTuple{(:value, :time, :bytes, :gctime, :gcstats), Tuple{DataType, Float64, Int64, Float64, Base.GC_Diff}}
TwoFAST.PerformanceStats.TimedType = Union{NamedTuple{(:value, :time, :bytes, :gctime, :gcstats), Tuple{T, Float64, Int64, Float64, Base.GC_Diff}}, Tuple{Any, Float64, Int64, Float64, Base.GC_Diff}} where T
t = 0.0 sec (0 allocations: 0 byte, 0.0% gc time)
t: 0.0 sec (0 allocations: 0 byte, 0.0% gc time)
Testing ξ(r), ℓ=0, ν=-1 ... passed
Testing ξ(r), ℓ=0, ν=0 ... passed
Testing ξ(r), ℓ=0, ν=1 ... passed
Testing ξ(r), ℓ=0, ν=2 ... passed
Testing ξ(r), ℓ=0, ν=3 ... passed
Testing ξ(r), ℓ=1, ν=0 ... passed
Testing ξ(r), ℓ=1, ν=1 ... passed
Testing ξ(r), ℓ=1, ν=2 ... passed
Testing ξ(r), ℓ=1, ν=3 ... passed
Testing ξ(r), ℓ=2, ν=-1 ... passed
Testing ξ(r), ℓ=2, ν=0 ... passed
Testing ξ(r), ℓ=2, ν=1 ... passed
Testing ξ(r), ℓ=2, ν=2 ... passed
Testing ξ(r), ℓ=2, ν=3 ... passed
Testing ξ(r), ℓ=3, ν=-1 ... passed
Testing ξ(r), ℓ=3, ν=0 ... passed
Testing ξ(r), ℓ=3, ν=1 ... passed
Testing ξ(r), ℓ=3, ν=2 ... passed
Testing ξ(r), ℓ=3, ν=3 ... passed
Testing ξ(r), ℓ=4, ν=-1 ... passed
Testing ξ(r), ℓ=4, ν=0 ... passed
Testing ξ(r), ℓ=4, ν=1 ... passed
Testing ξ(r), ℓ=4, ν=2 ... passed
Testing ξ(r), ℓ=4, ν=3 ... passed
Testing ξ(r) ... passed
Testing ξ′(r) ... passed
Testing ξ″(r) ... passed
Calculating fmax: 
  dlrec    = 4
  dlrecRg1 = -4
  q=1.1, R=1.1:	  2.890387 seconds (843.26 k allocations: 53.921 MiB, 1.65% gc time, 91.89% compilation time)

  2.890653 seconds (843.32 k allocations: 53.956 MiB, 1.65% gc time, 91.88% compilation time)
ℓ = 1202
Δℓ = 4
ΔℓRg1 = -4
N = 1600
q = 1.1
kmin = 1.0e-5
kmax = 100000.00000000004
χ0 = 0.023029999999999995
RR = RR.tsv
ℓmax = ℓmax.bin
f21 = f21.bin
kmin = 1.0e-5
kmax = 100000.0
dlrec    = 4
dlrecRg1 = -4
Output size: 5741568 bytes = 0.005347251892089844 GiB
Output size: 51264 bytes = 4.774332046508789e-5 GiB
Reading 'out/F21EllCache'...   0.609884 seconds (426.51 k allocations: 25.014 MiB, 4.56% gc time, 99.50% compilation time)
ellmax: 1202
lmaxcache: 1202
fell[:,1,1] = ComplexF64[3.9583795592771634e-52 - 9.695233714158177e-68im, 3.990121772925759e-52 - 9.772979714843386e-68im]
ell 1202, elapsed: 4.410743713378906e-5
ell 1201, elapsed: 0.9964439868927002
ell 1200, elapsed: 0.0004150867462158203
ell 1199, elapsed: 0.0003859996795654297
ell 1198, elapsed: 0.0003840923309326172
ell 1002, elapsed: 0.00828099250793457
ell 1001, elapsed: 0.0003829002380371094
ell 1000, elapsed: 0.00037980079650878906
ell 999, elapsed: 0.0004711151123046875
ell 998, elapsed: 0.0003800392150878906
ell 902, elapsed: 0.006482839584350586
ell 901, elapsed: 0.0003681182861328125
ell 900, elapsed: 0.0003809928894042969
ell 899, elapsed: 0.0003650188446044922
ell 898, elapsed: 0.0003628730773925781
ell 802, elapsed: 0.0039560794830322266
ell 801, elapsed: 0.00035691261291503906
ell 800, elapsed: 0.0003540515899658203
ell 799, elapsed: 0.0003628730773925781
ell 798, elapsed: 0.00035691261291503906
ell 702, elapsed: 0.004027128219604492
ell 701, elapsed: 0.0003619194030761719
ell 700, elapsed: 0.0003590583801269531
ell 699, elapsed: 0.0003578662872314453
ell 698, elapsed: 0.0003590583801269531
ell 602, elapsed: 0.004091978073120117
ell 601, elapsed: 0.0003750324249267578
ell 600, elapsed: 0.00036787986755371094
ell 599, elapsed: 0.0003662109375
ell 598, elapsed: 0.0003731250762939453
ell 502, elapsed: 0.004082918167114258
ell 501, elapsed: 0.0003719329833984375
ell 500, elapsed: 0.0003638267517089844
ell 499, elapsed: 0.0003600120544433594
ell 498, elapsed: 0.0003609657287597656
ell 402, elapsed: 0.004046201705932617
ell 401, elapsed: 0.0003619194030761719
ell 400, elapsed: 0.0003719329833984375
ell 399, elapsed: 0.0003521442413330078
ell 398, elapsed: 0.00034809112548828125
ell 302, elapsed: 0.003915071487426758
ell 301, elapsed: 0.0003509521484375
ell 300, elapsed: 0.00034999847412109375
ell 299, elapsed: 0.0003440380096435547
ell 298, elapsed: 0.0003459453582763672
ell 202, elapsed: 0.0038580894470214844
ell 201, elapsed: 0.0003478527069091797
ell 200, elapsed: 0.0003371238708496094
ell 199, elapsed: 0.0003399848937988281
ell 198, elapsed: 0.0003437995910644531
ell 152, elapsed: 0.002043008804321289
ell 151, elapsed: 0.0003509521484375
ell 150, elapsed: 0.00034499168395996094
ell 149, elapsed: 0.0003478527069091797
ell 148, elapsed: 0.0003459453582763672
ell 127, elapsed: 0.0012118816375732422
ell 126, elapsed: 0.0003490447998046875
ell 125, elapsed: 0.00034689903259277344
ell 124, elapsed: 0.0003528594970703125
ell 123, elapsed: 0.0003490447998046875
ell 114, elapsed: 0.0007038116455078125
ell 113, elapsed: 0.00035309791564941406
ell 112, elapsed: 0.0003509521484375
ell 111, elapsed: 0.0003619194030761719
ell 110, elapsed: 0.0003540515899658203
ell 102, elapsed: 0.0006771087646484375
ell 101, elapsed: 0.00035500526428222656
ell 100, elapsed: 0.0003559589385986328
ell 99, elapsed: 0.0003559589385986328
ell 98, elapsed: 0.0003390312194824219
ell 97, elapsed: 0.0003719329833984375
ell 96, elapsed: 0.0003719329833984375
ell 95, elapsed: 0.00037407875061035156
ell 94, elapsed: 0.00038504600524902344
ell 93, elapsed: 0.00045990943908691406
ell 92, elapsed: 0.00037598609924316406
ell 91, elapsed: 0.0003790855407714844
ell 90, elapsed: 0.00036787986755371094
ell 89, elapsed: 0.0003979206085205078
ell 88, elapsed: 0.0004031658172607422
ell 87, elapsed: 0.00040912628173828125
ell 86, elapsed: 0.000415802001953125
ell 85, elapsed: 0.0004029273986816406
ell 84, elapsed: 0.0004031658172607422
ell 83, elapsed: 0.0004088878631591797
ell 82, elapsed: 0.0004100799560546875
ell 81, elapsed: 0.00040793418884277344
ell 80, elapsed: 0.00041985511779785156
ell 79, elapsed: 0.00042700767517089844
ell 78, elapsed: 0.00041294097900390625
ell 77, elapsed: 0.00041103363037109375
ell 76, elapsed: 0.0004200935363769531
ell 75, elapsed: 0.00041103363037109375
ell 74, elapsed: 0.0004570484161376953
ell 73, elapsed: 0.0004169940948486328
ell 72, elapsed: 0.0004138946533203125
ell 71, elapsed: 0.0004191398620605469
ell 70, elapsed: 0.0004069805145263672
ell 69, elapsed: 0.0004119873046875
ell 68, elapsed: 0.0004069805145263672
ell 67, elapsed: 0.0004069805145263672
ell 66, elapsed: 0.0004191398620605469
ell 65, elapsed: 0.0012118816375732422
ell 64, elapsed: 0.0005700588226318359
ell 63, elapsed: 0.0005230903625488281
ell 62, elapsed: 0.0005388259887695312
ell 61, elapsed: 0.0005121231079101562
ell 60, elapsed: 0.0005328655242919922
ell 59, elapsed: 0.00046896934509277344
ell 58, elapsed: 0.00039315223693847656
ell 57, elapsed: 0.00039577484130859375
ell 56, elapsed: 0.0003991127014160156
ell 55, elapsed: 0.0004000663757324219
ell 54, elapsed: 0.0003960132598876953
ell 53, elapsed: 0.000392913818359375
ell 52, elapsed: 0.0003979206085205078
ell 51, elapsed: 0.0003948211669921875
ell 50, elapsed: 0.0004639625549316406
ell 49, elapsed: 0.000514984130859375
ell 48, elapsed: 0.0005140304565429688
ell 47, elapsed: 0.0005390644073486328
ell 46, elapsed: 0.0005178451538085938
ell 45, elapsed: 0.0005309581756591797
ell 44, elapsed: 0.0005209445953369141
ell 43, elapsed: 0.0006070137023925781
ell 42, elapsed: 0.00046896934509277344
ell 41, elapsed: 0.0004169940948486328
ell 40, elapsed: 0.00047588348388671875
ell 39, elapsed: 0.0005190372467041016
ell 38, elapsed: 0.0005249977111816406
ell 37, elapsed: 0.0005159378051757812
ell 36, elapsed: 0.0005159378051757812
ell 35, elapsed: 0.0005450248718261719
ell 34, elapsed: 0.0005161762237548828
ell 33, elapsed: 0.00045108795166015625
ell 32, elapsed: 0.0004181861877441406
ell 31, elapsed: 0.0004119873046875
ell 30, elapsed: 0.00041794776916503906
ell 29, elapsed: 0.00041222572326660156
ell 28, elapsed: 0.00041794776916503906
ell 27, elapsed: 0.00045299530029296875
ell 26, elapsed: 0.00041294097900390625
ell 25, elapsed: 0.00041794776916503906
ell 24, elapsed: 0.00041794776916503906
ell 23, elapsed: 0.0004191398620605469
ell 22, elapsed: 0.0004119873046875
ell 21, elapsed: 0.0004069805145263672
ell 20, elapsed: 0.00042700767517089844
ell 19, elapsed: 0.0004191398620605469
ell 18, elapsed: 0.0004620552062988281
ell 17, elapsed: 0.0005028247833251953
ell 16, elapsed: 0.0004439353942871094
ell 15, elapsed: 0.0004279613494873047
ell 14, elapsed: 0.0004100799560546875
ell 13, elapsed: 0.0004100799560546875
ell 12, elapsed: 0.0004100799560546875
ell 11, elapsed: 0.00040602684020996094
ell 10, elapsed: 0.0004138946533203125
ell 9, elapsed: 0.0004470348358154297
ell 8, elapsed: 0.00041103363037109375
ell 7, elapsed: 0.0004000663757324219
ell 6, elapsed: 0.0004031658172607422
ell 5, elapsed: 0.0004138946533203125
ell 4, elapsed: 0.0003879070281982422
ell 3, elapsed: 0.0003960132598876953
ell 2, elapsed: 0.0003840923309326172
ell 1, elapsed: 0.0003848075866699219
ell 0, elapsed: 0.00039505958557128906
  1.384999 seconds (1.38 M allocations: 74.499 MiB, 2.95% gc time, 91.64% compilation time)
elapsed: 0.0004830360412597656
step:          0.300352 sec (311.15 k allocations: 16.965 MB, 0.0% gc time)
swapping:      0.000297 sec (0 allocations: 0 byte, 0.0% gc time)
calc_Mellell!: 0.089899 sec (135.746 k allocations: 7.449 MB, 0.0% gc time)
  t0 :  0.0 sec (0 allocations: 0 byte, 0.0% gc time)
  tm2 : 0.0 sec (0 allocations: 0 byte, 0.0% gc time)
  tm2s: 0.0 sec (0 allocations: 0 byte, 0.0% gc time)
  tm4 : 0.0 sec (0 allocations: 0 byte, 0.0% gc time)
  tp2 : 0.0 sec (0 allocations: 0 byte, 0.0% gc time)
  tp2s: 0.0 sec (0 allocations: 0 byte, 0.0% gc time)
  tp4 : 0.0 sec (0 allocations: 0 byte, 0.0% gc time)
calc_wtdll!:   0.705245 sec (509.622 k allocations: 28.197 MB, 2.84% gc time)
calc_wljj!:    0.002556 sec (6 allocations: 96 byte, 0.0% gc time)
mult_prefac!:  0.0 sec (0 allocations: 0 byte, 0.0% gc time)
convert:       0.0 sec (0 allocations: 0 byte, 0.0% gc time)
write:         0.003225 sec (0 allocations: 0 byte, 0.0% gc time)
test_rand_2f1: 0.0 sec (0 allocations: 0 byte, 0.0% gc time)
Closing outfile out/Ml21-cache.bin...   0.000013 seconds
  0.880675 seconds (246.36 k allocations: 14.217 MiB, 1.64% gc time, 39.20% compilation time)
make_phi():   0.012557 seconds (8.18 k allocations: 237.844 KiB)
  0.171144 seconds (87.57 k allocations: 4.748 MiB, 92.71% compilation time)
tskip:       1.8e-5 sec (0 allocations: 0 byte, 0.0% gc time)
tread:       0.001944 sec (17 allocations: 2.125 KB, 0.0% gc time)
tmultphi:    0.030111 sec (21.425 k allocations: 1.287 MB, 0.0% gc time)
tbrfft:      0.003062 sec (0 allocations: 0 byte, 0.0% gc time)
tmultprefac: 0.001488 sec (0 allocations: 0 byte, 0.0% gc time)
toutfunc:    0.106614 sec (64.482 k allocations: 3.329 MB, 0.0% gc time)
Testing R=1.1 ... passed
Calculating fmax: 
  dlrec    = 4
  dlrecRg1 = -4
  q=1.1, R=1.0:	  0.001223 seconds (3.20 k allocations: 275.344 KiB)

  0.001388 seconds (3.25 k allocations: 309.922 KiB)
ℓ = 1202
Δℓ = 4
ΔℓRg1 = -4
N = 1600
q = 1.1
kmin = 1.0e-5
kmax = 100000.00000000004
χ0 = 0.023029999999999995
RR = RR.tsv
ℓmax = ℓmax.bin
f21 = f21.bin
kmin = 1.0e-5
kmax = 100000.0
dlrec    = 4
dlrecRg1 = -4
Output size: 61465536 bytes = 0.05724424123764038 GiB
Output size: 51264 bytes = 4.774332046508789e-5 GiB
Reading 'out/F21EllCache'...   0.000952 seconds (197 allocations: 84.203 KiB)
ellmax: 1202
lmaxcache: 1202
fell[:,1,1] = ComplexF64[809.6031528389767 - 1.9829558194077161e-13im, 0.0 + 0.0im]
ell 1202, elapsed: 5.1021575927734375e-5
ell 1201, elapsed: 0.008769035339355469
ell 1200, elapsed: 0.008813858032226562
ell 1199, elapsed: 0.00021791458129882812
ell 1198, elapsed: 0.00021409988403320312
ell 1197, elapsed: 0.0002760887145996094
ell 1196, elapsed: 0.00024199485778808594
ell 1195, elapsed: 0.000225067138671875
ell 1194, elapsed: 0.000225067138671875
ell 1193, elapsed: 0.00022411346435546875
ell 1192, elapsed: 0.0002231597900390625
ell 1191, elapsed: 0.000225067138671875
ell 1190, elapsed: 0.00022292137145996094
ell 1189, elapsed: 0.00022220611572265625
ell 1188, elapsed: 0.0002219676971435547
ell 1187, elapsed: 0.00022411346435546875
ell 1186, elapsed: 0.00021791458129882812
ell 1185, elapsed: 0.00021791458129882812
ell 1184, elapsed: 0.0002460479736328125
ell 1183, elapsed: 0.00021600723266601562
ell 1182, elapsed: 0.00022792816162109375
ell 1181, elapsed: 0.00021696090698242188
ell 1180, elapsed: 0.0002129077911376953
ell 1179, elapsed: 0.0002541542053222656
ell 1178, elapsed: 0.00021982192993164062
ell 1177, elapsed: 0.000225067138671875
ell 1176, elapsed: 0.00021600723266601562
ell 1175, elapsed: 0.00021696090698242188
ell 1174, elapsed: 0.0002269744873046875
ell 1173, elapsed: 0.00021696090698242188
ell 1172, elapsed: 0.00022101402282714844
ell 1171, elapsed: 0.00022101402282714844
ell 1170, elapsed: 0.00021696090698242188
ell 1169, elapsed: 0.00021982192993164062
ell 1168, elapsed: 0.0002148151397705078
ell 1167, elapsed: 0.00022101402282714844
ell 1166, elapsed: 0.00021219253540039062
ell 1165, elapsed: 0.00021314620971679688
ell 1164, elapsed: 0.00021791458129882812
ell 1163, elapsed: 0.00021791458129882812
ell 1162, elapsed: 0.00023889541625976562
ell 1161, elapsed: 0.0002200603485107422
ell 1160, elapsed: 0.00021409988403320312
ell 1159, elapsed: 0.00021791458129882812
ell 1158, elapsed: 0.00021386146545410156
ell 1157, elapsed: 0.00022077560424804688
ell 1156, elapsed: 0.00021195411682128906
ell 1155, elapsed: 0.00021696090698242188
ell 1154, elapsed: 0.00021505355834960938
ell 1153, elapsed: 0.0002090930938720703
ell 1152, elapsed: 0.0002319812774658203
ell 1151, elapsed: 0.0002129077911376953
ell 1150, elapsed: 0.0002231597900390625
ell 1149, elapsed: 0.00021386146545410156
ell 1148, elapsed: 0.00021505355834960938
ell 1147, elapsed: 0.000225067138671875
ell 1146, elapsed: 0.00021719932556152344
ell 1145, elapsed: 0.0002880096435546875
ell 1144, elapsed: 0.0002899169921875
ell 1143, elapsed: 0.0002560615539550781
ell 1142, elapsed: 0.00027298927307128906
ell 1141, elapsed: 0.00027108192443847656
ell 1140, elapsed: 0.0002658367156982422
ell 1139, elapsed: 0.0002181529998779297
ell 1138, elapsed: 0.00021600723266601562
ell 1137, elapsed: 0.00022602081298828125
ell 1136, elapsed: 0.00026607513427734375
ell 1135, elapsed: 0.000225067138671875
ell 1134, elapsed: 0.00022292137145996094
ell 1133, elapsed: 0.00022411346435546875
ell 1132, elapsed: 0.00028014183044433594
ell 1131, elapsed: 0.00022292137145996094
ell 1130, elapsed: 0.00025391578674316406
ell 1129, elapsed: 0.00022602081298828125
ell 1128, elapsed: 0.0002319812774658203
ell 1127, elapsed: 0.00023293495178222656
ell 1126, elapsed: 0.0002269744873046875
ell 1125, elapsed: 0.0002608299255371094
ell 1124, elapsed: 0.0002510547637939453
ell 1123, elapsed: 0.0002529621124267578
ell 1122, elapsed: 0.0002589225769042969
ell 1121, elapsed: 0.0002529621124267578
ell 1120, elapsed: 0.0002548694610595703
ell 1119, elapsed: 0.0002548694610595703
ell 1118, elapsed: 0.00025200843811035156
ell 1117, elapsed: 0.0002620220184326172
ell 1116, elapsed: 0.000247955322265625
ell 1115, elapsed: 0.0002579689025878906
ell 1114, elapsed: 0.00036597251892089844
ell 1113, elapsed: 0.0002589225769042969
ell 1112, elapsed: 0.00027108192443847656
ell 1111, elapsed: 0.0002551078796386719
ell 1110, elapsed: 0.00026106834411621094
ell 1109, elapsed: 0.0002529621124267578
ell 1108, elapsed: 0.00025200843811035156
ell 1107, elapsed: 0.0002601146697998047
ell 1106, elapsed: 0.00026106834411621094
ell 1105, elapsed: 0.00026917457580566406
ell 1104, elapsed: 0.0002541542053222656
ell 1103, elapsed: 0.00027108192443847656
ell 1102, elapsed: 0.0002551078796386719
ell 1101, elapsed: 0.0002570152282714844
ell 1100, elapsed: 0.0003190040588378906
ell 1099, elapsed: 0.0002579689025878906
ell 1098, elapsed: 0.000263214111328125
ell 1097, elapsed: 0.0002560615539550781
ell 1096, elapsed: 0.0002589225769042969
ell 1095, elapsed: 0.00027108192443847656
ell 1094, elapsed: 0.0002608299255371094
ell 1093, elapsed: 0.0002620220184326172
ell 1092, elapsed: 0.00026917457580566406
ell 1091, elapsed: 0.00025916099548339844
ell 1090, elapsed: 0.0002720355987548828
ell 1089, elapsed: 0.0002651214599609375
ell 1088, elapsed: 0.0002789497375488281
ell 1087, elapsed: 0.000263214111328125
ell 1086, elapsed: 0.00030803680419921875
ell 1085, elapsed: 0.00026988983154296875
ell 1084, elapsed: 0.00026416778564453125
ell 1083, elapsed: 0.0002720355987548828
ell 1082, elapsed: 0.00026488304138183594
ell 1081, elapsed: 0.00026297569274902344
ell 1080, elapsed: 0.0002720355987548828
ell 1079, elapsed: 0.0002620220184326172
ell 1078, elapsed: 0.0002818107604980469
ell 1077, elapsed: 0.0002639293670654297
ell 1076, elapsed: 0.0002658367156982422
ell 1075, elapsed: 0.0002739429473876953
ell 1074, elapsed: 0.0002651214599609375
ell 1073, elapsed: 0.00027298927307128906
ell 1072, elapsed: 0.0003058910369873047
ell 1071, elapsed: 0.00027298927307128906
ell 1070, elapsed: 0.00026988983154296875
ell 1069, elapsed: 0.00026607513427734375
ell 1068, elapsed: 0.0002689361572265625
ell 1067, elapsed: 0.0002651214599609375
ell 1066, elapsed: 0.0002689361572265625
ell 1065, elapsed: 0.00026798248291015625
ell 1064, elapsed: 0.00028204917907714844
ell 1063, elapsed: 0.0002720355987548828
ell 1062, elapsed: 0.0002818107604980469
ell 1061, elapsed: 0.0002720355987548828
ell 1060, elapsed: 0.00027179718017578125
ell 1059, elapsed: 0.00026679039001464844
ell 1058, elapsed: 0.0002970695495605469
ell 1057, elapsed: 0.0002789497375488281
ell 1056, elapsed: 0.00033593177795410156
ell 1055, elapsed: 0.0002770423889160156
ell 1054, elapsed: 0.0002830028533935547
ell 1053, elapsed: 0.0002739429473876953
ell 1052, elapsed: 0.00026607513427734375
ell 1051, elapsed: 0.0002789497375488281
ell 1050, elapsed: 0.00026702880859375
ell 1049, elapsed: 0.0002701282501220703
ell 1048, elapsed: 0.0002899169921875
ell 1047, elapsed: 0.00027298927307128906
ell 1046, elapsed: 0.0002791881561279297
ell 1045, elapsed: 0.00029397010803222656
ell 1044, elapsed: 0.0002701282501220703
ell 1043, elapsed: 0.0002760887145996094
ell 1042, elapsed: 0.000263214111328125
ell 1041, elapsed: 0.0002739429473876953
ell 1040, elapsed: 0.00026607513427734375
ell 1039, elapsed: 0.00026607513427734375
ell 1038, elapsed: 0.00028896331787109375
ell 1037, elapsed: 0.0002410411834716797
ell 1036, elapsed: 0.0002410411834716797
ell 1035, elapsed: 0.00023698806762695312
ell 1034, elapsed: 0.00023412704467773438
ell 1033, elapsed: 0.00024199485778808594
ell 1032, elapsed: 0.0002410411834716797
ell 1031, elapsed: 0.0002410411834716797
ell 1030, elapsed: 0.0004940032958984375
ell 1029, elapsed: 0.0002639293670654297
ell 1028, elapsed: 0.00025916099548339844
ell 1027, elapsed: 0.0002620220184326172
ell 1026, elapsed: 0.0002560615539550781
ell 1025, elapsed: 0.0002589225769042969
ell 1024, elapsed: 0.00026679039001464844
ell 1023, elapsed: 0.0002570152282714844
ell 1022, elapsed: 0.0002620220184326172
ell 1021, elapsed: 0.0002579689025878906
ell 1020, elapsed: 0.0002589225769042969
ell 1019, elapsed: 0.000270843505859375
ell 1018, elapsed: 0.00026106834411621094
ell 1017, elapsed: 0.00026297569274902344
ell 1016, elapsed: 0.00026702880859375
ell 1015, elapsed: 0.00023889541625976562
ell 1014, elapsed: 0.00024008750915527344
ell 1013, elapsed: 0.0002338886260986328
ell 1012, elapsed: 0.00024318695068359375
ell 1011, elapsed: 0.00023102760314941406
ell 1010, elapsed: 0.0002319812774658203
ell 1009, elapsed: 0.00023794174194335938
ell 1008, elapsed: 0.0002338886260986328
ell 1007, elapsed: 0.0002372264862060547
ell 1006, elapsed: 0.00023317337036132812
ell 1005, elapsed: 0.0002338886260986328
ell 1004, elapsed: 0.00024199485778808594
ell 1003, elapsed: 0.00024318695068359375
ell 1002, elapsed: 0.00024199485778808594
ell 1001, elapsed: 0.0005490779876708984
ell 1000, elapsed: 0.0003190040588378906
ell 999, elapsed: 0.0003020763397216797
ell 998, elapsed: 0.00029397010803222656
ell 997, elapsed: 0.00030303001403808594
ell 996, elapsed: 0.0003020763397216797
ell 995, elapsed: 0.00029206275939941406
ell 994, elapsed: 0.00025391578674316406
ell 993, elapsed: 0.00024080276489257812
ell 992, elapsed: 0.00024199485778808594
ell 991, elapsed: 0.00023603439331054688
ell 990, elapsed: 0.00023698806762695312
ell 989, elapsed: 0.00024390220642089844
ell 988, elapsed: 0.0002701282501220703
ell 987, elapsed: 0.0002589225769042969
ell 986, elapsed: 0.0002448558807373047
ell 985, elapsed: 0.00028896331787109375
ell 984, elapsed: 0.00028896331787109375
ell 983, elapsed: 0.0002930164337158203
ell 982, elapsed: 0.0002849102020263672
ell 981, elapsed: 0.0002911090850830078
ell 980, elapsed: 0.0002911090850830078
ell 979, elapsed: 0.0002899169921875
ell 978, elapsed: 0.00028586387634277344
ell 977, elapsed: 0.00028896331787109375
ell 976, elapsed: 0.00028705596923828125
ell 975, elapsed: 0.0002949237823486328
ell 974, elapsed: 0.00033402442932128906
ell 973, elapsed: 0.00028586387634277344
ell 972, elapsed: 0.0002970695495605469
ell 971, elapsed: 0.00023794174194335938
ell 970, elapsed: 0.0002357959747314453
ell 969, elapsed: 0.0002498626708984375
ell 968, elapsed: 0.0002391338348388672
ell 967, elapsed: 0.00028705596923828125
ell 966, elapsed: 0.00028014183044433594
ell 965, elapsed: 0.00030684471130371094
ell 964, elapsed: 0.0002830028533935547
ell 963, elapsed: 0.0002818107604980469
ell 962, elapsed: 0.0002899169921875
ell 961, elapsed: 0.0003070831298828125
ell 960, elapsed: 0.0002949237823486328
ell 959, elapsed: 0.00027489662170410156
ell 958, elapsed: 0.00025582313537597656
ell 957, elapsed: 0.0002319812774658203
ell 956, elapsed: 0.00023508071899414062
ell 955, elapsed: 0.0002429485321044922
ell 954, elapsed: 0.0002300739288330078
ell 953, elapsed: 0.0002269744873046875
ell 952, elapsed: 0.00023794174194335938
ell 951, elapsed: 0.00023293495178222656
ell 950, elapsed: 0.0002760887145996094
ell 949, elapsed: 0.000225067138671875
ell 948, elapsed: 0.00023102760314941406
ell 947, elapsed: 0.0002448558807373047
ell 946, elapsed: 0.0003330707550048828
ell 945, elapsed: 0.00023889541625976562
ell 944, elapsed: 0.0002238750457763672
ell 943, elapsed: 0.00029206275939941406
ell 942, elapsed: 0.0002689361572265625
ell 941, elapsed: 0.0002560615539550781
ell 940, elapsed: 0.0002589225769042969
ell 939, elapsed: 0.00026297569274902344
ell 938, elapsed: 0.0002758502960205078
ell 937, elapsed: 0.00023603439331054688
ell 936, elapsed: 0.00022292137145996094
ell 935, elapsed: 0.00023412704467773438
ell 934, elapsed: 0.0002548694610595703
ell 933, elapsed: 0.00026106834411621094
ell 932, elapsed: 0.0002639293670654297
ell 931, elapsed: 0.0002899169921875
ell 930, elapsed: 0.00022792816162109375
ell 929, elapsed: 0.0002219676971435547
ell 928, elapsed: 0.00022912025451660156
ell 927, elapsed: 0.00022411346435546875
ell 926, elapsed: 0.0002281665802001953
ell 925, elapsed: 0.00023484230041503906
ell 924, elapsed: 0.00022411346435546875
ell 923, elapsed: 0.00023603439331054688
ell 922, elapsed: 0.00022721290588378906
ell 921, elapsed: 0.0002319812774658203
ell 920, elapsed: 0.00023603439331054688
ell 919, elapsed: 0.0002269744873046875
ell 918, elapsed: 0.00023102760314941406
ell 917, elapsed: 0.00023698806762695312
ell 916, elapsed: 0.00023102760314941406
ell 915, elapsed: 0.0002598762512207031
ell 914, elapsed: 0.0002300739288330078
ell 913, elapsed: 0.00023412704467773438
ell 912, elapsed: 0.00022482872009277344
ell 911, elapsed: 0.00022792816162109375
ell 910, elapsed: 0.0002319812774658203
ell 909, elapsed: 0.00023102760314941406
ell 908, elapsed: 0.00023317337036132812
ell 907, elapsed: 0.0002269744873046875
ell 906, elapsed: 0.000225067138671875
ell 905, elapsed: 0.00023508071899414062
ell 904, elapsed: 0.00021910667419433594
ell 903, elapsed: 0.0002300739288330078
ell 902, elapsed: 0.00022101402282714844
ell 901, elapsed: 0.000225067138671875
ell 900, elapsed: 0.00025200843811035156
ell 899, elapsed: 0.0002200603485107422
ell 898, elapsed: 0.0002651214599609375
ell 897, elapsed: 0.00021791458129882812
ell 896, elapsed: 0.00022101402282714844
ell 895, elapsed: 0.0002269744873046875
ell 894, elapsed: 0.00022101402282714844
ell 893, elapsed: 0.0002269744873046875
ell 892, elapsed: 0.0002200603485107422
ell 891, elapsed: 0.00021910667419433594
ell 890, elapsed: 0.0002238750457763672
ell 889, elapsed: 0.00021505355834960938
ell 888, elapsed: 0.00022292137145996094
ell 887, elapsed: 0.0002620220184326172
ell 886, elapsed: 0.00022721290588378906
ell 885, elapsed: 0.00021696090698242188
ell 884, elapsed: 0.00021600723266601562
ell 883, elapsed: 0.0002219676971435547
ell 882, elapsed: 0.00021505355834960938
ell 881, elapsed: 0.0002541542053222656
ell 880, elapsed: 0.0002300739288330078
ell 879, elapsed: 0.00026488304138183594
ell 878, elapsed: 0.0002808570861816406
ell 877, elapsed: 0.00026988983154296875
ell 876, elapsed: 0.0002529621124267578
ell 875, elapsed: 0.00022292137145996094
ell 874, elapsed: 0.00021696090698242188
ell 873, elapsed: 0.00022220611572265625
ell 872, elapsed: 0.00021505355834960938
ell 871, elapsed: 0.00021886825561523438
ell 870, elapsed: 0.00021600723266601562
ell 869, elapsed: 0.00021386146545410156
ell 868, elapsed: 0.00022292137145996094
ell 867, elapsed: 0.00021600723266601562
ell 866, elapsed: 0.00021600723266601562
ell 865, elapsed: 0.00027298927307128906
ell 864, elapsed: 0.00021219253540039062
ell 863, elapsed: 0.00022411346435546875
ell 862, elapsed: 0.00021314620971679688
ell 861, elapsed: 0.0002200603485107422
ell 860, elapsed: 0.00021195411682128906
ell 859, elapsed: 0.00021910667419433594
ell 858, elapsed: 0.00021195411682128906
ell 857, elapsed: 0.00021314620971679688
ell 856, elapsed: 0.00021696090698242188
ell 855, elapsed: 0.00024700164794921875
ell 854, elapsed: 0.00021409988403320312
ell 853, elapsed: 0.000209808349609375
ell 852, elapsed: 0.0002090930938720703
ell 851, elapsed: 0.00021409988403320312
ell 850, elapsed: 0.0002079010009765625
ell 849, elapsed: 0.00021910667419433594
ell 848, elapsed: 0.0002410411834716797
ell 847, elapsed: 0.0002110004425048828
ell 846, elapsed: 0.00021696090698242188
ell 845, elapsed: 0.00021195411682128906
ell 844, elapsed: 0.00021409988403320312
ell 843, elapsed: 0.0002110004425048828
ell 842, elapsed: 0.0002110004425048828
ell 841, elapsed: 0.00021600723266601562
ell 840, elapsed: 0.00021195411682128906
ell 839, elapsed: 0.0002148151397705078
ell 838, elapsed: 0.000209808349609375
ell 837, elapsed: 0.000209808349609375
ell 836, elapsed: 0.00021386146545410156
ell 835, elapsed: 0.0002090930938720703
ell 834, elapsed: 0.00021600723266601562
ell 833, elapsed: 0.0002257823944091797
ell 832, elapsed: 0.0002110004425048828
ell 831, elapsed: 0.00021791458129882812
ell 830, elapsed: 0.00022411346435546875
ell 829, elapsed: 0.00021696090698242188
ell 828, elapsed: 0.00021195411682128906
ell 827, elapsed: 0.0002110004425048828
ell 826, elapsed: 0.0002110004425048828
ell 825, elapsed: 0.0002110004425048828
ell 824, elapsed: 0.0002281665802001953
ell 823, elapsed: 0.0002110004425048828
ell 822, elapsed: 0.0002319812774658203
ell 821, elapsed: 0.00021886825561523438
ell 820, elapsed: 0.00021600723266601562
ell 819, elapsed: 0.00021696090698242188
ell 818, elapsed: 0.00021386146545410156
ell 817, elapsed: 0.0002181529998779297
ell 816, elapsed: 0.00022292137145996094
ell 815, elapsed: 0.0002460479736328125
ell 814, elapsed: 0.00021886825561523438
ell 813, elapsed: 0.00024509429931640625
ell 812, elapsed: 0.00022292137145996094
ell 811, elapsed: 0.0002200603485107422
ell 810, elapsed: 0.00022101402282714844
ell 809, elapsed: 0.00022602081298828125
ell 808, elapsed: 0.00021600723266601562
ell 807, elapsed: 0.0002200603485107422
ell 806, elapsed: 0.00021600723266601562
ell 805, elapsed: 0.00021505355834960938
ell 804, elapsed: 0.00022292137145996094
ell 803, elapsed: 0.00022602081298828125
ell 802, elapsed: 0.00022101402282714844
ell 801, elapsed: 0.00021696090698242188
ell 800, elapsed: 0.00021505355834960938
ell 799, elapsed: 0.00022721290588378906
ell 798, elapsed: 0.00021791458129882812
ell 797, elapsed: 0.0002269744873046875
ell 796, elapsed: 0.00022792816162109375
ell 795, elapsed: 0.00022292137145996094
ell 794, elapsed: 0.0002269744873046875
ell 793, elapsed: 0.00021696090698242188
ell 792, elapsed: 0.0002231597900390625
ell 791, elapsed: 0.0003170967102050781
ell 790, elapsed: 0.00022602081298828125
ell 789, elapsed: 0.0002200603485107422
ell 788, elapsed: 0.00023508071899414062
ell 787, elapsed: 0.0002219676971435547
ell 786, elapsed: 0.00021600723266601562
ell 785, elapsed: 0.00022292137145996094
ell 784, elapsed: 0.00021719932556152344
ell 783, elapsed: 0.00021696090698242188
ell 782, elapsed: 0.00021982192993164062
ell 781, elapsed: 0.0002181529998779297
ell 780, elapsed: 0.0002238750457763672
ell 779, elapsed: 0.0002689361572265625
ell 778, elapsed: 0.00021505355834960938
ell 777, elapsed: 0.00022292137145996094
ell 776, elapsed: 0.00021719932556152344
ell 775, elapsed: 0.0002219676971435547
ell 774, elapsed: 0.00021791458129882812
ell 773, elapsed: 0.0002181529998779297
ell 772, elapsed: 0.00022983551025390625
ell 771, elapsed: 0.00021696090698242188
ell 770, elapsed: 0.00022101402282714844
ell 769, elapsed: 0.0002269744873046875
ell 768, elapsed: 0.000225067138671875
ell 767, elapsed: 0.0002200603485107422
ell 766, elapsed: 0.0002219676971435547
ell 765, elapsed: 0.0002219676971435547
ell 764, elapsed: 0.0002200603485107422
ell 763, elapsed: 0.0002219676971435547
ell 762, elapsed: 0.0002989768981933594
ell 761, elapsed: 0.00024700164794921875
ell 760, elapsed: 0.00025081634521484375
ell 759, elapsed: 0.0002460479736328125
ell 758, elapsed: 0.0002510547637939453
ell 757, elapsed: 0.00025200843811035156
ell 756, elapsed: 0.00024509429931640625
ell 755, elapsed: 0.00024700164794921875
ell 754, elapsed: 0.00025010108947753906
ell 753, elapsed: 0.00025200843811035156
ell 752, elapsed: 0.0002460479736328125
ell 751, elapsed: 0.0002460479736328125
ell 750, elapsed: 0.0002570152282714844
ell 749, elapsed: 0.000247955322265625
ell 748, elapsed: 0.0002548694610595703
ell 747, elapsed: 0.00028395652770996094
ell 746, elapsed: 0.0002601146697998047
ell 745, elapsed: 0.0002567768096923828
ell 744, elapsed: 0.0002529621124267578
ell 743, elapsed: 0.00025391578674316406
ell 742, elapsed: 0.0002510547637939453
ell 741, elapsed: 0.00024890899658203125
ell 740, elapsed: 0.0002598762512207031
ell 739, elapsed: 0.0002510547637939453
ell 738, elapsed: 0.0002601146697998047
ell 737, elapsed: 0.00024819374084472656
ell 736, elapsed: 0.0002720355987548828
ell 735, elapsed: 0.0002498626708984375
ell 734, elapsed: 0.000247955322265625
ell 733, elapsed: 0.00026106834411621094
ell 732, elapsed: 0.0002682209014892578
ell 731, elapsed: 0.0002570152282714844
ell 730, elapsed: 0.00025200843811035156
ell 729, elapsed: 0.0002491474151611328
ell 728, elapsed: 0.0002529621124267578
ell 727, elapsed: 0.000247955322265625
ell 726, elapsed: 0.0002739429473876953
ell 725, elapsed: 0.00027489662170410156
ell 724, elapsed: 0.0002760887145996094
ell 723, elapsed: 0.0002779960632324219
ell 722, elapsed: 0.000270843505859375
ell 721, elapsed: 0.0002789497375488281
ell 720, elapsed: 0.0002720355987548828
ell 719, elapsed: 0.0002701282501220703
ell 718, elapsed: 0.004258155822753906
ell 717, elapsed: 0.0003159046173095703
ell 716, elapsed: 0.00030994415283203125
ell 715, elapsed: 0.0002868175506591797
ell 714, elapsed: 0.00029087066650390625
ell 713, elapsed: 0.0002911090850830078
ell 712, elapsed: 0.0002830028533935547
ell 711, elapsed: 0.00029587745666503906
ell 710, elapsed: 0.0002892017364501953
ell 709, elapsed: 0.00028705596923828125
ell 708, elapsed: 0.0003001689910888672
ell 707, elapsed: 0.0002949237823486328
ell 706, elapsed: 0.00029587745666503906
ell 705, elapsed: 0.00032782554626464844
ell 704, elapsed: 0.00030303001403808594
ell 703, elapsed: 0.00029087066650390625
ell 702, elapsed: 0.00028896331787109375
ell 701, elapsed: 0.0002968311309814453
ell 700, elapsed: 0.00029087066650390625
ell 699, elapsed: 0.0002930164337158203
ell 698, elapsed: 0.0002899169921875
ell 697, elapsed: 0.0002868175506591797
ell 696, elapsed: 0.0003018379211425781
ell 695, elapsed: 0.0002899169921875
ell 694, elapsed: 0.0002980232238769531
ell 693, elapsed: 0.00029206275939941406
ell 692, elapsed: 0.0003190040588378906
ell 691, elapsed: 0.00030684471130371094
ell 690, elapsed: 0.0002830028533935547
ell 689, elapsed: 0.0002770423889160156
ell 688, elapsed: 0.0002791881561279297
ell 687, elapsed: 0.0002720355987548828
ell 686, elapsed: 0.0002841949462890625
ell 685, elapsed: 0.0002701282501220703
ell 684, elapsed: 0.0002808570861816406
ell 683, elapsed: 0.0002720355987548828
ell 682, elapsed: 0.00027108192443847656
ell 681, elapsed: 0.0002968311309814453
ell 680, elapsed: 0.0002810955047607422
ell 679, elapsed: 0.0003008842468261719
ell 678, elapsed: 0.0002498626708984375
ell 677, elapsed: 0.0002410411834716797
ell 676, elapsed: 0.00025391578674316406
ell 675, elapsed: 0.00024700164794921875
ell 674, elapsed: 0.0002510547637939453
ell 673, elapsed: 0.00024008750915527344
ell 672, elapsed: 0.00024819374084472656
ell 671, elapsed: 0.00024008750915527344
ell 670, elapsed: 0.00024008750915527344
ell 669, elapsed: 0.0002429485321044922
ell 668, elapsed: 0.00023889541625976562
ell 667, elapsed: 0.000247955322265625
ell 666, elapsed: 0.00024509429931640625
ell 665, elapsed: 0.0002429485321044922
ell 664, elapsed: 0.00027108192443847656
ell 663, elapsed: 0.0002429485321044922
ell 662, elapsed: 0.00025391578674316406
ell 661, elapsed: 0.0002429485321044922
ell 660, elapsed: 0.00024008750915527344
ell 659, elapsed: 0.00024700164794921875
ell 658, elapsed: 0.0002391338348388672
ell 657, elapsed: 0.00024890899658203125
ell 656, elapsed: 0.0002410411834716797
ell 655, elapsed: 0.00024390220642089844
ell 654, elapsed: 0.0002529621124267578
ell 653, elapsed: 0.0002429485321044922
ell 652, elapsed: 0.00024700164794921875
ell 651, elapsed: 0.00024199485778808594
ell 650, elapsed: 0.0002391338348388672
ell 649, elapsed: 0.0002541542053222656
ell 648, elapsed: 0.00026488304138183594
ell 647, elapsed: 0.0002560615539550781
ell 646, elapsed: 0.00024318695068359375
ell 645, elapsed: 0.00024819374084472656
ell 644, elapsed: 0.0002498626708984375
ell 643, elapsed: 0.00024080276489257812
ell 642, elapsed: 0.00025010108947753906
ell 641, elapsed: 0.0002410411834716797
ell 640, elapsed: 0.000247955322265625
ell 639, elapsed: 0.00024199485778808594
ell 638, elapsed: 0.00023889541625976562
ell 637, elapsed: 0.0002460479736328125
ell 636, elapsed: 0.00023794174194335938
ell 635, elapsed: 0.00024509429931640625
ell 634, elapsed: 0.00023889541625976562
ell 633, elapsed: 0.000247955322265625
ell 632, elapsed: 0.000247955322265625
ell 631, elapsed: 0.00023794174194335938
ell 630, elapsed: 0.00025010108947753906
ell 629, elapsed: 0.00023889541625976562
ell 628, elapsed: 0.00024318695068359375
ell 627, elapsed: 0.000247955322265625
ell 626, elapsed: 0.00023794174194335938
ell 625, elapsed: 0.0002460479736328125
ell 624, elapsed: 0.0002410411834716797
ell 623, elapsed: 0.0002460479736328125
ell 622, elapsed: 0.0002510547637939453
ell 621, elapsed: 0.00024390220642089844
ell 620, elapsed: 0.0002570152282714844
ell 619, elapsed: 0.00023293495178222656
ell 618, elapsed: 0.00023412704467773438
ell 617, elapsed: 0.0003108978271484375
ell 616, elapsed: 0.00030803680419921875
ell 615, elapsed: 0.00026798248291015625
ell 614, elapsed: 0.0002601146697998047
ell 613, elapsed: 0.0002570152282714844
ell 612, elapsed: 0.0002589225769042969
ell 611, elapsed: 0.0002541542053222656
ell 610, elapsed: 0.00025916099548339844
ell 609, elapsed: 0.0002548694610595703
ell 608, elapsed: 0.0002548694610595703
ell 607, elapsed: 0.0002548694610595703
ell 606, elapsed: 0.00025010108947753906
ell 605, elapsed: 0.0002899169921875
ell 604, elapsed: 0.00025010108947753906
ell 603, elapsed: 0.0002739429473876953
ell 602, elapsed: 0.00028395652770996094
ell 601, elapsed: 0.0002751350402832031
ell 600, elapsed: 0.0002810955047607422
ell 599, elapsed: 0.0002791881561279297
ell 598, elapsed: 0.00028204917907714844
ell 597, elapsed: 0.0002741813659667969
ell 596, elapsed: 0.0002720355987548828
ell 595, elapsed: 0.00028705596923828125
ell 594, elapsed: 0.00027108192443847656
ell 593, elapsed: 0.0002789497375488281
ell 592, elapsed: 0.0002751350402832031
ell 591, elapsed: 0.0002779960632324219
ell 590, elapsed: 0.00027680397033691406
ell 589, elapsed: 0.00030803680419921875
ell 588, elapsed: 0.00028204917907714844
ell 587, elapsed: 0.00028014183044433594
ell 586, elapsed: 0.00026798248291015625
ell 585, elapsed: 0.0002989768981933594
ell 584, elapsed: 0.0002808570861816406
ell 583, elapsed: 0.0003039836883544922
ell 582, elapsed: 0.00027489662170410156
ell 581, elapsed: 0.00026917457580566406
ell 580, elapsed: 0.00023102760314941406
ell 579, elapsed: 0.000225067138671875
ell 578, elapsed: 0.00023794174194335938
ell 577, elapsed: 0.00022220611572265625
ell 576, elapsed: 0.0002338886260986328
ell 575, elapsed: 0.0002551078796386719
ell 574, elapsed: 0.0002989768981933594
ell 573, elapsed: 0.00027489662170410156
ell 572, elapsed: 0.0002779960632324219
ell 571, elapsed: 0.0002770423889160156
ell 570, elapsed: 0.00022792816162109375
ell 569, elapsed: 0.00023412704467773438
ell 568, elapsed: 0.000270843505859375
ell 567, elapsed: 0.00025916099548339844
ell 566, elapsed: 0.00026106834411621094
ell 565, elapsed: 0.0002541542053222656
ell 564, elapsed: 0.0002601146697998047
ell 563, elapsed: 0.0002601146697998047
ell 562, elapsed: 0.00025200843811035156
ell 561, elapsed: 0.00032401084899902344
ell 560, elapsed: 0.0002849102020263672
ell 559, elapsed: 0.0002570152282714844
ell 558, elapsed: 0.0002338886260986328
ell 557, elapsed: 0.0002639293670654297
ell 556, elapsed: 0.0002789497375488281
ell 555, elapsed: 0.0002739429473876953
ell 554, elapsed: 0.0002741813659667969
ell 553, elapsed: 0.0002808570861816406
ell 552, elapsed: 0.0002830028533935547
ell 551, elapsed: 0.0002830028533935547
ell 550, elapsed: 0.0002760887145996094
ell 549, elapsed: 0.0002849102020263672
ell 548, elapsed: 0.0002770423889160156
ell 547, elapsed: 0.00031113624572753906
ell 546, elapsed: 0.00023412704467773438
ell 545, elapsed: 0.00022792816162109375
ell 544, elapsed: 0.0002319812774658203
ell 543, elapsed: 0.00022721290588378906
ell 542, elapsed: 0.00022912025451660156
ell 541, elapsed: 0.00023698806762695312
ell 540, elapsed: 0.00022912025451660156
ell 539, elapsed: 0.00023698806762695312
ell 538, elapsed: 0.00022721290588378906
ell 537, elapsed: 0.00022912025451660156
ell 536, elapsed: 0.00023412704467773438
ell 535, elapsed: 0.00022602081298828125
ell 534, elapsed: 0.0002319812774658203
ell 533, elapsed: 0.00022912025451660156
ell 532, elapsed: 0.00022411346435546875
ell 531, elapsed: 0.00023818016052246094
ell 530, elapsed: 0.00022292137145996094
ell 529, elapsed: 0.0002319812774658203
ell 528, elapsed: 0.0002219676971435547
ell 527, elapsed: 0.00022292137145996094
ell 526, elapsed: 0.0002281665802001953
ell 525, elapsed: 0.00022482872009277344
ell 524, elapsed: 0.0002300739288330078
ell 523, elapsed: 0.00022101402282714844
ell 522, elapsed: 0.00022101402282714844
ell 521, elapsed: 0.00023102760314941406
ell 520, elapsed: 0.0002200603485107422
ell 519, elapsed: 0.00022602081298828125
ell 518, elapsed: 0.00021696090698242188
ell 517, elapsed: 0.00022792816162109375
ell 516, elapsed: 0.00022220611572265625
ell 515, elapsed: 0.00022101402282714844
ell 514, elapsed: 0.000247955322265625
ell 513, elapsed: 0.00021791458129882812
ell 512, elapsed: 0.00023102760314941406
ell 511, elapsed: 0.00022292137145996094
ell 510, elapsed: 0.00022411346435546875
ell 509, elapsed: 0.00022602081298828125
ell 508, elapsed: 0.0002219676971435547
ell 507, elapsed: 0.00022292137145996094
ell 506, elapsed: 0.0002200603485107422
ell 505, elapsed: 0.00021791458129882812
ell 504, elapsed: 0.0002319812774658203
ell 503, elapsed: 0.0002200603485107422
ell 502, elapsed: 0.00022482872009277344
ell 501, elapsed: 0.00021791458129882812
ell 500, elapsed: 0.0002219676971435547
ell 499, elapsed: 0.0002257823944091797
ell 498, elapsed: 0.00021791458129882812
ell 497, elapsed: 0.0002429485321044922
ell 496, elapsed: 0.00022292137145996094
ell 495, elapsed: 0.00021791458129882812
ell 494, elapsed: 0.0002300739288330078
ell 493, elapsed: 0.00022101402282714844
ell 492, elapsed: 0.00022912025451660156
ell 491, elapsed: 0.00022101402282714844
ell 490, elapsed: 0.00022792816162109375
ell 489, elapsed: 0.0002181529998779297
ell 488, elapsed: 0.0002200603485107422
ell 487, elapsed: 0.0002319812774658203
ell 486, elapsed: 0.0002200603485107422
ell 485, elapsed: 0.0002238750457763672
ell 484, elapsed: 0.00021886825561523438
ell 483, elapsed: 0.00022411346435546875
ell 482, elapsed: 0.00022792816162109375
ell 481, elapsed: 0.00021886825561523438
ell 480, elapsed: 0.0002429485321044922
ell 479, elapsed: 0.00022101402282714844
ell 478, elapsed: 0.00022721290588378906
ell 477, elapsed: 0.00023293495178222656
ell 476, elapsed: 0.00022292137145996094
ell 475, elapsed: 0.0002319812774658203
ell 474, elapsed: 0.0002219676971435547
ell 473, elapsed: 0.000225067138671875
ell 472, elapsed: 0.0002238750457763672
ell 471, elapsed: 0.0002200603485107422
ell 470, elapsed: 0.00023317337036132812
ell 469, elapsed: 0.0002219676971435547
ell 468, elapsed: 0.000225067138671875
ell 467, elapsed: 0.0002269744873046875
ell 466, elapsed: 0.0002231597900390625
ell 465, elapsed: 0.00022912025451660156
ell 464, elapsed: 0.00021982192993164062
ell 463, elapsed: 0.00024890899658203125
ell 462, elapsed: 0.00022411346435546875
ell 461, elapsed: 0.00022292137145996094
ell 460, elapsed: 0.0002300739288330078
ell 459, elapsed: 0.0002219676971435547
ell 458, elapsed: 0.0002300739288330078
ell 457, elapsed: 0.00022602081298828125
ell 456, elapsed: 0.0002238750457763672
ell 455, elapsed: 0.00023317337036132812
ell 454, elapsed: 0.0002219676971435547
ell 453, elapsed: 0.00023603439331054688
ell 452, elapsed: 0.0002219676971435547
ell 451, elapsed: 0.0002219676971435547
ell 450, elapsed: 0.0002300739288330078
ell 449, elapsed: 0.0002238750457763672
ell 448, elapsed: 0.00023293495178222656
ell 447, elapsed: 0.0002219676971435547
ell 446, elapsed: 0.00023293495178222656
ell 445, elapsed: 0.00022792816162109375
ell 444, elapsed: 0.0002200603485107422
ell 443, elapsed: 0.00022602081298828125
ell 442, elapsed: 0.0002219676971435547
ell 441, elapsed: 0.00021910667419433594
ell 440, elapsed: 0.00022912025451660156
ell 439, elapsed: 0.00021910667419433594
ell 438, elapsed: 0.00022983551025390625
ell 437, elapsed: 0.00021886825561523438
ell 436, elapsed: 0.0002219676971435547
ell 435, elapsed: 0.00022602081298828125
ell 434, elapsed: 0.0002219676971435547
ell 433, elapsed: 0.00022792816162109375
ell 432, elapsed: 0.00021910667419433594
ell 431, elapsed: 0.00021791458129882812
ell 430, elapsed: 0.00021910667419433594
ell 429, elapsed: 0.0002300739288330078
ell 428, elapsed: 0.0002269744873046875
ell 427, elapsed: 0.00021791458129882812
ell 426, elapsed: 0.00022912025451660156
ell 425, elapsed: 0.00021696090698242188
ell 424, elapsed: 0.0002200603485107422
ell 423, elapsed: 0.0002281665802001953
ell 422, elapsed: 0.00022101402282714844
ell 421, elapsed: 0.0002288818359375
ell 420, elapsed: 0.0002200603485107422
ell 419, elapsed: 0.00021982192993164062
ell 418, elapsed: 0.00022602081298828125
ell 417, elapsed: 0.00021696090698242188
ell 416, elapsed: 0.0002269744873046875
ell 415, elapsed: 0.0002269744873046875
ell 414, elapsed: 0.00021886825561523438
ell 413, elapsed: 0.0002269744873046875
ell 412, elapsed: 0.0002429485321044922
ell 411, elapsed: 0.0002319812774658203
ell 410, elapsed: 0.00021910667419433594
ell 409, elapsed: 0.0002200603485107422
ell 408, elapsed: 0.0002300739288330078
ell 407, elapsed: 0.0002269744873046875
ell 406, elapsed: 0.00023293495178222656
ell 405, elapsed: 0.00021982192993164062
ell 404, elapsed: 0.0002219676971435547
ell 403, elapsed: 0.0002288818359375
ell 402, elapsed: 0.0002231597900390625
ell 401, elapsed: 0.00022912025451660156
ell 400, elapsed: 0.00023698806762695312
ell 399, elapsed: 0.0002269744873046875
ell 398, elapsed: 0.00021910667419433594
ell 397, elapsed: 0.00021600723266601562
ell 396, elapsed: 0.000225067138671875
ell 395, elapsed: 0.0002999305725097656
ell 394, elapsed: 0.00028204917907714844
ell 393, elapsed: 0.00026798248291015625
ell 392, elapsed: 0.00026798248291015625
ell 391, elapsed: 0.0002720355987548828
ell 390, elapsed: 0.00026106834411621094
ell 389, elapsed: 0.00026798248291015625
ell 388, elapsed: 0.0002589225769042969
ell 387, elapsed: 0.0002651214599609375
ell 386, elapsed: 0.00026988983154296875
ell 385, elapsed: 0.0002601146697998047
ell 384, elapsed: 0.00026988983154296875
ell 383, elapsed: 0.00024199485778808594
ell 382, elapsed: 0.0002789497375488281
ell 381, elapsed: 0.004301786422729492
ell 380, elapsed: 0.0002639293670654297
ell 379, elapsed: 0.00026988983154296875
ell 378, elapsed: 0.00026106834411621094
ell 377, elapsed: 0.00026702880859375
ell 376, elapsed: 0.00026988983154296875
ell 375, elapsed: 0.0002620220184326172
ell 374, elapsed: 0.00026798248291015625
ell 373, elapsed: 0.00027298927307128906
ell 372, elapsed: 0.00027108192443847656
ell 371, elapsed: 0.0002620220184326172
ell 370, elapsed: 0.00028705596923828125
ell 369, elapsed: 0.00029778480529785156
ell 368, elapsed: 0.0002799034118652344
ell 367, elapsed: 0.0002689361572265625
ell 366, elapsed: 0.0002739429473876953
ell 365, elapsed: 0.0002491474151611328
ell 364, elapsed: 0.0002579689025878906
ell 363, elapsed: 0.00026297569274902344
ell 362, elapsed: 0.00026297569274902344
ell 361, elapsed: 0.00025391578674316406
ell 360, elapsed: 0.0002498626708984375
ell 359, elapsed: 0.00026988983154296875
ell 358, elapsed: 0.0002570152282714844
ell 357, elapsed: 0.0002617835998535156
ell 356, elapsed: 0.0002620220184326172
ell 355, elapsed: 0.000270843505859375
ell 354, elapsed: 0.0002830028533935547
ell 353, elapsed: 0.0002980232238769531
ell 352, elapsed: 0.00028395652770996094
ell 351, elapsed: 0.00026488304138183594
ell 350, elapsed: 0.00026106834411621094
ell 349, elapsed: 0.0002779960632324219
ell 348, elapsed: 0.00029397010803222656
ell 347, elapsed: 0.0002949237823486328
ell 346, elapsed: 0.0002808570861816406
ell 345, elapsed: 0.00029206275939941406
ell 344, elapsed: 0.00029015541076660156
ell 343, elapsed: 0.00028395652770996094
ell 342, elapsed: 0.00030303001403808594
ell 341, elapsed: 0.00028204917907714844
ell 340, elapsed: 0.0003120899200439453
ell 339, elapsed: 0.000286102294921875
ell 338, elapsed: 0.0002789497375488281
ell 337, elapsed: 0.0002911090850830078
ell 336, elapsed: 0.000286102294921875
ell 335, elapsed: 0.0002989768981933594
ell 334, elapsed: 0.00028514862060546875
ell 333, elapsed: 0.000286102294921875
ell 332, elapsed: 0.00030803680419921875
ell 331, elapsed: 0.0002911090850830078
ell 330, elapsed: 0.00029587745666503906
ell 329, elapsed: 0.0002899169921875
ell 328, elapsed: 0.00028514862060546875
ell 327, elapsed: 0.00031304359436035156
ell 326, elapsed: 0.00028896331787109375
ell 325, elapsed: 0.0003070831298828125
ell 324, elapsed: 0.00028896331787109375
ell 323, elapsed: 0.000286102294921875
ell 322, elapsed: 0.00029397010803222656
ell 321, elapsed: 0.0002899169921875
ell 320, elapsed: 0.0002989768981933594
ell 319, elapsed: 0.0002849102020263672
ell 318, elapsed: 0.0002880096435546875
ell 317, elapsed: 0.0002961158752441406
ell 316, elapsed: 0.00029397010803222656
ell 315, elapsed: 0.00029397010803222656
ell 314, elapsed: 0.0003101825714111328
ell 313, elapsed: 0.0002899169921875
ell 312, elapsed: 0.0002968311309814453
ell 311, elapsed: 0.00028705596923828125
ell 310, elapsed: 0.0003001689910888672
ell 309, elapsed: 0.0002911090850830078
ell 308, elapsed: 0.0002999305725097656
ell 307, elapsed: 0.00029397010803222656
ell 306, elapsed: 0.0002918243408203125
ell 305, elapsed: 0.0003018379211425781
ell 304, elapsed: 0.0002970695495605469
ell 303, elapsed: 0.00030994415283203125
ell 302, elapsed: 0.0002999305725097656
ell 301, elapsed: 0.0003070831298828125
ell 300, elapsed: 0.00030303001403808594
ell 299, elapsed: 0.000286102294921875
ell 298, elapsed: 0.0002980232238769531
ell 297, elapsed: 0.0002911090850830078
ell 296, elapsed: 0.00029206275939941406
ell 295, elapsed: 0.0002930164337158203
ell 294, elapsed: 0.0002899169921875
ell 293, elapsed: 0.0002980232238769531
ell 292, elapsed: 0.0002911090850830078
ell 291, elapsed: 0.00029277801513671875
ell 290, elapsed: 0.00029087066650390625
ell 289, elapsed: 0.00030994415283203125
ell 288, elapsed: 0.0002999305725097656
ell 287, elapsed: 0.0002942085266113281
ell 286, elapsed: 0.00028896331787109375
ell 285, elapsed: 0.0002989768981933594
ell 284, elapsed: 0.00030303001403808594
ell 283, elapsed: 0.00030684471130371094
ell 282, elapsed: 0.0002930164337158203
ell 281, elapsed: 0.00030517578125
ell 280, elapsed: 0.0002868175506591797
ell 279, elapsed: 0.0002779960632324219
ell 278, elapsed: 0.0002541542053222656
ell 277, elapsed: 0.0002460479736328125
ell 276, elapsed: 0.00027489662170410156
ell 275, elapsed: 0.00024390220642089844
ell 274, elapsed: 0.0002770423889160156
ell 273, elapsed: 0.0002849102020263672
ell 272, elapsed: 0.0002760887145996094
ell 271, elapsed: 0.0003209114074707031
ell 270, elapsed: 0.00027298927307128906
ell 269, elapsed: 0.00026488304138183594
ell 268, elapsed: 0.0002529621124267578
ell 267, elapsed: 0.00024700164794921875
ell 266, elapsed: 0.0002460479736328125
ell 265, elapsed: 0.00023818016052246094
ell 264, elapsed: 0.0002410411834716797
ell 263, elapsed: 0.00026607513427734375
ell 262, elapsed: 0.00025391578674316406
ell 261, elapsed: 0.00027489662170410156
ell 260, elapsed: 0.00024700164794921875
ell 259, elapsed: 0.0002391338348388672
ell 258, elapsed: 0.00025582313537597656
ell 257, elapsed: 0.00023889541625976562
ell 256, elapsed: 0.000247955322265625
ell 255, elapsed: 0.0002391338348388672
ell 254, elapsed: 0.00024080276489257812
ell 253, elapsed: 0.0002410411834716797
ell 252, elapsed: 0.00023603439331054688
ell 251, elapsed: 0.0002529621124267578
ell 250, elapsed: 0.00024700164794921875
ell 249, elapsed: 0.0002448558807373047
ell 248, elapsed: 0.00024199485778808594
ell 247, elapsed: 0.00023889541625976562
ell 246, elapsed: 0.0002658367156982422
ell 245, elapsed: 0.00024509429931640625
ell 244, elapsed: 0.000247955322265625
ell 243, elapsed: 0.0002391338348388672
ell 242, elapsed: 0.00024199485778808594
ell 241, elapsed: 0.0002460479736328125
ell 240, elapsed: 0.0002410411834716797
ell 239, elapsed: 0.00024509429931640625
ell 238, elapsed: 0.0002410411834716797
ell 237, elapsed: 0.00024008750915527344
ell 236, elapsed: 0.00024390220642089844
ell 235, elapsed: 0.0002391338348388672
ell 234, elapsed: 0.00024580955505371094
ell 233, elapsed: 0.0002429485321044922
ell 232, elapsed: 0.00023889541625976562
ell 231, elapsed: 0.0002460479736328125
ell 230, elapsed: 0.00026988983154296875
ell 229, elapsed: 0.00024509429931640625
ell 228, elapsed: 0.00023603439331054688
ell 227, elapsed: 0.0002410411834716797
ell 226, elapsed: 0.00023794174194335938
ell 225, elapsed: 0.00023889541625976562
ell 224, elapsed: 0.0002410411834716797
ell 223, elapsed: 0.00023317337036132812
ell 222, elapsed: 0.0002319812774658203
ell 221, elapsed: 0.00023508071899414062
ell 220, elapsed: 0.0002319812774658203
ell 219, elapsed: 0.00023412704467773438
ell 218, elapsed: 0.00022792816162109375
ell 217, elapsed: 0.00023698806762695312
ell 216, elapsed: 0.00022602081298828125
ell 215, elapsed: 0.0002269744873046875
ell 214, elapsed: 0.000247955322265625
ell 213, elapsed: 0.0002288818359375
ell 212, elapsed: 0.00023603439331054688
ell 211, elapsed: 0.0002300739288330078
ell 210, elapsed: 0.00022912025451660156
ell 209, elapsed: 0.00023794174194335938
ell 208, elapsed: 0.0002288818359375
ell 207, elapsed: 0.00023794174194335938
ell 206, elapsed: 0.0002338886260986328
ell 205, elapsed: 0.0002338886260986328
ell 204, elapsed: 0.00023889541625976562
ell 203, elapsed: 0.0002338886260986328
ell 202, elapsed: 0.0002391338348388672
ell 201, elapsed: 0.00023603439331054688
ell 200, elapsed: 0.00022912025451660156
ell 199, elapsed: 0.00023889541625976562
ell 198, elapsed: 0.00024199485778808594
ell 197, elapsed: 0.00023984909057617188
ell 196, elapsed: 0.0002300739288330078
ell 195, elapsed: 0.000244140625
ell 194, elapsed: 0.00024008750915527344
ell 193, elapsed: 0.00023698806762695312
ell 192, elapsed: 0.00024199485778808594
ell 191, elapsed: 0.0002391338348388672
ell 190, elapsed: 0.00023818016052246094
ell 189, elapsed: 0.00022792816162109375
ell 188, elapsed: 0.0002288818359375
ell 187, elapsed: 0.00023508071899414062
ell 186, elapsed: 0.000225067138671875
ell 185, elapsed: 0.00023293495178222656
ell 184, elapsed: 0.00022912025451660156
ell 183, elapsed: 0.00022411346435546875
ell 182, elapsed: 0.0002560615539550781
ell 181, elapsed: 0.000225067138671875
ell 180, elapsed: 0.0002300739288330078
ell 179, elapsed: 0.0002238750457763672
ell 178, elapsed: 0.00022292137145996094
ell 177, elapsed: 0.00023293495178222656
ell 176, elapsed: 0.0002300739288330078
ell 175, elapsed: 0.00023293495178222656
ell 174, elapsed: 0.00022721290588378906
ell 173, elapsed: 0.0002219676971435547
ell 172, elapsed: 0.0002319812774658203
ell 171, elapsed: 0.0002238750457763672
ell 170, elapsed: 0.00022721290588378906
ell 169, elapsed: 0.00022482872009277344
ell 168, elapsed: 0.0002238750457763672
ell 167, elapsed: 0.00023293495178222656
ell 166, elapsed: 0.00022411346435546875
ell 165, elapsed: 0.00023889541625976562
ell 164, elapsed: 0.0002238750457763672
ell 163, elapsed: 0.00022792816162109375
ell 162, elapsed: 0.0002238750457763672
ell 161, elapsed: 0.0002257823944091797
ell 160, elapsed: 0.00022792816162109375
ell 159, elapsed: 0.00022482872009277344
ell 158, elapsed: 0.00024700164794921875
ell 157, elapsed: 0.0002391338348388672
ell 156, elapsed: 0.00023508071899414062
ell 155, elapsed: 0.00022912025451660156
ell 154, elapsed: 0.00022602081298828125
ell 153, elapsed: 0.00022792816162109375
ell 152, elapsed: 0.00021910667419433594
ell 151, elapsed: 0.00022602081298828125
ell 150, elapsed: 0.0002281665802001953
ell 149, elapsed: 0.0002238750457763672
ell 148, elapsed: 0.0002732276916503906
ell 147, elapsed: 0.00022983551025390625
ell 146, elapsed: 0.00022292137145996094
ell 145, elapsed: 0.0002319812774658203
ell 144, elapsed: 0.0002219676971435547
ell 143, elapsed: 0.0002338886260986328
ell 142, elapsed: 0.00022101402282714844
ell 141, elapsed: 0.00022411346435546875
ell 140, elapsed: 0.0002319812774658203
ell 139, elapsed: 0.0002319812774658203
ell 138, elapsed: 0.0002338886260986328
ell 137, elapsed: 0.0002231597900390625
ell 136, elapsed: 0.00022292137145996094
ell 135, elapsed: 0.0002300739288330078
ell 134, elapsed: 0.00022292137145996094
ell 133, elapsed: 0.00023293495178222656
ell 132, elapsed: 0.00023508071899414062
ell 131, elapsed: 0.00023102760314941406
ell 130, elapsed: 0.00022411346435546875
ell 129, elapsed: 0.00022101402282714844
ell 128, elapsed: 0.00023293495178222656
ell 127, elapsed: 0.00022101402282714844
ell 126, elapsed: 0.0002319812774658203
ell 125, elapsed: 0.0002231597900390625
ell 124, elapsed: 0.0002219676971435547
ell 123, elapsed: 0.00023293495178222656
ell 122, elapsed: 0.000225067138671875
ell 121, elapsed: 0.00025010108947753906
ell 120, elapsed: 0.00022983551025390625
ell 119, elapsed: 0.00024390220642089844
ell 118, elapsed: 0.0002460479736328125
ell 117, elapsed: 0.00022912025451660156
ell 116, elapsed: 0.00025200843811035156
ell 115, elapsed: 0.00023412704467773438
ell 114, elapsed: 0.0002288818359375
ell 113, elapsed: 0.0002391338348388672
ell 112, elapsed: 0.00022602081298828125
ell 111, elapsed: 0.00023293495178222656
ell 110, elapsed: 0.000225067138671875
ell 109, elapsed: 0.000225067138671875
ell 108, elapsed: 0.0002319812774658203
ell 107, elapsed: 0.00022411346435546875
ell 106, elapsed: 0.0002319812774658203
ell 105, elapsed: 0.0002238750457763672
ell 104, elapsed: 0.00022411346435546875
ell 103, elapsed: 0.0002300739288330078
ell 102, elapsed: 0.0002238750457763672
ell 101, elapsed: 0.0002391338348388672
ell 100, elapsed: 0.00022411346435546875
ell 99, elapsed: 0.0002560615539550781
ell 98, elapsed: 0.0002231597900390625
ell 97, elapsed: 0.00022101402282714844
ell 96, elapsed: 0.00022792816162109375
ell 95, elapsed: 0.00022292137145996094
ell 94, elapsed: 0.0002269744873046875
ell 93, elapsed: 0.00022292137145996094
ell 92, elapsed: 0.00022101402282714844
ell 91, elapsed: 0.00023293495178222656
ell 90, elapsed: 0.00022101402282714844
ell 89, elapsed: 0.0002300739288330078
ell 88, elapsed: 0.00022101402282714844
ell 87, elapsed: 0.0002200603485107422
ell 86, elapsed: 0.0002269744873046875
ell 85, elapsed: 0.00022292137145996094
ell 84, elapsed: 0.0002288818359375
ell 83, elapsed: 0.0002319812774658203
ell 82, elapsed: 0.0002560615539550781
ell 81, elapsed: 0.00022912025451660156
ell 80, elapsed: 0.0002200603485107422
ell 79, elapsed: 0.00022602081298828125
ell 78, elapsed: 0.00022411346435546875
ell 77, elapsed: 0.0002219676971435547
ell 76, elapsed: 0.00022411346435546875
ell 75, elapsed: 0.00022101402282714844
ell 74, elapsed: 0.00022602081298828125
ell 73, elapsed: 0.00022602081298828125
ell 72, elapsed: 0.00022721290588378906
ell 71, elapsed: 0.00022983551025390625
ell 70, elapsed: 0.00022411346435546875
ell 69, elapsed: 0.0002288818359375
ell 68, elapsed: 0.00022721290588378906
ell 67, elapsed: 0.00022792816162109375
ell 66, elapsed: 0.00022411346435546875
ell 65, elapsed: 0.00022411346435546875
ell 64, elapsed: 0.0002281665802001953
ell 63, elapsed: 0.0002238750457763672
ell 62, elapsed: 0.0002300739288330078
ell 61, elapsed: 0.0002219676971435547
ell 60, elapsed: 0.000225067138671875
ell 59, elapsed: 0.0002269744873046875
ell 58, elapsed: 0.0002219676971435547
ell 57, elapsed: 0.00022602081298828125
ell 56, elapsed: 0.0002429485321044922
ell 55, elapsed: 0.000225067138671875
ell 54, elapsed: 0.00023889541625976562
ell 53, elapsed: 0.00022411346435546875
ell 52, elapsed: 0.0002288818359375
ell 51, elapsed: 0.00022292137145996094
ell 50, elapsed: 0.00022411346435546875
ell 49, elapsed: 0.00024390220642089844
ell 48, elapsed: 0.0002269744873046875
ell 47, elapsed: 0.0002338886260986328
ell 46, elapsed: 0.00023818016052246094
ell 45, elapsed: 0.0002372264862060547
ell 44, elapsed: 0.0002448558807373047
ell 43, elapsed: 0.00023698806762695312
ell 42, elapsed: 0.0002319812774658203
ell 41, elapsed: 0.00023102760314941406
ell 40, elapsed: 0.00023794174194335938
ell 39, elapsed: 0.0002307891845703125
ell 38, elapsed: 0.0002269744873046875
ell 37, elapsed: 0.00023102760314941406
ell 36, elapsed: 0.00022792816162109375
ell 35, elapsed: 0.00023698806762695312
ell 34, elapsed: 0.00022602081298828125
ell 33, elapsed: 0.0002560615539550781
ell 32, elapsed: 0.00027298927307128906
ell 31, elapsed: 0.00026917457580566406
ell 30, elapsed: 0.00027489662170410156
ell 29, elapsed: 0.0002720355987548828
ell 28, elapsed: 0.00027108192443847656
ell 27, elapsed: 0.0002779960632324219
ell 26, elapsed: 0.00026702880859375
ell 25, elapsed: 0.00028204917907714844
ell 24, elapsed: 0.00027179718017578125
ell 23, elapsed: 0.000270843505859375
ell 22, elapsed: 0.0002760887145996094
ell 21, elapsed: 0.0002720355987548828
ell 20, elapsed: 0.0002760887145996094
ell 19, elapsed: 0.0002989768981933594
ell 18, elapsed: 0.0002810955047607422
ell 17, elapsed: 0.0002799034118652344
ell 16, elapsed: 0.00027298927307128906
ell 15, elapsed: 0.0002949237823486328
ell 14, elapsed: 0.0002739429473876953
ell 13, elapsed: 0.00027680397033691406
ell 12, elapsed: 0.0002770423889160156
ell 11, elapsed: 0.00028514862060546875
ell 10, elapsed: 0.0002999305725097656
ell 9, elapsed: 0.00029206275939941406
ell 8, elapsed: 0.0002980232238769531
ell 7, elapsed: 0.0002942085266113281
ell 6, elapsed: 0.00030303001403808594
ell 5, elapsed: 0.00030517578125
ell 4, elapsed: 0.0002899169921875
ell 3, elapsed: 0.0002968311309814453
ell 2, elapsed: 0.0002930164337158203
ell 1, elapsed: 0.00028896331787109375
ell 0, elapsed: 0.0003039836883544922
  0.340789 seconds (46.03 k allocations: 3.091 MiB, 4.98% compilation time)
elapsed: 0.0003979206085205078
step:          0.041687 sec (0 allocations: 0 byte, 0.0% gc time)
swapping:      0.000251 sec (0 allocations: 0 byte, 0.0% gc time)
calc_Mellell!: 0.004007 sec (0 allocations: 0 byte, 0.0% gc time)
  t0 :  0.000856 sec (0 allocations: 0 byte, 0.0% gc time)
  tm2 : 0.067125 sec (0 allocations: 0 byte, 0.0% gc time)
  tm2s: 0.000669 sec (0 allocations: 0 byte, 0.0% gc time)
  tm4 : 0.140029 sec (0 allocations: 0 byte, 0.0% gc time)
  tp2 : 0.0 sec (0 allocations: 0 byte, 0.0% gc time)
  tp2s: 0.0 sec (0 allocations: 0 byte, 0.0% gc time)
  tp4 : 0.0 sec (0 allocations: 0 byte, 0.0% gc time)
calc_wtdll!:   0.227647 sec (9.9 k allocations: 1.047 MB, 0.0% gc time)
calc_wljj!:    0.01443 sec (689 allocations: 10.766 KB, 0.0% gc time)
mult_prefac!:  0.0 sec (0 allocations: 0 byte, 0.0% gc time)
convert:       0.0 sec (0 allocations: 0 byte, 0.0% gc time)
write:         0.024279 sec (0 allocations: 0 byte, 0.0% gc time)
test_rand_2f1: 0.0 sec (0 allocations: 0 byte, 0.0% gc time)
Closing outfile out/Ml21-cache.bin...   0.000009 seconds
  0.000308 seconds (36 allocations: 27.953 KiB)
make_phi():   0.000963 seconds (8.18 k allocations: 237.844 KiB)
  0.099087 seconds (141.90 k allocations: 3.483 MiB)
tskip:       0.000732 sec (0 allocations: 0 byte, 0.0% gc time)
tread:       0.018776 sec (17 allocations: 10.641 KB, 0.0% gc time)
tmultphi:    0.007371 sec (0 allocations: 0 byte, 0.0% gc time)
tbrfft:      0.027845 sec (0 allocations: 0 byte, 0.0% gc time)
tmultprefac: 0.013798 sec (0 allocations: 0 byte, 0.0% gc time)
toutfunc:    0.027797 sec (127.507 k allocations: 2.312 MB, 0.0% gc time)
Testing R=1.0 ... passed
Calculating fmax: 
  dlrec    = 4
  dlrecRg1 = -4
  q=1.1, R=0.9:	  0.235379 seconds (105.72 k allocations: 15.273 MiB)

  0.235509 seconds (105.77 k allocations: 15.306 MiB)
ℓ = 1202
Δℓ = 4
ΔℓRg1 = -4
N = 1600
q = 1.1
kmin = 1.0e-5
kmax = 100000.00000000004
χ0 = 0.023029999999999995
RR = RR.tsv
ℓmax = ℓmax.bin
f21 = f21.bin
kmin = 1.0e-5
kmax = 100000.0
dlrec    = 4
dlrecRg1 = -4
Output size: 5741568 bytes = 0.005347251892089844 GiB
Output size: 51264 bytes = 4.774332046508789e-5 GiB
Reading 'out/F21EllCache'...   0.001371 seconds (197 allocations: 84.203 KiB)
ellmax: 1202
lmaxcache: 1202
fell[:,1,1] = ComplexF64[1.3482014726274674e-57 - 3.302141236118086e-73im, 1.357860004724329e-57 - 3.3257978169518355e-73im]
ell 1202, elapsed: 2.09808349609375e-5
ell 1201, elapsed: 0.0003218650817871094
ell 1200, elapsed: 0.0002810955047607422
ell 1199, elapsed: 0.0002779960632324219
ell 1198, elapsed: 0.0002880096435546875
ell 1002, elapsed: 0.00830984115600586
ell 1001, elapsed: 0.0002658367156982422
ell 1000, elapsed: 0.0002589225769042969
ell 999, elapsed: 0.0002589225769042969
ell 998, elapsed: 0.0002579689025878906
ell 902, elapsed: 0.004165172576904297
ell 901, elapsed: 0.00025200843811035156
ell 900, elapsed: 0.0002598762512207031
ell 899, elapsed: 0.00025200843811035156
ell 898, elapsed: 0.0002498626708984375
ell 802, elapsed: 0.0040569305419921875
ell 801, elapsed: 0.00025200843811035156
ell 800, elapsed: 0.00024890899658203125
ell 799, elapsed: 0.0002491474151611328
ell 798, elapsed: 0.00037217140197753906
ell 702, elapsed: 0.0038928985595703125
ell 701, elapsed: 0.00034999847412109375
ell 700, elapsed: 0.0003211498260498047
ell 699, elapsed: 0.0002079010009765625
ell 698, elapsed: 0.00020813941955566406
ell 602, elapsed: 0.0036139488220214844
ell 601, elapsed: 0.00022292137145996094
ell 600, elapsed: 0.0002009868621826172
ell 599, elapsed: 0.00020122528076171875
ell 598, elapsed: 0.00020122528076171875
ell 502, elapsed: 0.0034880638122558594
ell 501, elapsed: 0.00019788742065429688
ell 500, elapsed: 0.0002009868621826172
ell 499, elapsed: 0.00019502639770507812
ell 498, elapsed: 0.00019478797912597656
ell 402, elapsed: 0.003471851348876953
ell 401, elapsed: 0.0001938343048095703
ell 400, elapsed: 0.0001938343048095703
ell 399, elapsed: 0.00019502639770507812
ell 398, elapsed: 0.00021505355834960938
ell 302, elapsed: 0.0033829212188720703
ell 301, elapsed: 0.00019311904907226562
ell 300, elapsed: 0.0001919269561767578
ell 299, elapsed: 0.00019407272338867188
ell 298, elapsed: 0.00019288063049316406
ell 202, elapsed: 0.003350973129272461
ell 201, elapsed: 0.00018906593322753906
ell 200, elapsed: 0.0002079010009765625
ell 199, elapsed: 0.00021791458129882812
ell 198, elapsed: 0.00018715858459472656
ell 152, elapsed: 0.0018401145935058594
ell 151, elapsed: 0.00035500526428222656
ell 150, elapsed: 0.0001850128173828125
ell 149, elapsed: 0.00018405914306640625
ell 148, elapsed: 0.00021600723266601562
ell 127, elapsed: 0.0008440017700195312
ell 126, elapsed: 0.00019097328186035156
ell 125, elapsed: 0.00018310546875
ell 124, elapsed: 0.0001838207244873047
ell 123, elapsed: 0.0001819133758544922
ell 114, elapsed: 0.0004680156707763672
ell 113, elapsed: 0.00018286705017089844
ell 112, elapsed: 0.00018286705017089844
ell 111, elapsed: 0.00018310546875
ell 110, elapsed: 0.000186920166015625
ell 102, elapsed: 0.0004360675811767578
ell 101, elapsed: 0.00018405914306640625
ell 100, elapsed: 0.00018405914306640625
ell 99, elapsed: 0.0001838207244873047
ell 98, elapsed: 0.0001838207244873047
ell 97, elapsed: 0.0002129077911376953
ell 96, elapsed: 0.0002689361572265625
ell 95, elapsed: 0.00021004676818847656
ell 94, elapsed: 0.00021696090698242188
ell 93, elapsed: 0.0002148151397705078
ell 92, elapsed: 0.00021004676818847656
ell 91, elapsed: 0.00021505355834960938
ell 90, elapsed: 0.00021600723266601562
ell 89, elapsed: 0.0002129077911376953
ell 88, elapsed: 0.00021004676818847656
ell 87, elapsed: 0.00021409988403320312
ell 86, elapsed: 0.00021600723266601562
ell 85, elapsed: 0.00020885467529296875
ell 84, elapsed: 0.00021600723266601562
ell 83, elapsed: 0.00020694732666015625
ell 82, elapsed: 0.00021004676818847656
ell 81, elapsed: 0.0002200603485107422
ell 80, elapsed: 0.00021004676818847656
ell 79, elapsed: 0.0002181529998779297
ell 78, elapsed: 0.0002319812774658203
ell 77, elapsed: 0.00021791458129882812
ell 76, elapsed: 0.00021696090698242188
ell 75, elapsed: 0.0002110004425048828
ell 74, elapsed: 0.0002148151397705078
ell 73, elapsed: 0.00021004676818847656
ell 72, elapsed: 0.0002110004425048828
ell 71, elapsed: 0.00021696090698242188
ell 70, elapsed: 0.0002110004425048828
ell 69, elapsed: 0.0002148151397705078
ell 68, elapsed: 0.00021314620971679688
ell 67, elapsed: 0.00021314620971679688
ell 66, elapsed: 0.0002200603485107422
ell 65, elapsed: 0.0002110004425048828
ell 64, elapsed: 0.00021505355834960938
ell 63, elapsed: 0.0002110004425048828
ell 62, elapsed: 0.00021195411682128906
ell 61, elapsed: 0.00021791458129882812
ell 60, elapsed: 0.00022482872009277344
ell 59, elapsed: 0.00021910667419433594
ell 58, elapsed: 0.00021386146545410156
ell 57, elapsed: 0.0002129077911376953
ell 56, elapsed: 0.00021910667419433594
ell 55, elapsed: 0.0002110004425048828
ell 54, elapsed: 0.00021886825561523438
ell 53, elapsed: 0.00021219253540039062
ell 52, elapsed: 0.00021195411682128906
ell 51, elapsed: 0.0002448558807373047
ell 50, elapsed: 0.0002200603485107422
ell 49, elapsed: 0.0002269744873046875
ell 48, elapsed: 0.00021505355834960938
ell 47, elapsed: 0.0002300739288330078
ell 46, elapsed: 0.0002200603485107422
ell 45, elapsed: 0.0002129077911376953
ell 44, elapsed: 0.00022101402282714844
ell 43, elapsed: 0.00023603439331054688
ell 42, elapsed: 0.00021386146545410156
ell 41, elapsed: 0.00021791458129882812
ell 40, elapsed: 0.00021505355834960938
ell 39, elapsed: 0.0002219676971435547
ell 38, elapsed: 0.0002110004425048828
ell 37, elapsed: 0.00021791458129882812
ell 36, elapsed: 0.00021314620971679688
ell 35, elapsed: 0.000209808349609375
ell 34, elapsed: 0.00021982192993164062
ell 33, elapsed: 0.00021600723266601562
ell 32, elapsed: 0.00021505355834960938
ell 31, elapsed: 0.0002129077911376953
ell 30, elapsed: 0.00021195411682128906
ell 29, elapsed: 0.00021696090698242188
ell 28, elapsed: 0.00021505355834960938
ell 27, elapsed: 0.00021886825561523438
ell 26, elapsed: 0.00022411346435546875
ell 25, elapsed: 0.00021505355834960938
ell 24, elapsed: 0.0002288818359375
ell 23, elapsed: 0.00021696090698242188
ell 22, elapsed: 0.00021791458129882812
ell 21, elapsed: 0.00021505355834960938
ell 20, elapsed: 0.0002238750457763672
ell 19, elapsed: 0.00021982192993164062
ell 18, elapsed: 0.00021696090698242188
ell 17, elapsed: 0.00021982192993164062
ell 16, elapsed: 0.00021886825561523438
ell 15, elapsed: 0.00022101402282714844
ell 14, elapsed: 0.00022077560424804688
ell 13, elapsed: 0.00021791458129882812
ell 12, elapsed: 0.0002231597900390625
ell 11, elapsed: 0.0002281665802001953
ell 10, elapsed: 0.00021505355834960938
ell 9, elapsed: 0.00022101402282714844
ell 8, elapsed: 0.0002989768981933594
ell 7, elapsed: 0.0002579689025878906
ell 6, elapsed: 0.0002391338348388672
ell 5, elapsed: 0.00025391578674316406
ell 4, elapsed: 0.0002319812774658203
ell 3, elapsed: 0.00022411346435546875
ell 2, elapsed: 0.0002307891845703125
ell 1, elapsed: 0.00022602081298828125
ell 0, elapsed: 0.0002219676971435547
  0.077786 seconds (11.51 k allocations: 719.594 KiB)
elapsed: 0.0006508827209472656
step:          0.042634 sec (0 allocations: 0 byte, 0.0% gc time)
swapping:      0.000391 sec (0 allocations: 0 byte, 0.0% gc time)
calc_Mellell!: 0.000532 sec (0 allocations: 0 byte, 0.0% gc time)
  t0 :  0.000148 sec (0 allocations: 0 byte, 0.0% gc time)
  tm2 : 0.008496 sec (0 allocations: 0 byte, 0.0% gc time)
  tm2s: 0.000107 sec (0 allocations: 0 byte, 0.0% gc time)
  tm4 : 0.017477 sec (0 allocations: 0 byte, 0.0% gc time)
  tp2 : 0.0 sec (0 allocations: 0 byte, 0.0% gc time)
  tp2s: 0.0 sec (0 allocations: 0 byte, 0.0% gc time)
  tp4 : 0.0 sec (0 allocations: 0 byte, 0.0% gc time)
calc_wtdll!:   0.026434 sec (1.344 k allocations: 147.0 KB, 0.0% gc time)
calc_wljj!:    0.001129 sec (6 allocations: 96 byte, 0.0% gc time)
mult_prefac!:  0.0 sec (0 allocations: 0 byte, 0.0% gc time)
convert:       0.0 sec (0 allocations: 0 byte, 0.0% gc time)
write:         0.001931 sec (0 allocations: 0 byte, 0.0% gc time)
test_rand_2f1: 0.0 sec (0 allocations: 0 byte, 0.0% gc time)
Closing outfile out/Ml21-cache.bin...   0.000007 seconds
  0.000883 seconds (36 allocations: 27.953 KiB)
make_phi():   0.001744 seconds (8.18 k allocations: 237.844 KiB)
  0.011508 seconds (11.65 k allocations: 308.688 KiB)
tskip:       1.6e-5 sec (0 allocations: 0 byte, 0.0% gc time)
tread:       0.003681 sec (17 allocations: 2.125 KB, 0.0% gc time)
tmultphi:    0.00073 sec (0 allocations: 0 byte, 0.0% gc time)
tbrfft:      0.002642 sec (0 allocations: 0 byte, 0.0% gc time)
tmultprefac: 0.001397 sec (0 allocations: 0 byte, 0.0% gc time)
toutfunc:    0.002827 sec (10.304 k allocations: 196.0 KB, 0.0% gc time)
Testing R=0.9 ... passed
Calculating fmax: 
  dlrec    = 4
  dlrecRg1 = -4
  q=1.1, R=0.8:	  0.175812 seconds (103.21 k allocations: 14.840 MiB)

  0.175977 seconds (103.25 k allocations: 14.874 MiB)
ℓ = 1202
Δℓ = 4
ΔℓRg1 = -4
N = 1600
q = 1.1
kmin = 1.0e-5
kmax = 100000.00000000004
χ0 = 0.023029999999999995
RR = RR.tsv
ℓmax = ℓmax.bin
f21 = f21.bin
kmin = 1.0e-5
kmax = 100000.0
dlrec    = 4
dlrecRg1 = -4
Output size: 5741568 bytes = 0.005347251892089844 GiB
Output size: 51264 bytes = 4.774332046508789e-5 GiB
Reading 'out/F21EllCache'...   0.029181 seconds (197 allocations: 84.203 KiB, 95.92% gc time)
ellmax: 1202
lmaxcache: 1202
fell[:,1,1] = ComplexF64[7.519068145690986e-120 - 1.8416405474382574e-135im, 7.541664537386155e-120 - 1.847175067190611e-135im]
ell 1202, elapsed: 2.5987625122070312e-5
ell 1201, elapsed: 0.0003020763397216797
ell 1200, elapsed: 0.00028204917907714844
ell 1199, elapsed: 0.00028514862060546875
ell 1198, elapsed: 0.0002799034118652344
ell 1002, elapsed: 0.007530927658081055
ell 1001, elapsed: 0.00023794174194335938
ell 1000, elapsed: 0.00022912025451660156
ell 999, elapsed: 0.00022912025451660156
ell 998, elapsed: 0.00022101402282714844
ell 902, elapsed: 0.003731966018676758
ell 901, elapsed: 0.00021910667419433594
ell 900, elapsed: 0.00021696090698242188
ell 899, elapsed: 0.0002181529998779297
ell 898, elapsed: 0.00021791458129882812
ell 802, elapsed: 0.0038008689880371094
ell 801, elapsed: 0.00022101402282714844
ell 800, elapsed: 0.00022602081298828125
ell 799, elapsed: 0.00021600723266601562
ell 798, elapsed: 0.00021505355834960938
ell 702, elapsed: 0.0036630630493164062
ell 701, elapsed: 0.00021791458129882812
ell 700, elapsed: 0.00021696090698242188
ell 699, elapsed: 0.00021886825561523438
ell 698, elapsed: 0.00022101402282714844
ell 602, elapsed: 0.0037000179290771484
ell 601, elapsed: 0.00022292137145996094
ell 600, elapsed: 0.00021600723266601562
ell 599, elapsed: 0.00022602081298828125
ell 598, elapsed: 0.00021791458129882812
ell 502, elapsed: 0.0035581588745117188
ell 501, elapsed: 0.00021696090698242188
ell 500, elapsed: 0.0002048015594482422
ell 499, elapsed: 0.0002048015594482422
ell 498, elapsed: 0.00020599365234375
ell 402, elapsed: 0.0034558773040771484
ell 401, elapsed: 0.00021886825561523438
ell 400, elapsed: 0.0002028942108154297
ell 399, elapsed: 0.0002028942108154297
ell 398, elapsed: 0.00020384788513183594
ell 302, elapsed: 0.0035238265991210938
ell 301, elapsed: 0.00022411346435546875
ell 300, elapsed: 0.00020694732666015625
ell 299, elapsed: 0.00020003318786621094
ell 298, elapsed: 0.00020313262939453125
ell 202, elapsed: 0.0034079551696777344
ell 201, elapsed: 0.00021195411682128906
ell 200, elapsed: 0.0002028942108154297
ell 199, elapsed: 0.0002009868621826172
ell 198, elapsed: 0.00020384788513183594
ell 152, elapsed: 0.0017399787902832031
ell 151, elapsed: 0.00019884109497070312
ell 150, elapsed: 0.00020313262939453125
ell 149, elapsed: 0.00020003318786621094
ell 148, elapsed: 0.0001971721649169922
ell 127, elapsed: 0.0008969306945800781
ell 126, elapsed: 0.0001990795135498047
ell 125, elapsed: 0.00019788742065429688
ell 124, elapsed: 0.0002040863037109375
ell 123, elapsed: 0.0001990795135498047
ell 114, elapsed: 0.0005190372467041016
ell 113, elapsed: 0.0002040863037109375
ell 112, elapsed: 0.0001990795135498047
ell 111, elapsed: 0.00019788742065429688
ell 110, elapsed: 0.00019693374633789062
ell 102, elapsed: 0.0004589557647705078
ell 101, elapsed: 0.00020003318786621094
ell 100, elapsed: 0.00020003318786621094
ell 99, elapsed: 0.00019693374633789062
ell 98, elapsed: 0.00020003318786621094
ell 97, elapsed: 0.0002288818359375
ell 96, elapsed: 0.00022792816162109375
ell 95, elapsed: 0.0002269744873046875
ell 94, elapsed: 0.0002269744873046875
ell 93, elapsed: 0.0002269744873046875
ell 92, elapsed: 0.00022792816162109375
ell 91, elapsed: 0.00024008750915527344
ell 90, elapsed: 0.00023293495178222656
ell 89, elapsed: 0.00022983551025390625
ell 88, elapsed: 0.0002269744873046875
ell 87, elapsed: 0.0002219676971435547
ell 86, elapsed: 0.00022411346435546875
ell 85, elapsed: 0.00021719932556152344
ell 84, elapsed: 0.00021982192993164062
ell 83, elapsed: 0.0002219676971435547
ell 82, elapsed: 0.00022101402282714844
ell 81, elapsed: 0.00022411346435546875
ell 80, elapsed: 0.0002219676971435547
ell 79, elapsed: 0.00021982192993164062
ell 78, elapsed: 0.000225067138671875
ell 77, elapsed: 0.00021696090698242188
ell 76, elapsed: 0.00022101402282714844
ell 75, elapsed: 0.00021910667419433594
ell 74, elapsed: 0.00023293495178222656
ell 73, elapsed: 0.00022912025451660156
ell 72, elapsed: 0.00022220611572265625
ell 71, elapsed: 0.0002269744873046875
ell 70, elapsed: 0.00022482872009277344
ell 69, elapsed: 0.0002300739288330078
ell 68, elapsed: 0.00022983551025390625
ell 67, elapsed: 0.00022411346435546875
ell 66, elapsed: 0.0002319812774658203
ell 65, elapsed: 0.000225067138671875
ell 64, elapsed: 0.00023102760314941406
ell 63, elapsed: 0.00022912025451660156
ell 62, elapsed: 0.000225067138671875
[...]
ell 782, elapsed: 0.0008919239044189453
ell 781, elapsed: 0.0005002021789550781
ell 780, elapsed: 0.0005900859832763672
ell 779, elapsed: 0.0005099773406982422
ell 778, elapsed: 0.0005159378051757812
ell 772, elapsed: 0.0008928775787353516
ell 771, elapsed: 0.0005011558532714844
ell 770, elapsed: 0.0005331039428710938
ell 769, elapsed: 0.0005500316619873047
ell 768, elapsed: 0.0005171298980712891
ell 762, elapsed: 0.0008969306945800781
ell 761, elapsed: 0.0005168914794921875
ell 760, elapsed: 0.0005400180816650391
ell 759, elapsed: 0.0005130767822265625
ell 758, elapsed: 0.0005450248718261719
ell 752, elapsed: 0.0009438991546630859
ell 751, elapsed: 0.0005099773406982422
ell 750, elapsed: 0.0005221366882324219
ell 749, elapsed: 0.0005240440368652344
ell 748, elapsed: 0.0005278587341308594
ell 742, elapsed: 0.0008528232574462891
ell 741, elapsed: 0.0005440711975097656
ell 740, elapsed: 0.0004990100860595703
ell 739, elapsed: 0.00047898292541503906
ell 738, elapsed: 0.0004799365997314453
ell 732, elapsed: 0.0008831024169921875
ell 731, elapsed: 0.0005259513854980469
ell 730, elapsed: 0.0005381107330322266
ell 729, elapsed: 0.0005450248718261719
ell 728, elapsed: 0.0005400180816650391
ell 722, elapsed: 0.0009391307830810547
ell 721, elapsed: 0.0005280971527099609
ell 720, elapsed: 0.0005350112915039062
ell 719, elapsed: 0.0005469322204589844
ell 718, elapsed: 0.000576019287109375
ell 712, elapsed: 0.0009398460388183594
ell 711, elapsed: 0.0005350112915039062
ell 710, elapsed: 0.0005469322204589844
ell 709, elapsed: 0.0005400180816650391
ell 708, elapsed: 0.0005459785461425781
ell 702, elapsed: 0.0009479522705078125
ell 701, elapsed: 0.0005240440368652344
ell 700, elapsed: 0.0005381107330322266
ell 699, elapsed: 0.0005309581756591797
ell 698, elapsed: 0.0005319118499755859
ell 692, elapsed: 0.0009059906005859375
ell 691, elapsed: 0.0005490779876708984
ell 690, elapsed: 0.0004911422729492188
ell 689, elapsed: 0.0004749298095703125
ell 688, elapsed: 0.0005109310150146484
ell 682, elapsed: 0.0008721351623535156
ell 681, elapsed: 0.0004940032958984375
ell 680, elapsed: 0.0005071163177490234
ell 679, elapsed: 0.0005261898040771484
ell 678, elapsed: 0.0005078315734863281
ell 672, elapsed: 0.0008900165557861328
ell 671, elapsed: 0.0004961490631103516
ell 670, elapsed: 0.00049591064453125
ell 669, elapsed: 0.00047206878662109375
ell 668, elapsed: 0.0005512237548828125
ell 662, elapsed: 0.0010378360748291016
ell 661, elapsed: 0.0005660057067871094
ell 660, elapsed: 0.0005500316619873047
ell 659, elapsed: 0.000553131103515625
ell 658, elapsed: 0.0005431175231933594
ell 652, elapsed: 0.0009419918060302734
ell 651, elapsed: 0.0005609989166259766
ell 650, elapsed: 0.0005519390106201172
ell 649, elapsed: 0.0005400180816650391
ell 648, elapsed: 0.0005590915679931641
ell 642, elapsed: 0.0009310245513916016
ell 641, elapsed: 0.0005490779876708984
ell 640, elapsed: 0.0005729198455810547
ell 639, elapsed: 0.0005440711975097656
ell 638, elapsed: 0.0005500316619873047
ell 632, elapsed: 0.0009200572967529297
ell 631, elapsed: 0.0005390644073486328
ell 630, elapsed: 0.0005631446838378906
ell 629, elapsed: 0.0005819797515869141
ell 628, elapsed: 0.0005538463592529297
ell 622, elapsed: 0.0009300708770751953
ell 621, elapsed: 0.0005400180816650391
ell 620, elapsed: 0.0005578994750976562
ell 619, elapsed: 0.0005481243133544922
ell 618, elapsed: 0.0005469322204589844
ell 612, elapsed: 0.0009450912475585938
ell 611, elapsed: 0.0005609989166259766
ell 610, elapsed: 0.0005519390106201172
ell 609, elapsed: 0.0005509853363037109
ell 608, elapsed: 0.0005578994750976562
ell 602, elapsed: 0.0009729862213134766
ell 601, elapsed: 0.0005600452423095703
ell 600, elapsed: 0.0005509853363037109
ell 599, elapsed: 0.0005459785461425781
ell 598, elapsed: 0.0005469322204589844
ell 592, elapsed: 0.0009238719940185547
ell 591, elapsed: 0.0005381107330322266
ell 590, elapsed: 0.0005500316619873047
ell 589, elapsed: 0.0005490779876708984
ell 588, elapsed: 0.0005629062652587891
ell 582, elapsed: 0.0009319782257080078
ell 581, elapsed: 0.0005459785461425781
ell 580, elapsed: 0.0005447864532470703
ell 579, elapsed: 0.0005550384521484375
ell 578, elapsed: 0.0005409717559814453
ell 572, elapsed: 0.0009179115295410156
ell 571, elapsed: 0.0005540847778320312
ell 570, elapsed: 0.0005421638488769531
ell 569, elapsed: 0.0005359649658203125
ell 568, elapsed: 0.0005600452423095703
ell 562, elapsed: 0.0009248256683349609
ell 561, elapsed: 0.0005309581756591797
ell 560, elapsed: 0.0005431175231933594
ell 559, elapsed: 0.0005240440368652344
ell 558, elapsed: 0.0005390644073486328
ell 552, elapsed: 0.0009779930114746094
ell 551, elapsed: 0.0005259513854980469
ell 550, elapsed: 0.0005381107330322266
ell 549, elapsed: 0.0005290508270263672
ell 548, elapsed: 0.0005478858947753906
ell 542, elapsed: 0.0009398460388183594
ell 541, elapsed: 0.0005509853363037109
ell 540, elapsed: 0.0005362033843994141
ell 539, elapsed: 0.0005249977111816406
ell 538, elapsed: 0.0005409717559814453
ell 532, elapsed: 0.0009210109710693359
ell 531, elapsed: 0.0005311965942382812
ell 530, elapsed: 0.0005340576171875
ell 529, elapsed: 0.0006258487701416016
ell 528, elapsed: 0.0005550384521484375
ell 522, elapsed: 0.000926971435546875
ell 521, elapsed: 0.0005309581756591797
ell 520, elapsed: 0.0005431175231933594
ell 519, elapsed: 0.0005300045013427734
ell 518, elapsed: 0.0005631446838378906
ell 512, elapsed: 0.000946044921875
ell 511, elapsed: 0.0005300045013427734
ell 510, elapsed: 0.0005459785461425781
ell 509, elapsed: 0.0005321502685546875
ell 508, elapsed: 0.0005440711975097656
ell 502, elapsed: 0.0010151863098144531
ell 501, elapsed: 0.0005309581756591797
ell 500, elapsed: 0.0005419254302978516
ell 499, elapsed: 0.0005300045013427734
ell 498, elapsed: 0.0005521774291992188
ell 492, elapsed: 0.000949859619140625
ell 491, elapsed: 0.0005879402160644531
ell 490, elapsed: 0.0005500316619873047
ell 489, elapsed: 0.0005419254302978516
ell 488, elapsed: 0.0005359649658203125
ell 482, elapsed: 0.0009510517120361328
ell 481, elapsed: 0.0005450248718261719
ell 480, elapsed: 0.0005669593811035156
ell 479, elapsed: 0.0005369186401367188
ell 478, elapsed: 0.0005400180816650391
ell 472, elapsed: 0.000926971435546875
ell 471, elapsed: 0.0005190372467041016
ell 470, elapsed: 0.0005259513854980469
ell 469, elapsed: 0.0005178451538085938
ell 468, elapsed: 0.0005619525909423828
ell 462, elapsed: 0.0009098052978515625
ell 461, elapsed: 0.0005249977111816406
ell 460, elapsed: 0.0005941390991210938
ell 459, elapsed: 0.0005910396575927734
ell 458, elapsed: 0.0005822181701660156
ell 452, elapsed: 0.0009851455688476562
ell 451, elapsed: 0.0005669593811035156
ell 450, elapsed: 0.0006091594696044922
ell 449, elapsed: 0.0005822181701660156
ell 448, elapsed: 0.0006010532379150391
ell 442, elapsed: 0.0010249614715576172
ell 441, elapsed: 0.0005819797515869141
ell 440, elapsed: 0.0006170272827148438
ell 439, elapsed: 0.0005919933319091797
ell 438, elapsed: 0.0006470680236816406
ell 432, elapsed: 0.0010528564453125
ell 431, elapsed: 0.0005791187286376953
ell 430, elapsed: 0.0005860328674316406
ell 429, elapsed: 0.0006008148193359375
ell 428, elapsed: 0.0006020069122314453
ell 422, elapsed: 0.001020193099975586
ell 421, elapsed: 0.0005869865417480469
ell 420, elapsed: 0.0006260871887207031
ell 419, elapsed: 0.0006229877471923828
ell 418, elapsed: 0.000576019287109375
ell 412, elapsed: 0.0009958744049072266
ell 411, elapsed: 0.0005660057067871094
ell 410, elapsed: 0.0005948543548583984
ell 409, elapsed: 0.0005891323089599609
ell 408, elapsed: 0.0005748271942138672
ell 402, elapsed: 0.0009400844573974609
ell 401, elapsed: 0.0005390644073486328
ell 400, elapsed: 0.0005459785461425781
ell 399, elapsed: 0.0005381107330322266
ell 398, elapsed: 0.000576019287109375
ell 392, elapsed: 0.0009257793426513672
ell 391, elapsed: 0.0005519390106201172
ell 390, elapsed: 0.0005538463592529297
ell 389, elapsed: 0.0005328655242919922
ell 388, elapsed: 0.0005488395690917969
ell 382, elapsed: 0.0009980201721191406
ell 381, elapsed: 0.0005409717559814453
ell 380, elapsed: 0.00055694580078125
ell 379, elapsed: 0.0005500316619873047
ell 378, elapsed: 0.0005631446838378906
ell 372, elapsed: 0.0009801387786865234
ell 371, elapsed: 0.0006120204925537109
ell 370, elapsed: 0.0005609989166259766
ell 369, elapsed: 0.000553131103515625
ell 368, elapsed: 0.0005490779876708984
ell 362, elapsed: 0.0009491443634033203
ell 361, elapsed: 0.0005450248718261719
ell 360, elapsed: 0.0005729198455810547
ell 359, elapsed: 0.0005469322204589844
ell 358, elapsed: 0.0005328655242919922
ell 352, elapsed: 0.0009298324584960938
ell 351, elapsed: 0.0005600452423095703
ell 350, elapsed: 0.0005650520324707031
ell 349, elapsed: 0.0005800724029541016
ell 348, elapsed: 0.0005700588226318359
ell 342, elapsed: 0.0009410381317138672
ell 341, elapsed: 0.0005311965942382812
ell 340, elapsed: 0.0005528926849365234
ell 339, elapsed: 0.0005431175231933594
ell 338, elapsed: 0.0005521774291992188
ell 332, elapsed: 0.0009741783142089844
ell 331, elapsed: 0.000537872314453125
ell 330, elapsed: 0.0005471706390380859
ell 329, elapsed: 0.0005462169647216797
ell 328, elapsed: 0.0005471706390380859
ell 322, elapsed: 0.0009989738464355469
ell 321, elapsed: 0.0005369186401367188
ell 320, elapsed: 0.0005419254302978516
ell 319, elapsed: 0.0005440711975097656
ell 318, elapsed: 0.0005431175231933594
ell 312, elapsed: 0.0009200572967529297
ell 311, elapsed: 0.0005280971527099609
ell 310, elapsed: 0.0005729198455810547
ell 309, elapsed: 0.0005288124084472656
ell 308, elapsed: 0.0005428791046142578
ell 302, elapsed: 0.0009391307830810547
ell 301, elapsed: 0.0005350112915039062
ell 300, elapsed: 0.0005471706390380859
ell 299, elapsed: 0.0005638599395751953
ell 298, elapsed: 0.0005412101745605469
ell 292, elapsed: 0.0009388923645019531
ell 291, elapsed: 0.0005440711975097656
ell 290, elapsed: 0.0005459785461425781
ell 289, elapsed: 0.0005369186401367188
ell 288, elapsed: 0.00057220458984375
ell 282, elapsed: 0.000949859619140625
ell 281, elapsed: 0.0005350112915039062
ell 280, elapsed: 0.0005509853363037109
ell 279, elapsed: 0.0005438327789306641
ell 278, elapsed: 0.0005459785461425781
ell 272, elapsed: 0.0009658336639404297
ell 271, elapsed: 0.0005421638488769531
ell 270, elapsed: 0.0005538463592529297
ell 269, elapsed: 0.0005369186401367188
ell 268, elapsed: 0.0005538463592529297
ell 262, elapsed: 0.0009670257568359375
ell 261, elapsed: 0.0005590915679931641
ell 260, elapsed: 0.0005509853363037109
ell 259, elapsed: 0.0005478858947753906
ell 258, elapsed: 0.0005638599395751953
ell 252, elapsed: 0.000982046127319336
ell 251, elapsed: 0.0005459785461425781
ell 250, elapsed: 0.0005571842193603516
ell 249, elapsed: 0.0005810260772705078
ell 248, elapsed: 0.0005359649658203125
ell 242, elapsed: 0.0009629726409912109
ell 241, elapsed: 0.0005290508270263672
ell 240, elapsed: 0.0005388259887695312
ell 239, elapsed: 0.0005340576171875
ell 238, elapsed: 0.0005807876586914062
ell 232, elapsed: 0.000949859619140625
ell 231, elapsed: 0.0005319118499755859
ell 230, elapsed: 0.0005500316619873047
ell 229, elapsed: 0.0005538463592529297
ell 228, elapsed: 0.0005528926849365234
ell 222, elapsed: 0.0009500980377197266
ell 221, elapsed: 0.0005400180816650391
ell 220, elapsed: 0.0005609989166259766
ell 219, elapsed: 0.0005471706390380859
ell 218, elapsed: 0.0005519390106201172
ell 212, elapsed: 0.0009369850158691406
ell 211, elapsed: 0.0005838871002197266
ell 210, elapsed: 0.0005469322204589844
ell 209, elapsed: 0.0005421638488769531
ell 208, elapsed: 0.0005500316619873047
ell 202, elapsed: 0.0009500980377197266
ell 201, elapsed: 0.0005447864532470703
ell 200, elapsed: 0.0005939006805419922
ell 199, elapsed: 0.0005428791046142578
ell 198, elapsed: 0.000576019287109375
ell 192, elapsed: 0.000926971435546875
ell 191, elapsed: 0.0005261898040771484
ell 190, elapsed: 0.0005328655242919922
ell 189, elapsed: 0.0004990100860595703
ell 188, elapsed: 0.0005581378936767578
ell 182, elapsed: 0.0008749961853027344
ell 181, elapsed: 0.0005049705505371094
ell 180, elapsed: 0.0005199909210205078
ell 179, elapsed: 0.0005180835723876953
ell 178, elapsed: 0.0004889965057373047
ell 172, elapsed: 0.0008819103240966797
ell 171, elapsed: 0.0004799365997314453
ell 170, elapsed: 0.0004849433898925781
ell 169, elapsed: 0.0004749298095703125
ell 168, elapsed: 0.0004940032958984375
ell 162, elapsed: 0.0008380413055419922
ell 161, elapsed: 0.0004889965057373047
ell 160, elapsed: 0.0005362033843994141
ell 159, elapsed: 0.0004899501800537109
ell 158, elapsed: 0.0005199909210205078
ell 152, elapsed: 0.0009028911590576172
ell 151, elapsed: 0.0005280971527099609
ell 150, elapsed: 0.0005440711975097656
ell 149, elapsed: 0.0005431175231933594
ell 148, elapsed: 0.0005810260772705078
ell 142, elapsed: 0.0010020732879638672
ell 141, elapsed: 0.0005381107330322266
ell 140, elapsed: 0.0005650520324707031
ell 139, elapsed: 0.0005440711975097656
ell 138, elapsed: 0.0005550384521484375
ell 132, elapsed: 0.0009469985961914062
ell 131, elapsed: 0.0005221366882324219
ell 130, elapsed: 0.0005280971527099609
ell 129, elapsed: 0.0005261898040771484
ell 128, elapsed: 0.0005350112915039062
ell 122, elapsed: 0.0009169578552246094
ell 121, elapsed: 0.0006210803985595703
ell 120, elapsed: 0.0005271434783935547
ell 119, elapsed: 0.0005221366882324219
ell 118, elapsed: 0.0005350112915039062
ell 112, elapsed: 0.0009200572967529297
ell 111, elapsed: 0.0005240440368652344
ell 110, elapsed: 0.000537872314453125
ell 109, elapsed: 0.0005199909210205078
ell 108, elapsed: 0.0005390644073486328
ell 102, elapsed: 0.000926971435546875
ell 101, elapsed: 0.002234935760498047
ell 100, elapsed: 0.0022377967834472656
ell 99, elapsed: 0.00226593017578125
ell 98, elapsed: 0.0022339820861816406
ell 92, elapsed: 0.004369974136352539
ell 91, elapsed: 0.0023190975189208984
ell 90, elapsed: 0.0022809505462646484
ell 89, elapsed: 0.002254962921142578
ell 88, elapsed: 0.0022530555725097656
ell 82, elapsed: 0.0043659210205078125
ell 81, elapsed: 0.002235889434814453
ell 80, elapsed: 0.0022590160369873047
ell 79, elapsed: 0.002267122268676758
ell 78, elapsed: 0.002223968505859375
ell 72, elapsed: 0.004333972930908203
ell 71, elapsed: 0.0022711753845214844
ell 70, elapsed: 0.002257823944091797
ell 69, elapsed: 0.0022881031036376953
ell 68, elapsed: 0.0022430419921875
ell 62, elapsed: 0.004330873489379883
ell 61, elapsed: 0.002176046371459961
ell 60, elapsed: 0.002279996871948242
ell 59, elapsed: 0.0021390914916992188
ell 58, elapsed: 0.0021491050720214844
ell 52, elapsed: 0.004143953323364258
ell 51, elapsed: 0.002128124237060547
ell 50, elapsed: 0.002187013626098633
ell 49, elapsed: 0.0022079944610595703
ell 48, elapsed: 0.0021660327911376953
ell 42, elapsed: 0.004148960113525391
ell 41, elapsed: 0.002218961715698242
ell 40, elapsed: 0.0021860599517822266
ell 39, elapsed: 0.002256155014038086
ell 38, elapsed: 0.0022051334381103516
ell 32, elapsed: 0.00436091423034668
ell 31, elapsed: 0.002274036407470703
ell 30, elapsed: 0.002262115478515625
ell 29, elapsed: 0.0022509098052978516
ell 28, elapsed: 0.002299070358276367
ell 22, elapsed: 0.00438690185546875
ell 21, elapsed: 0.002274036407470703
ell 20, elapsed: 0.002271890640258789
ell 19, elapsed: 0.002317190170288086
ell 18, elapsed: 0.0022699832916259766
ell 12, elapsed: 0.004438877105712891
ell 11, elapsed: 0.002362966537475586
ell 10, elapsed: 0.0022821426391601562
ell 9, elapsed: 0.002292156219482422
ell 8, elapsed: 0.0022618770599365234
  0.488152 seconds (68.56 k allocations: 12.176 MiB)
elapsed: 0.0026509761810302734
step:          0.041037 sec (0 allocations: 0 byte, 0.0% gc time)
swapping:      0.000385 sec (0 allocations: 0 byte, 0.0% gc time)
calc_Mellell!: 0.019204 sec (0 allocations: 0 byte, 0.0% gc time)
  t0 :  0.00649 sec (0 allocations: 0 byte, 0.0% gc time)
  tm2 : 0.049036 sec (0 allocations: 0 byte, 0.0% gc time)
  tm2s: 0.005513 sec (0 allocations: 0 byte, 0.0% gc time)
  tm4 : 0.110186 sec (0 allocations: 0 byte, 0.0% gc time)
  tp2 : 0.0 sec (0 allocations: 0 byte, 0.0% gc time)
  tp2s: 0.0 sec (0 allocations: 0 byte, 0.0% gc time)
  tp4 : 0.0 sec (0 allocations: 0 byte, 0.0% gc time)
calc_wtdll!:   0.354587 sec (48.6 k allocations: 11.096 MB, 0.0% gc time)
calc_wljj!:    0.018236 sec (69 allocations: 1.078 KB, 0.0% gc time)
mult_prefac!:  0.0 sec (0 allocations: 0 byte, 0.0% gc time)
convert:       0.0 sec (0 allocations: 0 byte, 0.0% gc time)
write:         0.022639 sec (0 allocations: 0 byte, 0.0% gc time)
test_rand_2f1: 0.0 sec (0 allocations: 0 byte, 0.0% gc time)
Closing outfile out/MlCache/MlCache.bin...   0.000008 seconds
xi, l=0, nu=0:   0.274430 seconds (602.91 k allocations: 32.973 MiB, 99.34% compilation time)
xi, l=0, nu=-2:  0.001503 seconds (114 allocations: 148.969 KiB)
Created 'out/xi.tsv'.
  q=1.1, R=0.6:	  0.402177 seconds (264.58 k allocations: 38.109 MiB, 5.03% gc time)
  q=1.1, R=0.7:	  0.455788 seconds (276.43 k allocations: 40.113 MiB, 2.69% gc time)
  q=1.1, R=0.8:	  0.465041 seconds (271.87 k allocations: 39.334 MiB, 2.12% gc time)
  q=1.1, R=0.9:	  0.522998 seconds (266.68 k allocations: 38.464 MiB, 1.08% gc time)
  q=1.1, R=0.998:	 13.993177 seconds (114.96 k allocations: 7.588 MiB)
  q=1.1, R=1.0:	  0.003144 seconds (8.20 k allocations: 704.344 KiB)

ℓ = 1000
Δℓ = 4
ΔℓRg1 = -4
N = 4096
q = 1.1
kmin = 1.0e-5
kmax = 1000.0
χ0 = 0.001
RR = RR.tsv
ℓmax = ℓmax.bin
f21 = f21.bin
kmin = 1.0e-5
kmax = 1000.0
dlrec    = 4
dlrecRg1 = -4
Output size: 1573632 bytes = 0.0014655590057373047 GiB
Output size: 786816 bytes = 0.0007327795028686523 GiB
Reading 'out/F21EllCache'...   0.001229 seconds (198 allocations: 533.078 KiB)
ellmax: 1002
lmaxcache: 1000
fell[:,1,1] = ComplexF64[1.726292812820208e-224 - 4.2281979352226965e-240im, 1.7282693092099638e-224 - 4.233038955177178e-240im]
ell 1002, elapsed: 1.71661376953125e-5
ell 1001, elapsed: 0.0007729530334472656
ell 1000, elapsed: 0.0006890296936035156
ell 999, elapsed: 0.003999948501586914
ell 998, elapsed: 0.0040438175201416016
ell 44, elapsed: 0.5638117790222168
ell 43, elapsed: 0.003815174102783203
ell 42, elapsed: 0.0038270950317382812
ell 41, elapsed: 0.003873109817504883
ell 40, elapsed: 0.0038099288940429688
  0.593546 seconds (4.59 k allocations: 322.266 KiB)
elapsed: 0.0044939517974853516
step:          0.560431 sec (0 allocations: 0 byte, 0.0% gc time)
swapping:      0.000418 sec (0 allocations: 0 byte, 0.0% gc time)
calc_Mellell!: 0.000978 sec (0 allocations: 0 byte, 0.0% gc time)
  t0 :  0.000439 sec (0 allocations: 0 byte, 0.0% gc time)
  tm2 : 0.007248 sec (0 allocations: 0 byte, 0.0% gc time)
  tm2s: 0.000401 sec (0 allocations: 0 byte, 0.0% gc time)
  tm4 : 0.01804 sec (0 allocations: 0 byte, 0.0% gc time)
  tp2 : 0.0 sec (0 allocations: 0 byte, 0.0% gc time)
  tp2s: 0.0 sec (0 allocations: 0 byte, 0.0% gc time)
  tp4 : 0.0 sec (0 allocations: 0 byte, 0.0% gc time)
calc_wtdll!:   0.026321 sec (480 allocations: 52.5 KB, 0.0% gc time)
calc_wljj!:    0.000791 sec (1 allocations: 16 byte, 0.0% gc time)
mult_prefac!:  0.0 sec (0 allocations: 0 byte, 0.0% gc time)
convert:       0.0 sec (0 allocations: 0 byte, 0.0% gc time)
write:         0.000649 sec (0 allocations: 0 byte, 0.0% gc time)
test_rand_2f1: 0.0 sec (0 allocations: 0 byte, 0.0% gc time)
Closing outfile out/MlCache/MlCache.bin...   0.000011 seconds
  0.360626 seconds (38 allocations: 66.859 KiB)
make_phi():   0.006146 seconds (65 allocations: 275.984 KiB)
  0.035787 seconds (11.42 k allocations: 711.960 KiB, 91.31% compilation time)
tskip:       0.0 sec (0 allocations: 0 byte, 0.0% gc time)
tread:       0.000544 sec (17 allocations: 1.266 KB, 0.0% gc time)
tmultphi:    0.000238 sec (0 allocations: 0 byte, 0.0% gc time)
tbrfft:      0.0009 sec (0 allocations: 0 byte, 0.0% gc time)
tmultprefac: 0.000458 sec (0 allocations: 0 byte, 0.0% gc time)
toutfunc:    8.9e-5 sec (0 allocations: 0 byte, 0.0% gc time)
Created 'out/wl42_jj00.tsv'.
Created 'out/wl42_jj02.tsv'.
    Testing TwoFAST tests passed 
