################################################################################
# PkgEval set-up: 2020-10-28T14:32:55.636
#

Julia Version 1.6.0-DEV.1352
Commit 8f71ea7f35 (2020-10-28 02:10 UTC)
Platform Info:
  OS: Linux (x86_64-linux-gnu)
  CPU: AMD EPYC 7502 32-Core Processor
  WORD_SIZE: 64
  LIBM: libopenlibm
  LLVM: libLLVM-11.0.0 (ORCJIT, znver2)
Environment:
  JULIA_DEPOT_PATH = ::/usr/local/share/julia
  JULIA_MAX_NUM_PRECOMPILE_FILES = 9223372036854775807



################################################################################
# Installation: 2020-10-28T14:32:57.225
#

   Resolving package versions...
   Installed Readables ──────────────────── v0.3.3
   Installed CompilerSupportLibraries_jll ─ v0.3.4+0
   Installed Reexport ───────────────────── v0.2.0
   Installed MKL_jll ────────────────────── v2020.2.254+0
   Installed OpenSpecFun_jll ────────────── v0.5.3+4
   Installed GenericSchur ───────────────── v0.4.0
   Installed ArbNumerics ────────────────── v1.2.1
   Installed GenericSVD ─────────────────── v0.3.0
   Installed FFTW ───────────────────────── v1.2.4
   Installed SpecialFunctions ───────────── v0.10.3
   Installed AbstractFFTs ───────────────── v0.5.0
   Installed BinaryProvider ─────────────── v0.5.10
   Installed IntelOpenMP_jll ────────────── v2018.0.3+0
   Installed JLLWrappers ────────────────── v1.1.3
   Installed FFTW_jll ───────────────────── v3.3.9+6
   Installed TwoFAST ────────────────────── v0.1.3
Updating `~/.julia/environments/v1.6/Project.toml`
  [0dd23c3e] + TwoFAST v0.1.3
Updating `~/.julia/environments/v1.6/Manifest.toml`
  [621f4979] + AbstractFFTs v0.5.0
  [7e558dbc] + ArbNumerics v1.2.1
  [b99e7846] + BinaryProvider v0.5.10
  [7a1cc6ca] + FFTW v1.2.4
  [01680d73] + GenericSVD v0.3.0
  [c145ed77] + GenericSchur v0.4.0
  [692b3bcd] + JLLWrappers v1.1.3
  [0d4725de] + Readables v0.3.3
  [189a3867] + Reexport v0.2.0
  [276daf66] + SpecialFunctions v0.10.3
  [0dd23c3e] + TwoFAST v0.1.3
  [e66e0078] + CompilerSupportLibraries_jll v0.3.4+0
  [f5851436] + FFTW_jll v3.3.9+6
  [1d5cc7b8] + IntelOpenMP_jll v2018.0.3+0
  [856f044c] + MKL_jll v2020.2.254+0
  [efe28fd5] + OpenSpecFun_jll v0.5.3+4
  [0dad84c5] + ArgTools
  [56f22d72] + Artifacts
  [2a0f44e3] + Base64
  [ade2ca70] + Dates
  [8bb1440f] + DelimitedFiles
  [f43a241f] + Downloads
  [b77e0a4c] + InteractiveUtils
  [b27032c2] + LibCURL
  [76f85450] + LibGit2
  [8f399da3] + Libdl
  [37e2e46d] + LinearAlgebra
  [56ddb016] + Logging
  [d6f4376e] + Markdown
  [a63ad114] + Mmap
  [44cfe95a] + Pkg
  [de0858da] + Printf
  [3fa0cd96] + REPL
  [9a3f8284] + Random
  [ea8e919c] + SHA
  [9e88b42a] + Serialization
  [6462fe0b] + Sockets
  [fa267f1f] + TOML
  [8dfed614] + Test
  [cf7118a7] + UUIDs
  [4ec0a83e] + Unicode
  [deac9b47] + LibCURL_jll
  [14a3606d] + MozillaCACerts_jll
    Building ArbNumerics → `~/.julia/scratchspaces/44cfe95a-1eb2-52ea-b672-e2afdf69b78f/329a81d67c64e3a51c176a243b6424fbe39213d0/build.log`
    Building FFTW ───────→ `~/.julia/scratchspaces/44cfe95a-1eb2-52ea-b672-e2afdf69b78f/8b7c16b56936047ca41bf25effa137ae0b381ae8/build.log`


################################################################################
# Testing: 2020-10-28T14:33:21.887
#


     Testing TwoFAST
Status `/tmp/jl_Brrk02/Project.toml`
  [7e558dbc] ArbNumerics v1.2.1
  [39dd38d3] Dierckx v0.5.0
  [7a1cc6ca] FFTW v1.2.4
  [276daf66] SpecialFunctions v0.10.3
  [0dd23c3e] TwoFAST v0.1.3
  [8bb1440f] DelimitedFiles
  [37e2e46d] LinearAlgebra
  [56ddb016] Logging
  [8dfed614] Test
Status `/tmp/jl_Brrk02/Manifest.toml`
  [621f4979] AbstractFFTs v0.5.0
  [7e558dbc] ArbNumerics v1.2.1
  [b99e7846] BinaryProvider v0.5.10
  [39dd38d3] Dierckx v0.5.0
  [7a1cc6ca] FFTW v1.2.4
  [01680d73] GenericSVD v0.3.0
  [c145ed77] GenericSchur v0.4.0
  [692b3bcd] JLLWrappers v1.1.3
  [0d4725de] Readables v0.3.3
  [189a3867] Reexport v0.2.0
  [276daf66] SpecialFunctions v0.10.3
  [0dd23c3e] TwoFAST v0.1.3
  [e66e0078] CompilerSupportLibraries_jll v0.3.4+0
  [cd4c43a9] Dierckx_jll v0.0.1+0
  [f5851436] FFTW_jll v3.3.9+6
  [1d5cc7b8] IntelOpenMP_jll v2018.0.3+0
  [856f044c] MKL_jll v2020.2.254+0
  [efe28fd5] OpenSpecFun_jll v0.5.3+4
  [0dad84c5] ArgTools
  [56f22d72] Artifacts
  [2a0f44e3] Base64
  [ade2ca70] Dates
  [8bb1440f] DelimitedFiles
  [f43a241f] Downloads
  [b77e0a4c] InteractiveUtils
  [b27032c2] LibCURL
  [76f85450] LibGit2
  [8f399da3] Libdl
  [37e2e46d] LinearAlgebra
  [56ddb016] Logging
  [d6f4376e] Markdown
  [a63ad114] Mmap
  [44cfe95a] Pkg
  [de0858da] Printf
  [3fa0cd96] REPL
  [9a3f8284] Random
  [ea8e919c] SHA
  [9e88b42a] Serialization
  [6462fe0b] Sockets
  [fa267f1f] TOML
  [8dfed614] Test
  [cf7118a7] UUIDs
  [4ec0a83e] Unicode
  [deac9b47] LibCURL_jll
  [14a3606d] MozillaCACerts_jll
     Testing Running tests...
WARNING: could not import Printf.ini_hex into ArbNumerics
WARNING: could not import Printf.ini_HEX into ArbNumerics
t = 0.0 sec (0 allocations: 0 byte, 0.0% gc time)
typeof(t) = NamedTuple{(:value, :time, :bytes, :gctime, :gcstats), Tuple{DataType, Float64, Int64, Float64, Base.GC_Diff}}
TwoFAST.PerformanceStats.TimedType = Union{NamedTuple{(:value, :time, :bytes, :gctime, :gcstats), Tuple{T, Float64, Int64, Float64, Base.GC_Diff}}, Tuple{Any, Float64, Int64, Float64, Base.GC_Diff}} where T
t = 0.0 sec (0 allocations: 0 byte, 0.0% gc time)
t: 0.0 sec (0 allocations: 0 byte, 0.0% gc time)
Testing ξ(r), ℓ=0, ν=-1 ... passed
Testing ξ(r), ℓ=0, ν=0 ... passed
Testing ξ(r), ℓ=0, ν=1 ... passed
Testing ξ(r), ℓ=0, ν=2 ... passed
Testing ξ(r), ℓ=0, ν=3 ... passed
Testing ξ(r), ℓ=1, ν=0 ... passed
Testing ξ(r), ℓ=1, ν=1 ... passed
Testing ξ(r), ℓ=1, ν=2 ... passed
Testing ξ(r), ℓ=1, ν=3 ... passed
Testing ξ(r), ℓ=2, ν=-1 ... passed
Testing ξ(r), ℓ=2, ν=0 ... passed
Testing ξ(r), ℓ=2, ν=1 ... passed
Testing ξ(r), ℓ=2, ν=2 ... passed
Testing ξ(r), ℓ=2, ν=3 ... passed
Testing ξ(r), ℓ=3, ν=-1 ... passed
Testing ξ(r), ℓ=3, ν=0 ... passed
Testing ξ(r), ℓ=3, ν=1 ... passed
Testing ξ(r), ℓ=3, ν=2 ... passed
Testing ξ(r), ℓ=3, ν=3 ... passed
Testing ξ(r), ℓ=4, ν=-1 ... passed
Testing ξ(r), ℓ=4, ν=0 ... passed
Testing ξ(r), ℓ=4, ν=1 ... passed
Testing ξ(r), ℓ=4, ν=2 ... passed
Testing ξ(r), ℓ=4, ν=3 ... passed
Testing ξ(r) ... passed
Testing ξ′(r) ... passed
Testing ξ″(r) ... passed
Calculating fmax: 
  dlrec    = 4
  dlrecRg1 = -4
  q=1.1, R=1.1:	  3.424473 seconds (858.78 k allocations: 55.090 MiB, 1.05% gc time, 92.53% compilation time)

  3.424671 seconds (858.84 k allocations: 55.125 MiB, 1.05% gc time, 92.53% compilation time)
ℓ = 1202
Δℓ = 4
ΔℓRg1 = -4
N = 1600
q = 1.1
kmin = 1.0e-5
kmax = 100000.00000000004
χ0 = 0.023029999999999995
RR = RR.tsv
ℓmax = ℓmax.bin
f21 = f21.bin
kmin = 1.0e-5
kmax = 100000.0
dlrec    = 4
dlrecRg1 = -4
Output size: 5741568 bytes = 0.005347251892089844 GiB
Output size: 51264 bytes = 4.774332046508789e-5 GiB
Reading 'out/F21EllCache'...   0.651114 seconds (433.74 k allocations: 25.621 MiB, 2.87% gc time, 98.26% compilation time)
ellmax: 1202
lmaxcache: 1202
fell[:,1,1] = ComplexF64[3.9583795592771634e-52 - 9.695233714158177e-68im, 3.990121772925759e-52 - 9.772979714843386e-68im]
ell 1202, elapsed: 4.00543212890625e-5
ell 1201, elapsed: 1.0760290622711182
ell 1200, elapsed: 0.0004360675811767578
ell 1199, elapsed: 0.0004010200500488281
ell 1198, elapsed: 0.0004010200500488281
ell 1002, elapsed: 0.00855708122253418
ell 1001, elapsed: 0.0003840923309326172
ell 1000, elapsed: 0.00037598609924316406
ell 999, elapsed: 0.00039196014404296875
ell 998, elapsed: 0.00037980079650878906
ell 902, elapsed: 0.004427909851074219
ell 901, elapsed: 0.003993034362792969
ell 900, elapsed: 0.0004088878631591797
ell 899, elapsed: 0.00038504600524902344
ell 898, elapsed: 0.00038313865661621094
ell 802, elapsed: 0.0045108795166015625
ell 801, elapsed: 0.00039196014404296875
ell 800, elapsed: 0.0003840923309326172
ell 799, elapsed: 0.00038695335388183594
ell 798, elapsed: 0.0003859996795654297
ell 702, elapsed: 0.004419088363647461
ell 701, elapsed: 0.0004000663757324219
ell 700, elapsed: 0.00038504600524902344
ell 699, elapsed: 0.00038504600524902344
ell 698, elapsed: 0.00041413307189941406
ell 602, elapsed: 0.0044400691986083984
ell 601, elapsed: 0.0003879070281982422
ell 600, elapsed: 0.0003781318664550781
ell 599, elapsed: 0.000392913818359375
ell 598, elapsed: 0.0003819465637207031
ell 502, elapsed: 0.00444793701171875
ell 501, elapsed: 0.0004000663757324219
ell 500, elapsed: 0.0003848075866699219
ell 499, elapsed: 0.0004150867462158203
ell 498, elapsed: 0.0003819465637207031
ell 402, elapsed: 0.004419088363647461
ell 401, elapsed: 0.0003838539123535156
ell 400, elapsed: 0.0003948211669921875
ell 399, elapsed: 0.0003819465637207031
ell 398, elapsed: 0.0003809928894042969
ell 302, elapsed: 0.004352092742919922
ell 301, elapsed: 0.00038886070251464844
ell 300, elapsed: 0.0003859996795654297
ell 299, elapsed: 0.0004138946533203125
ell 298, elapsed: 0.0003840923309326172
ell 202, elapsed: 0.0044629573822021484
ell 201, elapsed: 0.00039005279541015625
ell 200, elapsed: 0.00039196014404296875
ell 199, elapsed: 0.0003859996795654297
ell 198, elapsed: 0.0003979206085205078
ell 152, elapsed: 0.002343893051147461
ell 151, elapsed: 0.0003871917724609375
ell 150, elapsed: 0.0003859996795654297
ell 149, elapsed: 0.00038695335388183594
ell 148, elapsed: 0.00038695335388183594
ell 127, elapsed: 0.0012781620025634766
ell 126, elapsed: 0.00043702125549316406
ell 125, elapsed: 0.00039005279541015625
ell 124, elapsed: 0.0003840923309326172
ell 123, elapsed: 0.00038504600524902344
ell 114, elapsed: 0.000762939453125
ell 113, elapsed: 0.0003819465637207031
ell 112, elapsed: 0.0003809928894042969
ell 111, elapsed: 0.0003879070281982422
ell 110, elapsed: 0.0004172325134277344
ell 102, elapsed: 0.0007309913635253906
ell 101, elapsed: 0.0003898143768310547
ell 100, elapsed: 0.00038886070251464844
ell 99, elapsed: 0.0003829002380371094
ell 98, elapsed: 0.0003829002380371094
ell 97, elapsed: 0.0004379749298095703
ell 96, elapsed: 0.00041794776916503906
ell 95, elapsed: 0.0004191398620605469
ell 94, elapsed: 0.0004870891571044922
ell 93, elapsed: 0.0004200935363769531
ell 92, elapsed: 0.00043010711669921875
ell 91, elapsed: 0.0004241466522216797
ell 90, elapsed: 0.00043702125549316406
ell 89, elapsed: 0.0004329681396484375
ell 88, elapsed: 0.0004279613494873047
ell 87, elapsed: 0.0004298686981201172
ell 86, elapsed: 0.00042510032653808594
ell 85, elapsed: 0.0004830360412597656
ell 84, elapsed: 0.0004189014434814453
ell 83, elapsed: 0.0004229545593261719
ell 82, elapsed: 0.0004260540008544922
ell 81, elapsed: 0.0004248619079589844
ell 80, elapsed: 0.0004439353942871094
ell 79, elapsed: 0.0004210472106933594
ell 78, elapsed: 0.00042319297790527344
ell 77, elapsed: 0.0004291534423828125
ell 76, elapsed: 0.00045490264892578125
ell 75, elapsed: 0.000431060791015625
ell 74, elapsed: 0.00041985511779785156
ell 73, elapsed: 0.00041484832763671875
ell 72, elapsed: 0.0004291534423828125
ell 71, elapsed: 0.0004100799560546875
ell 70, elapsed: 0.0004260540008544922
ell 69, elapsed: 0.0004208087921142578
ell 68, elapsed: 0.0004200935363769531
ell 67, elapsed: 0.0004520416259765625
ell 66, elapsed: 0.00042319297790527344
ell 65, elapsed: 0.0005209445953369141
ell 64, elapsed: 0.00042319297790527344
ell 63, elapsed: 0.0004119873046875
ell 62, elapsed: 0.00041985511779785156
ell 61, elapsed: 0.00040912628173828125
ell 60, elapsed: 0.00041484832763671875
ell 59, elapsed: 0.0004260540008544922
ell 58, elapsed: 0.0004971027374267578
ell 57, elapsed: 0.0004279613494873047
ell 56, elapsed: 0.0004608631134033203
ell 55, elapsed: 0.0004239082336425781
ell 54, elapsed: 0.00041794776916503906
ell 53, elapsed: 0.0004169940948486328
ell 52, elapsed: 0.0004220008850097656
ell 51, elapsed: 0.0004241466522216797
ell 50, elapsed: 0.00045680999755859375
ell 49, elapsed: 0.0004298686981201172
ell 48, elapsed: 0.0004150867462158203
ell 47, elapsed: 0.0004260540008544922
ell 46, elapsed: 0.0004189014434814453
ell 45, elapsed: 0.0004248619079589844
ell 44, elapsed: 0.0004220008850097656
ell 43, elapsed: 0.00042510032653808594
ell 42, elapsed: 0.00041604042053222656
ell 41, elapsed: 0.0004191398620605469
ell 40, elapsed: 0.0004658699035644531
ell 39, elapsed: 0.0004220008850097656
ell 38, elapsed: 0.00042510032653808594
ell 37, elapsed: 0.00043201446533203125
ell 36, elapsed: 0.0004191398620605469
ell 35, elapsed: 0.00042700767517089844
ell 34, elapsed: 0.000415802001953125
ell 33, elapsed: 0.0004229545593261719
ell 32, elapsed: 0.0004169940948486328
ell 31, elapsed: 0.0004429817199707031
ell 30, elapsed: 0.0004210472106933594
ell 29, elapsed: 0.0004200935363769531
ell 28, elapsed: 0.00042700767517089844
ell 27, elapsed: 0.0004241466522216797
ell 26, elapsed: 0.0004210472106933594
ell 25, elapsed: 0.0004260540008544922
ell 24, elapsed: 0.0004220008850097656
ell 23, elapsed: 0.00043392181396484375
ell 22, elapsed: 0.0004439353942871094
ell 21, elapsed: 0.0004241466522216797
ell 20, elapsed: 0.0004439353942871094
ell 19, elapsed: 0.0004260540008544922
ell 18, elapsed: 0.00042700767517089844
ell 17, elapsed: 0.0004189014434814453
ell 16, elapsed: 0.0004239082336425781
ell 15, elapsed: 0.0004169940948486328
ell 14, elapsed: 0.0004279613494873047
ell 13, elapsed: 0.00042891502380371094
ell 12, elapsed: 0.00042700767517089844
ell 11, elapsed: 0.0004258155822753906
ell 10, elapsed: 0.00042891502380371094
ell 9, elapsed: 0.00041985511779785156
ell 8, elapsed: 0.0004298686981201172
ell 7, elapsed: 0.0004208087921142578
ell 6, elapsed: 0.0004279613494873047
ell 5, elapsed: 0.00045108795166015625
ell 4, elapsed: 0.000431060791015625
ell 3, elapsed: 0.0004291534423828125
ell 2, elapsed: 0.0004229545593261719
ell 1, elapsed: 0.00043201446533203125
ell 0, elapsed: 0.00043010711669921875
  1.520639 seconds (1.40 M allocations: 76.281 MiB, 1.43% gc time, 92.04% compilation time)
elapsed: 0.000514984130859375
step:          0.286129 sec (315.761 k allocations: 17.395 MB, 0.0% gc time)
swapping:      0.000311 sec (0 allocations: 0 byte, 0.0% gc time)
calc_Mellell!: 0.122506 sec (137.693 k allocations: 7.624 MB, 0.0% gc time)
  t0 :  0.0 sec (0 allocations: 0 byte, 0.0% gc time)
  tm2 : 0.0 sec (0 allocations: 0 byte, 0.0% gc time)
  tm2s: 0.0 sec (0 allocations: 0 byte, 0.0% gc time)
  tm4 : 0.0 sec (0 allocations: 0 byte, 0.0% gc time)
  tp2 : 0.0 sec (0 allocations: 0 byte, 0.0% gc time)
  tp2s: 0.0 sec (0 allocations: 0 byte, 0.0% gc time)
  tp4 : 0.0 sec (0 allocations: 0 byte, 0.0% gc time)
calc_wtdll!:   0.771795 sec (515.0 k allocations: 28.644 MB, 2.81% gc time)
calc_wljj!:    0.001961 sec (6 allocations: 96 byte, 0.0% gc time)
mult_prefac!:  0.0 sec (0 allocations: 0 byte, 0.0% gc time)
convert:       0.0 sec (0 allocations: 0 byte, 0.0% gc time)
write:         0.002953 sec (0 allocations: 0 byte, 0.0% gc time)
test_rand_2f1: 0.0 sec (0 allocations: 0 byte, 0.0% gc time)
Closing outfile out/Ml21-cache.bin...   0.000011 seconds
  0.929144 seconds (251.73 k allocations: 14.638 MiB, 1.77% gc time, 40.81% compilation time)
make_phi():   0.009397 seconds (8.19 k allocations: 238.078 KiB)
  0.247150 seconds (89.37 k allocations: 4.883 MiB, 95.43% compilation time)
tskip:       1.9e-5 sec (0 allocations: 0 byte, 0.0% gc time)
tread:       0.002262 sec (17 allocations: 2.125 KB, 0.0% gc time)
tmultphi:    0.049227 sec (22.005 k allocations: 1.33 MB, 0.0% gc time)
tbrfft:      0.002968 sec (0 allocations: 0 byte, 0.0% gc time)
tmultprefac: 0.001453 sec (0 allocations: 0 byte, 0.0% gc time)
toutfunc:    0.150556 sec (65.704 k allocations: 3.421 MB, 0.0% gc time)
Testing R=1.1 ... passed
Calculating fmax: 
  dlrec    = 4
  dlrecRg1 = -4
  q=1.1, R=1.0:	  0.001216 seconds (3.20 k allocations: 275.344 KiB)

  0.002003 seconds (3.25 k allocations: 310.250 KiB)
ℓ = 1202
Δℓ = 4
ΔℓRg1 = -4
N = 1600
q = 1.1
kmin = 1.0e-5
kmax = 100000.00000000004
χ0 = 0.023029999999999995
RR = RR.tsv
ℓmax = ℓmax.bin
f21 = f21.bin
kmin = 1.0e-5
kmax = 100000.0
dlrec    = 4
dlrecRg1 = -4
Output size: 61465536 bytes = 0.05724424123764038 GiB
Output size: 51264 bytes = 4.774332046508789e-5 GiB
Reading 'out/F21EllCache'...   0.000801 seconds (197 allocations: 84.203 KiB)
ellmax: 1202
lmaxcache: 1202
fell[:,1,1] = ComplexF64[809.6031528389767 - 1.9829558194077161e-13im, 0.0 + 0.0im]
ell 1202, elapsed: 2.002716064453125e-5
ell 1201, elapsed: 0.014210939407348633
ell 1200, elapsed: 0.01491999626159668
ell 1199, elapsed: 0.00026798248291015625
ell 1198, elapsed: 0.00026798248291015625
ell 1197, elapsed: 0.00034618377685546875
ell 1196, elapsed: 0.000308990478515625
ell 1195, elapsed: 0.0003008842468261719
ell 1194, elapsed: 0.00030517578125
ell 1193, elapsed: 0.00030612945556640625
ell 1192, elapsed: 0.0003039836883544922
ell 1191, elapsed: 0.0003001689910888672
ell 1190, elapsed: 0.00030803680419921875
ell 1189, elapsed: 0.00039196014404296875
ell 1188, elapsed: 0.00035500526428222656
ell 1187, elapsed: 0.00034117698669433594
ell 1186, elapsed: 0.00035381317138671875
ell 1185, elapsed: 0.0003638267517089844
ell 1184, elapsed: 0.0003509521484375
ell 1183, elapsed: 0.0003609657287597656
ell 1182, elapsed: 0.0003647804260253906
ell 1181, elapsed: 0.0003528594970703125
ell 1180, elapsed: 0.0003631114959716797
ell 1179, elapsed: 0.0003540515899658203
ell 1178, elapsed: 0.0003750324249267578
ell 1177, elapsed: 0.00035500526428222656
ell 1176, elapsed: 0.0003521442413330078
ell 1175, elapsed: 0.0003581047058105469
ell 1174, elapsed: 0.00040912628173828125
ell 1173, elapsed: 0.0003840923309326172
ell 1172, elapsed: 0.0003521442413330078
ell 1171, elapsed: 0.0003628730773925781
ell 1170, elapsed: 0.0003609657287597656
ell 1169, elapsed: 0.00035190582275390625
ell 1168, elapsed: 0.00035691261291503906
ell 1167, elapsed: 0.0003600120544433594
ell 1166, elapsed: 0.00039696693420410156
ell 1165, elapsed: 0.000370025634765625
ell 1164, elapsed: 0.00036215782165527344
ell 1163, elapsed: 0.0003590583801269531
ell 1162, elapsed: 0.0003490447998046875
ell 1161, elapsed: 0.0003578662872314453
ell 1160, elapsed: 0.0003590583801269531
ell 1159, elapsed: 0.00036597251892089844
ell 1158, elapsed: 0.0003719329833984375
ell 1157, elapsed: 0.0003371238708496094
ell 1156, elapsed: 0.0003540515899658203
ell 1155, elapsed: 0.00038886070251464844
ell 1154, elapsed: 0.00034499168395996094
ell 1153, elapsed: 0.00034499168395996094
ell 1152, elapsed: 0.0003628730773925781
ell 1151, elapsed: 0.0003871917724609375
ell 1150, elapsed: 0.0003781318664550781
ell 1149, elapsed: 0.0003581047058105469
ell 1148, elapsed: 0.0003688335418701172
ell 1147, elapsed: 0.0003597736358642578
ell 1146, elapsed: 0.0003600120544433594
ell 1145, elapsed: 0.0003590583801269531
ell 1144, elapsed: 0.0003571510314941406
ell 1143, elapsed: 0.0004050731658935547
ell 1142, elapsed: 0.0003528594970703125
ell 1141, elapsed: 0.0003600120544433594
ell 1140, elapsed: 0.0003650188446044922
ell 1139, elapsed: 0.0003559589385986328
ell 1138, elapsed: 0.0003669261932373047
ell 1137, elapsed: 0.00036406517028808594
ell 1136, elapsed: 0.0003669261932373047
ell 1135, elapsed: 0.00035691261291503906
ell 1134, elapsed: 0.00037407875061035156
ell 1133, elapsed: 0.0003578662872314453
ell 1132, elapsed: 0.0003399848937988281
ell 1131, elapsed: 0.0003631114959716797
ell 1130, elapsed: 0.0003399848937988281
ell 1129, elapsed: 0.0003631114959716797
ell 1128, elapsed: 0.0003809928894042969
ell 1127, elapsed: 0.00037598609924316406
ell 1126, elapsed: 0.0003681182861328125
ell 1125, elapsed: 0.00035691261291503906
ell 1124, elapsed: 0.00034117698669433594
ell 1123, elapsed: 0.0003681182861328125
ell 1122, elapsed: 0.00035309791564941406
ell 1121, elapsed: 0.0003619194030761719
ell 1120, elapsed: 0.00034809112548828125
ell 1119, elapsed: 0.00035500526428222656
ell 1118, elapsed: 0.0003490447998046875
ell 1117, elapsed: 0.0003669261932373047
ell 1116, elapsed: 0.0003597736358642578
ell 1115, elapsed: 0.0003609657287597656
ell 1114, elapsed: 0.0003490447998046875
ell 1113, elapsed: 0.00036907196044921875
ell 1112, elapsed: 0.0003559589385986328
ell 1111, elapsed: 0.0003190040588378906
ell 1110, elapsed: 0.0003590583801269531
ell 1109, elapsed: 0.0003120899200439453
ell 1108, elapsed: 0.0003120899200439453
ell 1107, elapsed: 0.0003352165222167969
ell 1106, elapsed: 0.00031495094299316406
ell 1105, elapsed: 0.00029397010803222656
ell 1104, elapsed: 0.0002942085266113281
ell 1103, elapsed: 0.0003299713134765625
ell 1102, elapsed: 0.00029397010803222656
ell 1101, elapsed: 0.0003020763397216797
ell 1100, elapsed: 0.0002911090850830078
ell 1099, elapsed: 0.0002989768981933594
ell 1098, elapsed: 0.0003139972686767578
ell 1097, elapsed: 0.0002980232238769531
ell 1096, elapsed: 0.0003070831298828125
ell 1095, elapsed: 0.0002961158752441406
ell 1094, elapsed: 0.0002949237823486328
ell 1093, elapsed: 0.0003070831298828125
ell 1092, elapsed: 0.0002970695495605469
ell 1091, elapsed: 0.00030684471130371094
ell 1090, elapsed: 0.0003440380096435547
ell 1089, elapsed: 0.0002980232238769531
ell 1088, elapsed: 0.00032401084899902344
ell 1087, elapsed: 0.00030303001403808594
ell 1086, elapsed: 0.0003190040588378906
ell 1085, elapsed: 0.0002999305725097656
ell 1084, elapsed: 0.000308990478515625
ell 1083, elapsed: 0.0002999305725097656
ell 1082, elapsed: 0.00030493736267089844
ell 1081, elapsed: 0.0003058910369873047
ell 1080, elapsed: 0.0003001689910888672
ell 1079, elapsed: 0.00030612945556640625
ell 1078, elapsed: 0.000331878662109375
ell 1077, elapsed: 0.0002989768981933594
ell 1076, elapsed: 0.00030684471130371094
ell 1075, elapsed: 0.0002989768981933594
ell 1074, elapsed: 0.0003058910369873047
ell 1073, elapsed: 0.00030684471130371094
ell 1072, elapsed: 0.0003027915954589844
ell 1071, elapsed: 0.000308990478515625
ell 1070, elapsed: 0.00030303001403808594
ell 1069, elapsed: 0.0003108978271484375
ell 1068, elapsed: 0.000308990478515625
ell 1067, elapsed: 0.0003101825714111328
ell 1066, elapsed: 0.0003440380096435547
ell 1065, elapsed: 0.0003039836883544922
ell 1064, elapsed: 0.000308990478515625
ell 1063, elapsed: 0.0003139972686767578
ell 1062, elapsed: 0.0003001689910888672
ell 1061, elapsed: 0.0003120899200439453
ell 1060, elapsed: 0.0003039836883544922
ell 1059, elapsed: 0.0003108978271484375
ell 1058, elapsed: 0.00030303001403808594
ell 1057, elapsed: 0.0002989768981933594
ell 1056, elapsed: 0.00030994415283203125
ell 1055, elapsed: 0.00030422210693359375
ell 1054, elapsed: 0.0003879070281982422
ell 1053, elapsed: 0.00029587745666503906
ell 1052, elapsed: 0.00029397010803222656
ell 1051, elapsed: 0.00030303001403808594
ell 1050, elapsed: 0.0002989768981933594
ell 1049, elapsed: 0.0003077983856201172
ell 1048, elapsed: 0.00030112266540527344
ell 1047, elapsed: 0.0002980232238769531
ell 1046, elapsed: 0.0003218650817871094
ell 1045, elapsed: 0.00030612945556640625
ell 1044, elapsed: 0.0003159046173095703
ell 1043, elapsed: 0.0003108978271484375
ell 1042, elapsed: 0.00032401084899902344
ell 1041, elapsed: 0.0003108978271484375
ell 1040, elapsed: 0.0003058910369873047
ell 1039, elapsed: 0.0003108978271484375
ell 1038, elapsed: 0.0002970695495605469
ell 1037, elapsed: 0.0002980232238769531
ell 1036, elapsed: 0.0003070831298828125
ell 1035, elapsed: 0.0003039836883544922
ell 1034, elapsed: 0.00031685829162597656
ell 1033, elapsed: 0.0003039836883544922
ell 1032, elapsed: 0.00030493736267089844
ell 1031, elapsed: 0.0003170967102050781
ell 1030, elapsed: 0.000308990478515625
ell 1029, elapsed: 0.00031495094299316406
ell 1028, elapsed: 0.0003151893615722656
ell 1027, elapsed: 0.0003108978271484375
ell 1026, elapsed: 0.0003108978271484375
ell 1025, elapsed: 0.00030994415283203125
ell 1024, elapsed: 0.00031495094299316406
ell 1023, elapsed: 0.0003561973571777344
ell 1022, elapsed: 0.0003559589385986328
ell 1021, elapsed: 0.0003399848937988281
ell 1020, elapsed: 0.00035500526428222656
ell 1019, elapsed: 0.0003771781921386719
ell 1018, elapsed: 0.00043010711669921875
ell 1017, elapsed: 0.0003650188446044922
ell 1016, elapsed: 0.0003719329833984375
ell 1015, elapsed: 0.00035500526428222656
ell 1014, elapsed: 0.0003631114959716797
ell 1013, elapsed: 0.0003540515899658203
ell 1012, elapsed: 0.0003800392150878906
ell 1011, elapsed: 0.0003540515899658203
ell 1010, elapsed: 0.0003528594970703125
ell 1009, elapsed: 0.0003650188446044922
ell 1008, elapsed: 0.00035381317138671875
ell 1007, elapsed: 0.00036215782165527344
ell 1006, elapsed: 0.00036787986755371094
ell 1005, elapsed: 0.0003609657287597656
ell 1004, elapsed: 0.0003910064697265625
ell 1003, elapsed: 0.0003600120544433594
ell 1002, elapsed: 0.0003528594970703125
ell 1001, elapsed: 0.00035381317138671875
ell 1000, elapsed: 0.0003581047058105469
ell 999, elapsed: 0.0003650188446044922
ell 998, elapsed: 0.00035500526428222656
ell 997, elapsed: 0.00036597251892089844
ell 996, elapsed: 0.0003848075866699219
ell 995, elapsed: 0.0003581047058105469
ell 994, elapsed: 0.0003790855407714844
ell 993, elapsed: 0.0003590583801269531
ell 992, elapsed: 0.0003628730773925781
ell 991, elapsed: 0.0003590583801269531
ell 990, elapsed: 0.00036907196044921875
ell 989, elapsed: 0.0003559589385986328
ell 988, elapsed: 0.00036406517028808594
ell 987, elapsed: 0.0003609657287597656
ell 986, elapsed: 0.00035190582275390625
ell 985, elapsed: 0.0003590583801269531
ell 984, elapsed: 0.0003688335418701172
ell 983, elapsed: 0.0003600120544433594
ell 982, elapsed: 0.0003631114959716797
ell 981, elapsed: 0.0003619194030761719
ell 980, elapsed: 0.0003597736358642578
ell 979, elapsed: 0.0003559589385986328
ell 978, elapsed: 0.00035309791564941406
ell 977, elapsed: 0.00035691261291503906
ell 976, elapsed: 0.0003521442413330078
ell 975, elapsed: 0.0003681182861328125
ell 974, elapsed: 0.0003559589385986328
ell 973, elapsed: 0.0003910064697265625
ell 972, elapsed: 0.0003669261932373047
ell 971, elapsed: 0.00039315223693847656
ell 970, elapsed: 0.00036215782165527344
ell 969, elapsed: 0.0003609657287597656
ell 968, elapsed: 0.0003619194030761719
ell 967, elapsed: 0.0003681182861328125
ell 966, elapsed: 0.0003650188446044922
ell 965, elapsed: 0.0004000663757324219
ell 964, elapsed: 0.0003600120544433594
ell 963, elapsed: 0.0003581047058105469
ell 962, elapsed: 0.0003809928894042969
ell 961, elapsed: 0.00036597251892089844
ell 960, elapsed: 0.0003731250762939453
ell 959, elapsed: 0.0003571510314941406
ell 958, elapsed: 0.0003609657287597656
ell 957, elapsed: 0.0003819465637207031
ell 956, elapsed: 0.0003581047058105469
ell 955, elapsed: 0.0003631114959716797
ell 954, elapsed: 0.0003581047058105469
ell 953, elapsed: 0.0003600120544433594
ell 952, elapsed: 0.00037217140197753906
ell 951, elapsed: 0.00035691261291503906
ell 950, elapsed: 0.0003631114959716797
ell 949, elapsed: 0.0003478527069091797
ell 948, elapsed: 0.00035309791564941406
ell 947, elapsed: 0.0003650188446044922
ell 946, elapsed: 0.00035190582275390625
ell 945, elapsed: 0.0003612041473388672
ell 944, elapsed: 0.0003571510314941406
ell 943, elapsed: 0.0003638267517089844
ell 942, elapsed: 0.0004210472106933594
ell 941, elapsed: 0.0003650188446044922
ell 940, elapsed: 0.0003800392150878906
ell 939, elapsed: 0.0003490447998046875
ell 938, elapsed: 0.0003559589385986328
ell 937, elapsed: 0.0003638267517089844
ell 936, elapsed: 0.0003540515899658203
ell 935, elapsed: 0.00037217140197753906
ell 934, elapsed: 0.00041413307189941406
ell 933, elapsed: 0.00035881996154785156
ell 932, elapsed: 0.0003619194030761719
ell 931, elapsed: 0.00035691261291503906
ell 930, elapsed: 0.0003590583801269531
ell 929, elapsed: 0.0003521442413330078
ell 928, elapsed: 0.00035381317138671875
ell 927, elapsed: 0.0003600120544433594
ell 926, elapsed: 0.00037407875061035156
ell 925, elapsed: 0.00036215782165527344
ell 924, elapsed: 0.0003662109375
ell 923, elapsed: 0.0003619194030761719
ell 922, elapsed: 0.00035500526428222656
ell 921, elapsed: 0.0003490447998046875
ell 920, elapsed: 0.0003609657287597656
ell 919, elapsed: 0.00035309791564941406
ell 918, elapsed: 0.0003960132598876953
ell 917, elapsed: 0.0003559589385986328
ell 916, elapsed: 0.0003521442413330078
ell 915, elapsed: 0.0003609657287597656
ell 914, elapsed: 0.00035500526428222656
ell 913, elapsed: 0.0003631114959716797
ell 912, elapsed: 0.0003509521484375
ell 911, elapsed: 0.00035309791564941406
ell 910, elapsed: 0.00037598609924316406
ell 909, elapsed: 0.0003528594970703125
ell 908, elapsed: 0.00036978721618652344
ell 907, elapsed: 0.0003578662872314453
ell 906, elapsed: 0.00035500526428222656
ell 905, elapsed: 0.0003559589385986328
ell 904, elapsed: 0.0003559589385986328
ell 903, elapsed: 0.0003628730773925781
ell 902, elapsed: 0.000347137451171875
ell 901, elapsed: 0.0003540515899658203
ell 900, elapsed: 0.0003650188446044922
ell 899, elapsed: 0.00035190582275390625
ell 898, elapsed: 0.00038504600524902344
ell 897, elapsed: 0.0003490447998046875
ell 896, elapsed: 0.0003590583801269531
ell 895, elapsed: 0.0003631114959716797
ell 894, elapsed: 0.0003540515899658203
ell 893, elapsed: 0.0003821849822998047
ell 892, elapsed: 0.0003800392150878906
ell 891, elapsed: 0.0003509521484375
ell 890, elapsed: 0.0003600120544433594
ell 889, elapsed: 0.00035190582275390625
ell 888, elapsed: 0.0003650188446044922
ell 887, elapsed: 0.00040793418884277344
ell 886, elapsed: 0.0003559589385986328
ell 885, elapsed: 0.00035309791564941406
ell 884, elapsed: 0.0003490447998046875
ell 883, elapsed: 0.0003631114959716797
ell 882, elapsed: 0.00035381317138671875
ell 881, elapsed: 0.00037288665771484375
ell 880, elapsed: 0.0003581047058105469
ell 879, elapsed: 0.00037598609924316406
ell 878, elapsed: 0.0003650188446044922
ell 877, elapsed: 0.00035500526428222656
ell 876, elapsed: 0.0003609657287597656
ell 875, elapsed: 0.000370025634765625
ell 874, elapsed: 0.0003509521484375
ell 873, elapsed: 0.0003581047058105469
ell 872, elapsed: 0.0003521442413330078
ell 871, elapsed: 0.0003859996795654297
ell 870, elapsed: 0.0003590583801269531
ell 869, elapsed: 0.00035500526428222656
ell 868, elapsed: 0.00035119056701660156
ell 867, elapsed: 0.0003418922424316406
ell 866, elapsed: 0.0003619194030761719
ell 865, elapsed: 0.0003631114959716797
ell 864, elapsed: 0.0003399848937988281
ell 863, elapsed: 0.0003941059112548828
ell 862, elapsed: 0.0003600120544433594
ell 861, elapsed: 0.00036978721618652344
ell 860, elapsed: 0.0003561973571777344
ell 859, elapsed: 0.0003559589385986328
ell 858, elapsed: 0.0003612041473388672
ell 857, elapsed: 0.00035309791564941406
ell 856, elapsed: 0.000370025634765625
ell 855, elapsed: 0.00032591819763183594
ell 854, elapsed: 0.0003190040588378906
ell 853, elapsed: 0.00032401084899902344
ell 852, elapsed: 0.0003151893615722656
ell 851, elapsed: 0.0003349781036376953
ell 850, elapsed: 0.0003228187561035156
ell 849, elapsed: 0.0003170967102050781
ell 848, elapsed: 0.0003268718719482422
ell 847, elapsed: 0.00031113624572753906
ell 846, elapsed: 0.0003209114074707031
ell 845, elapsed: 0.0003142356872558594
ell 844, elapsed: 0.00034308433532714844
ell 843, elapsed: 0.00032401084899902344
ell 842, elapsed: 0.00030994415283203125
ell 841, elapsed: 0.00032210350036621094
ell 840, elapsed: 0.0003120899200439453
ell 839, elapsed: 0.00031185150146484375
ell 838, elapsed: 0.0003211498260498047
ell 837, elapsed: 0.00031495094299316406
ell 836, elapsed: 0.00031304359436035156
ell 835, elapsed: 0.0003139972686767578
ell 834, elapsed: 0.0003120899200439453
ell 833, elapsed: 0.0003180503845214844
ell 832, elapsed: 0.0003528594970703125
ell 831, elapsed: 0.00032520294189453125
ell 830, elapsed: 0.0003159046173095703
ell 829, elapsed: 0.0003120899200439453
ell 828, elapsed: 0.0003199577331542969
ell 827, elapsed: 0.0003120899200439453
ell 826, elapsed: 0.0003190040588378906
ell 825, elapsed: 0.00031185150146484375
ell 824, elapsed: 0.0003159046173095703
ell 823, elapsed: 0.00032401084899902344
ell 822, elapsed: 0.0003249645233154297
ell 821, elapsed: 0.0003509521484375
ell 820, elapsed: 0.0003161430358886719
ell 819, elapsed: 0.0003199577331542969
ell 818, elapsed: 0.0003230571746826172
ell 817, elapsed: 0.0004379749298095703
ell 816, elapsed: 0.00033283233642578125
ell 815, elapsed: 0.0003161430358886719
ell 814, elapsed: 0.00033211708068847656
ell 813, elapsed: 0.00031495094299316406
ell 812, elapsed: 0.00032210350036621094
ell 811, elapsed: 0.00032401084899902344
ell 810, elapsed: 0.0003180503845214844
ell 809, elapsed: 0.0003800392150878906
ell 808, elapsed: 0.0003139972686767578
ell 807, elapsed: 0.00031113624572753906
ell 806, elapsed: 0.0003249645233154297
ell 805, elapsed: 0.0003159046173095703
ell 804, elapsed: 0.0003199577331542969
ell 803, elapsed: 0.00031304359436035156
ell 802, elapsed: 0.00031495094299316406
ell 801, elapsed: 0.0003161430358886719
ell 800, elapsed: 0.00030994415283203125
ell 799, elapsed: 0.00032210350036621094
ell 798, elapsed: 0.00033402442932128906
ell 797, elapsed: 0.00031304359436035156
ell 796, elapsed: 0.0003161430358886719
ell 795, elapsed: 0.00031685829162597656
ell 794, elapsed: 0.00030612945556640625
ell 793, elapsed: 0.0003001689910888672
ell 792, elapsed: 0.0003020763397216797
ell 791, elapsed: 0.00030303001403808594
ell 790, elapsed: 0.00029206275939941406
ell 789, elapsed: 0.00030612945556640625
ell 788, elapsed: 0.0002980232238769531
ell 787, elapsed: 0.0002999305725097656
ell 786, elapsed: 0.0003001689910888672
ell 785, elapsed: 0.0002951622009277344
ell 784, elapsed: 0.0003039836883544922
ell 783, elapsed: 0.0002989768981933594
ell 782, elapsed: 0.0002989768981933594
ell 781, elapsed: 0.00030803680419921875
ell 780, elapsed: 0.00029087066650390625
ell 779, elapsed: 0.00030493736267089844
ell 778, elapsed: 0.00030112266540527344
ell 777, elapsed: 0.0002980232238769531
ell 776, elapsed: 0.00030994415283203125
ell 775, elapsed: 0.0002951622009277344
ell 774, elapsed: 0.00030517578125
ell 773, elapsed: 0.0003399848937988281
ell 772, elapsed: 0.00030303001403808594
ell 771, elapsed: 0.0002880096435546875
ell 770, elapsed: 0.00029206275939941406
ell 769, elapsed: 0.00030612945556640625
ell 768, elapsed: 0.0002951622009277344
ell 767, elapsed: 0.00029587745666503906
ell 766, elapsed: 0.00030517578125
ell 765, elapsed: 0.0002970695495605469
ell 764, elapsed: 0.0003018379211425781
ell 763, elapsed: 0.0002961158752441406
ell 762, elapsed: 0.00030303001403808594
ell 761, elapsed: 0.00032591819763183594
ell 760, elapsed: 0.0002980232238769531
ell 759, elapsed: 0.0003230571746826172
ell 758, elapsed: 0.0003020763397216797
ell 757, elapsed: 0.0003020763397216797
ell 756, elapsed: 0.00029587745666503906
ell 755, elapsed: 0.0002968311309814453
ell 754, elapsed: 0.0003120899200439453
ell 753, elapsed: 0.00029587745666503906
ell 752, elapsed: 0.00030803680419921875
ell 751, elapsed: 0.0002980232238769531
ell 750, elapsed: 0.000308990478515625
ell 749, elapsed: 0.00035691261291503906
ell 748, elapsed: 0.0002949237823486328
ell 747, elapsed: 0.0003008842468261719
ell 746, elapsed: 0.0002980232238769531
ell 745, elapsed: 0.0002918243408203125
ell 744, elapsed: 0.0002989768981933594
ell 743, elapsed: 0.0002970695495605469
ell 742, elapsed: 0.0002961158752441406
ell 741, elapsed: 0.0002970695495605469
ell 740, elapsed: 0.0002999305725097656
ell 739, elapsed: 0.000308990478515625
ell 738, elapsed: 0.0003120899200439453
ell 737, elapsed: 0.00034499168395996094
ell 736, elapsed: 0.00030303001403808594
ell 735, elapsed: 0.00030922889709472656
ell 734, elapsed: 0.0002961158752441406
ell 733, elapsed: 0.0002970695495605469
ell 732, elapsed: 0.00030612945556640625
ell 731, elapsed: 0.0002961158752441406
ell 730, elapsed: 0.0002980232238769531
ell 729, elapsed: 0.0002911090850830078
ell 728, elapsed: 0.0002951622009277344
ell 727, elapsed: 0.0002999305725097656
ell 726, elapsed: 0.0002930164337158203
ell 725, elapsed: 0.0002999305725097656
ell 724, elapsed: 0.0003190040588378906
ell 723, elapsed: 0.0003058910369873047
ell 722, elapsed: 0.00031113624572753906
ell 721, elapsed: 0.0002980232238769531
ell 720, elapsed: 0.00030612945556640625
ell 719, elapsed: 0.0002911090850830078
ell 718, elapsed: 0.00029397010803222656
ell 717, elapsed: 0.00030493736267089844
ell 716, elapsed: 0.0002951622009277344
ell 715, elapsed: 0.00030994415283203125
ell 714, elapsed: 0.0002989768981933594
ell 713, elapsed: 0.00030684471130371094
ell 712, elapsed: 0.00034809112548828125
ell 711, elapsed: 0.0002949237823486328
ell 710, elapsed: 0.00030303001403808594
ell 709, elapsed: 0.00029015541076660156
ell 708, elapsed: 0.00029397010803222656
ell 707, elapsed: 0.00029397010803222656
ell 706, elapsed: 0.00029397010803222656
ell 705, elapsed: 0.0003001689910888672
ell 704, elapsed: 0.0003020763397216797
ell 703, elapsed: 0.0002999305725097656
ell 702, elapsed: 0.0002999305725097656
ell 701, elapsed: 0.0002989768981933594
ell 700, elapsed: 0.0002980232238769531
ell 699, elapsed: 0.0003170967102050781
ell 698, elapsed: 0.0002949237823486328
ell 697, elapsed: 0.0002951622009277344
ell 696, elapsed: 0.00028514862060546875
ell 695, elapsed: 0.0002930164337158203
ell 694, elapsed: 0.0002930164337158203
ell 693, elapsed: 0.00029206275939941406
ell 692, elapsed: 0.0002930164337158203
ell 691, elapsed: 0.00028896331787109375
ell 690, elapsed: 0.00029206275939941406
ell 689, elapsed: 0.0002789497375488281
ell 688, elapsed: 0.0003101825714111328
ell 687, elapsed: 0.00032806396484375
ell 686, elapsed: 0.0002849102020263672
ell 685, elapsed: 0.00029587745666503906
ell 684, elapsed: 0.0002830028533935547
ell 683, elapsed: 0.0002930164337158203
ell 682, elapsed: 0.0002758502960205078
ell 681, elapsed: 0.00027298927307128906
ell 680, elapsed: 0.00028896331787109375
ell 679, elapsed: 0.0002779960632324219
ell 678, elapsed: 0.00029778480529785156
ell 677, elapsed: 0.0002841949462890625
ell 676, elapsed: 0.0002880096435546875
ell 675, elapsed: 0.0002949237823486328
ell 674, elapsed: 0.0003418922424316406
ell 673, elapsed: 0.0003001689910888672
ell 672, elapsed: 0.00029397010803222656
ell 671, elapsed: 0.00029921531677246094
ell 670, elapsed: 0.00029206275939941406
ell 669, elapsed: 0.00030303001403808594
ell 668, elapsed: 0.0003101825714111328
ell 667, elapsed: 0.000286102294921875
ell 666, elapsed: 0.0002880096435546875
ell 665, elapsed: 0.00027680397033691406
ell 664, elapsed: 0.0002739429473876953
ell 663, elapsed: 0.00028896331787109375
ell 662, elapsed: 0.000286102294921875
ell 661, elapsed: 0.0003368854522705078
ell 660, elapsed: 0.0002789497375488281
ell 659, elapsed: 0.0002799034118652344
ell 658, elapsed: 0.00028204917907714844
ell 657, elapsed: 0.00028204917907714844
ell 656, elapsed: 0.00028395652770996094
ell 655, elapsed: 0.00028395652770996094
ell 654, elapsed: 0.0002810955047607422
ell 653, elapsed: 0.00028705596923828125
ell 652, elapsed: 0.00028586387634277344
ell 651, elapsed: 0.00028514862060546875
ell 650, elapsed: 0.0002789497375488281
ell 649, elapsed: 0.0002880096435546875
ell 648, elapsed: 0.0003268718719482422
ell 647, elapsed: 0.0003027915954589844
ell 646, elapsed: 0.00032401084899902344
ell 645, elapsed: 0.00030493736267089844
ell 644, elapsed: 0.0003120899200439453
ell 643, elapsed: 0.00030112266540527344
ell 642, elapsed: 0.0002968311309814453
ell 641, elapsed: 0.000286102294921875
ell 640, elapsed: 0.0002818107604980469
ell 639, elapsed: 0.00029015541076660156
ell 638, elapsed: 0.00027680397033691406
ell 637, elapsed: 0.00028514862060546875
ell 636, elapsed: 0.00029015541076660156
ell 635, elapsed: 0.0003108978271484375
ell 634, elapsed: 0.00028705596923828125
ell 633, elapsed: 0.0002791881561279297
ell 632, elapsed: 0.0002830028533935547
ell 631, elapsed: 0.0002849102020263672
ell 630, elapsed: 0.00028204917907714844
ell 629, elapsed: 0.0002880096435546875
ell 628, elapsed: 0.00037097930908203125
ell 627, elapsed: 0.0003578662872314453
ell 626, elapsed: 0.000347137451171875
ell 625, elapsed: 0.0003399848937988281
ell 624, elapsed: 0.0003829002380371094
ell 623, elapsed: 0.0003521442413330078
ell 622, elapsed: 0.00034809112548828125
ell 621, elapsed: 0.0003399848937988281
ell 620, elapsed: 0.0003650188446044922
ell 619, elapsed: 0.00035309791564941406
ell 618, elapsed: 0.00034689903259277344
ell 617, elapsed: 0.0003478527069091797
ell 616, elapsed: 0.0003459453582763672
ell 615, elapsed: 0.00034809112548828125
ell 614, elapsed: 0.00035309791564941406
ell 613, elapsed: 0.00036907196044921875
ell 612, elapsed: 0.0003859996795654297
ell 611, elapsed: 0.0003650188446044922
ell 610, elapsed: 0.0003638267517089844
ell 609, elapsed: 0.0003800392150878906
ell 608, elapsed: 0.0003590583801269531
ell 607, elapsed: 0.0003719329833984375
ell 606, elapsed: 0.0003521442413330078
ell 605, elapsed: 0.00037097930908203125
ell 604, elapsed: 0.00035381317138671875
ell 603, elapsed: 0.0003631114959716797
ell 602, elapsed: 0.0003619194030761719
ell 601, elapsed: 0.00036787986755371094
ell 600, elapsed: 0.0003399848937988281
ell 599, elapsed: 0.00036597251892089844
ell 598, elapsed: 0.0003459453582763672
ell 597, elapsed: 0.0003669261932373047
ell 596, elapsed: 0.00036716461181640625
ell 595, elapsed: 0.00031113624572753906
ell 594, elapsed: 0.0003008842468261719
ell 593, elapsed: 0.0003008842468261719
ell 592, elapsed: 0.0003199577331542969
ell 591, elapsed: 0.0002949237823486328
ell 590, elapsed: 0.0002961158752441406
ell 589, elapsed: 0.00029921531677246094
ell 588, elapsed: 0.0002949237823486328
ell 587, elapsed: 0.0003008842468261719
ell 586, elapsed: 0.00029397010803222656
ell 585, elapsed: 0.0003039836883544922
ell 584, elapsed: 0.0002949237823486328
ell 583, elapsed: 0.0003039836883544922
ell 582, elapsed: 0.0003058910369873047
ell 581, elapsed: 0.00029397010803222656
ell 580, elapsed: 0.0003349781036376953
ell 579, elapsed: 0.0003008842468261719
ell 578, elapsed: 0.000308990478515625
ell 577, elapsed: 0.00030303001403808594
ell 576, elapsed: 0.00030303001403808594
ell 575, elapsed: 0.0003108978271484375
ell 574, elapsed: 0.00030112266540527344
ell 573, elapsed: 0.00030517578125
ell 572, elapsed: 0.0003008842468261719
ell 571, elapsed: 0.0003008842468261719
ell 570, elapsed: 0.00030803680419921875
ell 569, elapsed: 0.0002999305725097656
ell 568, elapsed: 0.0003139972686767578
ell 567, elapsed: 0.00035309791564941406
ell 566, elapsed: 0.0003039836883544922
ell 565, elapsed: 0.0003190040588378906
ell 564, elapsed: 0.00030112266540527344
ell 563, elapsed: 0.00030493736267089844
ell 562, elapsed: 0.00030303001403808594
ell 561, elapsed: 0.0003008842468261719
ell 560, elapsed: 0.0003139972686767578
ell 559, elapsed: 0.0003058910369873047
ell 558, elapsed: 0.000308990478515625
ell 557, elapsed: 0.0003070831298828125
ell 556, elapsed: 0.00031304359436035156
ell 555, elapsed: 0.0003349781036376953
ell 554, elapsed: 0.000308990478515625
ell 553, elapsed: 0.00030994415283203125
ell 552, elapsed: 0.0003268718719482422
ell 551, elapsed: 0.00030612945556640625
ell 550, elapsed: 0.0003108978271484375
ell 549, elapsed: 0.0002980232238769531
ell 548, elapsed: 0.0003070831298828125
ell 547, elapsed: 0.000308990478515625
ell 546, elapsed: 0.0003039836883544922
ell 545, elapsed: 0.0003170967102050781
ell 544, elapsed: 0.0003159046173095703
ell 543, elapsed: 0.0003459453582763672
ell 542, elapsed: 0.0003070831298828125
ell 541, elapsed: 0.000286102294921875
ell 540, elapsed: 0.00029397010803222656
ell 539, elapsed: 0.0002880096435546875
ell 538, elapsed: 0.0002980232238769531
ell 537, elapsed: 0.00035691261291503906
ell 536, elapsed: 0.00036907196044921875
ell 535, elapsed: 0.00038695335388183594
ell 534, elapsed: 0.0003421306610107422
ell 533, elapsed: 0.00044608116149902344
ell 532, elapsed: 0.00034999847412109375
ell 531, elapsed: 0.0003070831298828125
ell 530, elapsed: 0.0002620220184326172
ell 529, elapsed: 0.0002529621124267578
ell 528, elapsed: 0.0002720355987548828
ell 527, elapsed: 0.000286102294921875
ell 526, elapsed: 0.0002720355987548828
ell 525, elapsed: 0.0002510547637939453
ell 524, elapsed: 0.0002491474151611328
ell 523, elapsed: 0.0002579689025878906
ell 522, elapsed: 0.00025200843811035156
ell 521, elapsed: 0.0002949237823486328
ell 520, elapsed: 0.00026702880859375
ell 519, elapsed: 0.0002598762512207031
ell 518, elapsed: 0.0002570152282714844
ell 517, elapsed: 0.0002529621124267578
ell 516, elapsed: 0.0002720355987548828
ell 515, elapsed: 0.0002980232238769531
ell 514, elapsed: 0.00027298927307128906
ell 513, elapsed: 0.00030803680419921875
ell 512, elapsed: 0.0002999305725097656
ell 511, elapsed: 0.00030612945556640625
ell 510, elapsed: 0.00028896331787109375
ell 509, elapsed: 0.0002949237823486328
ell 508, elapsed: 0.0003440380096435547
ell 507, elapsed: 0.00028896331787109375
ell 506, elapsed: 0.00030803680419921875
ell 505, elapsed: 0.00028896331787109375
ell 504, elapsed: 0.00028896331787109375
ell 503, elapsed: 0.0002951622009277344
ell 502, elapsed: 0.0002980232238769531
ell 501, elapsed: 0.0002980232238769531
ell 500, elapsed: 0.00029206275939941406
ell 499, elapsed: 0.00028896331787109375
ell 498, elapsed: 0.0002989768981933594
ell 497, elapsed: 0.00029087066650390625
ell 496, elapsed: 0.0003058910369873047
ell 495, elapsed: 0.0003399848937988281
ell 494, elapsed: 0.0003058910369873047
ell 493, elapsed: 0.0002930164337158203
ell 492, elapsed: 0.0002968311309814453
ell 491, elapsed: 0.0002989768981933594
ell 490, elapsed: 0.00029587745666503906
ell 489, elapsed: 0.0003008842468261719
ell 488, elapsed: 0.00029778480529785156
ell 487, elapsed: 0.00030112266540527344
ell 486, elapsed: 0.00030303001403808594
ell 485, elapsed: 0.0002980232238769531
ell 484, elapsed: 0.0003211498260498047
ell 483, elapsed: 0.0002970695495605469
ell 482, elapsed: 0.0003039836883544922
ell 481, elapsed: 0.0003058910369873047
ell 480, elapsed: 0.00029206275939941406
ell 479, elapsed: 0.00030493736267089844
ell 478, elapsed: 0.00029587745666503906
ell 477, elapsed: 0.00029587745666503906
ell 476, elapsed: 0.0002970695495605469
ell 475, elapsed: 0.0003001689910888672
ell 474, elapsed: 0.0002989768981933594
ell 473, elapsed: 0.0002949237823486328
ell 472, elapsed: 0.00029587745666503906
ell 471, elapsed: 0.0002989768981933594
ell 470, elapsed: 0.00032401084899902344
ell 469, elapsed: 0.0002970695495605469
ell 468, elapsed: 0.0002930164337158203
ell 467, elapsed: 0.00030112266540527344
ell 466, elapsed: 0.0002892017364501953
ell 465, elapsed: 0.0002880096435546875
ell 464, elapsed: 0.0003020763397216797
ell 463, elapsed: 0.00029397010803222656
ell 462, elapsed: 0.0002999305725097656
ell 461, elapsed: 0.00029206275939941406
ell 460, elapsed: 0.00029206275939941406
ell 459, elapsed: 0.000308990478515625
ell 458, elapsed: 0.00028514862060546875
ell 457, elapsed: 0.00031685829162597656
ell 456, elapsed: 0.0002970695495605469
ell 455, elapsed: 0.00029206275939941406
ell 454, elapsed: 0.0002999305725097656
ell 453, elapsed: 0.00029206275939941406
ell 452, elapsed: 0.00029921531677246094
ell 451, elapsed: 0.0002980232238769531
ell 450, elapsed: 0.00029087066650390625
ell 449, elapsed: 0.0002970695495605469
ell 448, elapsed: 0.00029087066650390625
ell 447, elapsed: 0.0002999305725097656
ell 446, elapsed: 0.0002970695495605469
ell 445, elapsed: 0.00028705596923828125
ell 444, elapsed: 0.0002999305725097656
ell 443, elapsed: 0.00029397010803222656
ell 442, elapsed: 0.0002970695495605469
ell 441, elapsed: 0.0002999305725097656
ell 440, elapsed: 0.0002942085266113281
ell 439, elapsed: 0.00028586387634277344
ell 438, elapsed: 0.0002989768981933594
ell 437, elapsed: 0.00029397010803222656
ell 436, elapsed: 0.0002880096435546875
ell 435, elapsed: 0.0003008842468261719
ell 434, elapsed: 0.0002899169921875
ell 433, elapsed: 0.00028705596923828125
ell 432, elapsed: 0.0003249645233154297
ell 431, elapsed: 0.00029206275939941406
ell 430, elapsed: 0.00030422210693359375
ell 429, elapsed: 0.0002880096435546875
ell 428, elapsed: 0.0002930164337158203
ell 427, elapsed: 0.0002989768981933594
ell 426, elapsed: 0.00029087066650390625
ell 425, elapsed: 0.0002968311309814453
ell 424, elapsed: 0.0002999305725097656
ell 423, elapsed: 0.00029397010803222656
ell 422, elapsed: 0.00031185150146484375
ell 421, elapsed: 0.00030303001403808594
ell 420, elapsed: 0.0003039836883544922
ell 419, elapsed: 0.00036215782165527344
ell 418, elapsed: 0.00029397010803222656
ell 417, elapsed: 0.00030303001403808594
ell 416, elapsed: 0.00029206275939941406
ell 415, elapsed: 0.0003039836883544922
ell 414, elapsed: 0.00030493736267089844
ell 413, elapsed: 0.0002911090850830078
ell 412, elapsed: 0.0002961158752441406
ell 411, elapsed: 0.00028896331787109375
ell 410, elapsed: 0.0002961158752441406
ell 409, elapsed: 0.00029587745666503906
ell 408, elapsed: 0.0003020763397216797
ell 407, elapsed: 0.00033211708068847656
ell 406, elapsed: 0.0002911090850830078
ell 405, elapsed: 0.0002970695495605469
ell 404, elapsed: 0.00029397010803222656
ell 403, elapsed: 0.0002980232238769531
ell 402, elapsed: 0.00029587745666503906
ell 401, elapsed: 0.00029397010803222656
ell 400, elapsed: 0.00030112266540527344
ell 399, elapsed: 0.0002970695495605469
ell 398, elapsed: 0.0002970695495605469
ell 397, elapsed: 0.0002999305725097656
ell 396, elapsed: 0.0002930164337158203
ell 395, elapsed: 0.0002980232238769531
ell 394, elapsed: 0.0003209114074707031
ell 393, elapsed: 0.00030684471130371094
ell 392, elapsed: 0.0002961158752441406
ell 391, elapsed: 0.0002989768981933594
ell 390, elapsed: 0.0002989768981933594
ell 389, elapsed: 0.00029087066650390625
ell 388, elapsed: 0.0003039836883544922
ell 387, elapsed: 0.0002930164337158203
ell 386, elapsed: 0.00029587745666503906
ell 385, elapsed: 0.0003018379211425781
ell 384, elapsed: 0.0002930164337158203
ell 383, elapsed: 0.0003159046173095703
ell 382, elapsed: 0.0004107952117919922
ell 381, elapsed: 0.0002989768981933594
ell 380, elapsed: 0.0003058910369873047
ell 379, elapsed: 0.0002949237823486328
ell 378, elapsed: 0.00030112266540527344
ell 377, elapsed: 0.0002961158752441406
ell 376, elapsed: 0.0003039836883544922
ell 375, elapsed: 0.00029921531677246094
ell 374, elapsed: 0.0002961158752441406
ell 373, elapsed: 0.00030112266540527344
ell 372, elapsed: 0.0002980232238769531
ell 371, elapsed: 0.00031304359436035156
ell 370, elapsed: 0.0003681182861328125
ell 369, elapsed: 0.0003018379211425781
ell 368, elapsed: 0.0003108978271484375
ell 367, elapsed: 0.0002980232238769531
ell 366, elapsed: 0.0003039836883544922
ell 365, elapsed: 0.00030303001403808594
ell 364, elapsed: 0.00030517578125
ell 363, elapsed: 0.0003039836883544922
ell 362, elapsed: 0.0003008842468261719
ell 361, elapsed: 0.00030994415283203125
ell 360, elapsed: 0.0002970695495605469
ell 359, elapsed: 0.0003058910369873047
ell 358, elapsed: 0.0003039836883544922
ell 357, elapsed: 0.00032401084899902344
ell 356, elapsed: 0.00031304359436035156
ell 355, elapsed: 0.0002970695495605469
ell 354, elapsed: 0.00030112266540527344
ell 353, elapsed: 0.000308990478515625
ell 352, elapsed: 0.0003349781036376953
ell 351, elapsed: 0.00030803680419921875
ell 350, elapsed: 0.0002989768981933594
ell 349, elapsed: 0.00030612945556640625
ell 348, elapsed: 0.0003018379211425781
ell 347, elapsed: 0.0002970695495605469
ell 346, elapsed: 0.0003008842468261719
ell 345, elapsed: 0.00035309791564941406
ell 344, elapsed: 0.00030493736267089844
ell 343, elapsed: 0.00029587745666503906
ell 342, elapsed: 0.0003020763397216797
ell 341, elapsed: 0.00030112266540527344
ell 340, elapsed: 0.0002968311309814453
ell 339, elapsed: 0.0003039836883544922
ell 338, elapsed: 0.0002911090850830078
ell 337, elapsed: 0.00029397010803222656
ell 336, elapsed: 0.00030303001403808594
ell 335, elapsed: 0.0002961158752441406
ell 334, elapsed: 0.0003001689910888672
ell 333, elapsed: 0.00032401084899902344
ell 332, elapsed: 0.0002970695495605469
ell 331, elapsed: 0.00030803680419921875
ell 330, elapsed: 0.00029206275939941406
ell 329, elapsed: 0.00030112266540527344
ell 328, elapsed: 0.0002942085266113281
ell 327, elapsed: 0.0002880096435546875
ell 326, elapsed: 0.0003058910369873047
ell 325, elapsed: 0.00029206275939941406
ell 324, elapsed: 0.00029087066650390625
ell 323, elapsed: 0.00030994415283203125
ell 322, elapsed: 0.0002880096435546875
ell 321, elapsed: 0.00028586387634277344
ell 320, elapsed: 0.000331878662109375
ell 319, elapsed: 0.0002899169921875
ell 318, elapsed: 0.0002880096435546875
ell 317, elapsed: 0.0002930164337158203
ell 316, elapsed: 0.00028514862060546875
ell 315, elapsed: 0.0002899169921875
ell 314, elapsed: 0.0002911090850830078
ell 313, elapsed: 0.0002961158752441406
ell 312, elapsed: 0.0002980232238769531
ell 311, elapsed: 0.0002868175506591797
ell 310, elapsed: 0.00029206275939941406
ell 309, elapsed: 0.0002980232238769531
ell 308, elapsed: 0.0002880096435546875
ell 307, elapsed: 0.0003600120544433594
ell 306, elapsed: 0.00029206275939941406
ell 305, elapsed: 0.00028204917907714844
ell 304, elapsed: 0.00030684471130371094
ell 303, elapsed: 0.0002849102020263672
ell 302, elapsed: 0.0002949237823486328
ell 301, elapsed: 0.000286102294921875
ell 300, elapsed: 0.0002810955047607422
ell 299, elapsed: 0.0002930164337158203
ell 298, elapsed: 0.0002830028533935547
ell 297, elapsed: 0.00028586387634277344
ell 296, elapsed: 0.0002989768981933594
ell 295, elapsed: 0.0002880096435546875
ell 294, elapsed: 0.00032782554626464844
ell 293, elapsed: 0.00029015541076660156
ell 292, elapsed: 0.00029087066650390625
ell 291, elapsed: 0.00028395652770996094
ell 290, elapsed: 0.00028395652770996094
ell 289, elapsed: 0.0002880096435546875
ell 288, elapsed: 0.0002930164337158203
ell 287, elapsed: 0.0002942085266113281
ell 286, elapsed: 0.0002810955047607422
ell 285, elapsed: 0.0002970695495605469
ell 284, elapsed: 0.0002808570861816406
ell 283, elapsed: 0.0002880096435546875
ell 282, elapsed: 0.0002899169921875
ell 281, elapsed: 0.0003268718719482422
ell 280, elapsed: 0.00029397010803222656
ell 279, elapsed: 0.00028204917907714844
ell 278, elapsed: 0.00028204917907714844
ell 277, elapsed: 0.00028705596923828125
ell 276, elapsed: 0.0002849102020263672
ell 275, elapsed: 0.00028705596923828125
ell 274, elapsed: 0.00028204917907714844
ell 273, elapsed: 0.0002830028533935547
ell 272, elapsed: 0.0002808570861816406
ell 271, elapsed: 0.00028514862060546875
ell 270, elapsed: 0.00028896331787109375
ell 269, elapsed: 0.0002799034118652344
ell 268, elapsed: 0.0003209114074707031
ell 267, elapsed: 0.00028896331787109375
ell 266, elapsed: 0.0002841949462890625
ell 265, elapsed: 0.0002911090850830078
ell 264, elapsed: 0.0002899169921875
ell 263, elapsed: 0.00028896331787109375
ell 262, elapsed: 0.0002899169921875
ell 261, elapsed: 0.00028014183044433594
ell 260, elapsed: 0.0002961158752441406
ell 259, elapsed: 0.00028395652770996094
ell 258, elapsed: 0.00029087066650390625
ell 257, elapsed: 0.00028204917907714844
ell 256, elapsed: 0.0002818107604980469
ell 255, elapsed: 0.0003409385681152344
ell 254, elapsed: 0.00028514862060546875
ell 253, elapsed: 0.0002918243408203125
ell 252, elapsed: 0.00029015541076660156
ell 251, elapsed: 0.0002799034118652344
ell 250, elapsed: 0.0002930164337158203
ell 249, elapsed: 0.0002789497375488281
ell 248, elapsed: 0.00028896331787109375
ell 247, elapsed: 0.00028395652770996094
ell 246, elapsed: 0.0002808570861816406
ell 245, elapsed: 0.00028896331787109375
ell 244, elapsed: 0.00029015541076660156
ell 243, elapsed: 0.0002970695495605469
ell 242, elapsed: 0.00036716461181640625
ell 241, elapsed: 0.000286102294921875
ell 240, elapsed: 0.0002918243408203125
ell 239, elapsed: 0.0002930164337158203
ell 238, elapsed: 0.0002930164337158203
ell 237, elapsed: 0.0002830028533935547
ell 236, elapsed: 0.0002930164337158203
ell 235, elapsed: 0.0002970695495605469
ell 234, elapsed: 0.00030517578125
ell 233, elapsed: 0.00030493736267089844
ell 232, elapsed: 0.00028896331787109375
ell 231, elapsed: 0.00029206275939941406
ell 230, elapsed: 0.00029397010803222656
ell 229, elapsed: 0.0003218650817871094
ell 228, elapsed: 0.0002980232238769531
ell 227, elapsed: 0.00028896331787109375
ell 226, elapsed: 0.0002911090850830078
ell 225, elapsed: 0.0002980232238769531
ell 224, elapsed: 0.0002930164337158203
ell 223, elapsed: 0.0002980232238769531
ell 222, elapsed: 0.0002930164337158203
ell 221, elapsed: 0.0002989768981933594
ell 220, elapsed: 0.00029015541076660156
ell 219, elapsed: 0.00029206275939941406
ell 218, elapsed: 0.0003108978271484375
ell 217, elapsed: 0.00036215782165527344
ell 216, elapsed: 0.00031495094299316406
ell 215, elapsed: 0.0003001689910888672
ell 214, elapsed: 0.0002999305725097656
ell 213, elapsed: 0.000308990478515625
ell 212, elapsed: 0.0002980232238769531
ell 211, elapsed: 0.00030493736267089844
ell 210, elapsed: 0.0002930164337158203
ell 209, elapsed: 0.0002930164337158203
ell 208, elapsed: 0.00029587745666503906
ell 207, elapsed: 0.0002961158752441406
ell 206, elapsed: 0.00029587745666503906
ell 205, elapsed: 0.0002880096435546875
ell 204, elapsed: 0.0003211498260498047
ell 203, elapsed: 0.00031304359436035156
ell 202, elapsed: 0.000286102294921875
ell 201, elapsed: 0.0003018379211425781
ell 200, elapsed: 0.000286102294921875
ell 199, elapsed: 0.00032401084899902344
ell 198, elapsed: 0.00030612945556640625
ell 197, elapsed: 0.0003039836883544922
ell 196, elapsed: 0.0003139972686767578
ell 195, elapsed: 0.0003058910369873047
ell 194, elapsed: 0.0003108978271484375
ell 193, elapsed: 0.00031304359436035156
ell 192, elapsed: 0.000370025634765625
ell 191, elapsed: 0.00032401084899902344
ell 190, elapsed: 0.0003190040588378906
ell 189, elapsed: 0.0003199577331542969
ell 188, elapsed: 0.0003161430358886719
ell 187, elapsed: 0.0003039836883544922
ell 186, elapsed: 0.0003159046173095703
ell 185, elapsed: 0.00031304359436035156
ell 184, elapsed: 0.00031304359436035156
ell 183, elapsed: 0.00030422210693359375
ell 182, elapsed: 0.0003001689910888672
ell 181, elapsed: 0.00030803680419921875
ell 180, elapsed: 0.0003387928009033203
ell 179, elapsed: 0.00030493736267089844
ell 178, elapsed: 0.00030112266540527344
ell 177, elapsed: 0.0002949237823486328
ell 176, elapsed: 0.0003020763397216797
ell 175, elapsed: 0.0003070831298828125
ell 174, elapsed: 0.00030994415283203125
ell 173, elapsed: 0.0002970695495605469
ell 172, elapsed: 0.00030303001403808594
ell 171, elapsed: 0.0003058910369873047
ell 170, elapsed: 0.0003008842468261719
ell 169, elapsed: 0.0003020763397216797
ell 168, elapsed: 0.0003371238708496094
ell 167, elapsed: 0.000308990478515625
ell 166, elapsed: 0.00031304359436035156
ell 165, elapsed: 0.0003139972686767578
ell 164, elapsed: 0.00031495094299316406
ell 163, elapsed: 0.0003108978271484375
ell 162, elapsed: 0.0003039836883544922
ell 161, elapsed: 0.00030112266540527344
ell 160, elapsed: 0.0002980232238769531
ell 159, elapsed: 0.000308990478515625
ell 158, elapsed: 0.0002968311309814453
ell 157, elapsed: 0.000308990478515625
ell 156, elapsed: 0.0002989768981933594
ell 155, elapsed: 0.00036787986755371094
ell 154, elapsed: 0.0003600120544433594
ell 153, elapsed: 0.0003008842468261719
ell 152, elapsed: 0.00030517578125
ell 151, elapsed: 0.0002999305725097656
ell 150, elapsed: 0.00029587745666503906
ell 149, elapsed: 0.00030684471130371094
ell 148, elapsed: 0.0002930164337158203
ell 147, elapsed: 0.0002970695495605469
ell 146, elapsed: 0.00029206275939941406
ell 145, elapsed: 0.00029206275939941406
ell 144, elapsed: 0.00037980079650878906
ell 143, elapsed: 0.0002961158752441406
ell 142, elapsed: 0.0003008842468261719
ell 141, elapsed: 0.0002970695495605469
ell 140, elapsed: 0.00029397010803222656
ell 139, elapsed: 0.0003018379211425781
ell 138, elapsed: 0.0002930164337158203
ell 137, elapsed: 0.0003008842468261719
ell 136, elapsed: 0.0002961158752441406
ell 135, elapsed: 0.00033402442932128906
ell 134, elapsed: 0.00031113624572753906
ell 133, elapsed: 0.0003008842468261719
ell 132, elapsed: 0.00034689903259277344
ell 131, elapsed: 0.0003039836883544922
ell 130, elapsed: 0.00031280517578125
ell 129, elapsed: 0.0003008842468261719
ell 128, elapsed: 0.000308990478515625
ell 127, elapsed: 0.0002899169921875
ell 126, elapsed: 0.00028705596923828125
ell 125, elapsed: 0.00029015541076660156
ell 124, elapsed: 0.0002899169921875
ell 123, elapsed: 0.00029397010803222656
ell 122, elapsed: 0.0002989768981933594
ell 121, elapsed: 0.00030612945556640625
ell 120, elapsed: 0.0003750324249267578
ell 119, elapsed: 0.00030994415283203125
ell 118, elapsed: 0.0003139972686767578
ell 117, elapsed: 0.00031113624572753906
ell 116, elapsed: 0.0002989768981933594
ell 115, elapsed: 0.0003120899200439453
ell 114, elapsed: 0.0003039836883544922
ell 113, elapsed: 0.0002970695495605469
ell 112, elapsed: 0.00030493736267089844
ell 111, elapsed: 0.00030112266540527344
ell 110, elapsed: 0.00031113624572753906
ell 109, elapsed: 0.0002949237823486328
ell 108, elapsed: 0.00030803680419921875
ell 107, elapsed: 0.00031495094299316406
ell 106, elapsed: 0.0002989768981933594
ell 105, elapsed: 0.00030517578125
ell 104, elapsed: 0.0003008842468261719
ell 103, elapsed: 0.00030612945556640625
ell 102, elapsed: 0.0002999305725097656
ell 101, elapsed: 0.0003008842468261719
ell 100, elapsed: 0.00030684471130371094
ell 99, elapsed: 0.0003001689910888672
ell 98, elapsed: 0.00030803680419921875
ell 97, elapsed: 0.0002999305725097656
ell 96, elapsed: 0.00030112266540527344
ell 95, elapsed: 0.0004489421844482422
ell 94, elapsed: 0.0002999305725097656
ell 93, elapsed: 0.00030612945556640625
ell 92, elapsed: 0.00030303001403808594
ell 91, elapsed: 0.0003020763397216797
ell 90, elapsed: 0.0003039836883544922
ell 89, elapsed: 0.0002989768981933594
ell 88, elapsed: 0.0003039836883544922
ell 87, elapsed: 0.0002989768981933594
ell 86, elapsed: 0.0002961158752441406
ell 85, elapsed: 0.0003159046173095703
ell 84, elapsed: 0.0003020763397216797
ell 83, elapsed: 0.00047898292541503906
ell 82, elapsed: 0.00029921531677246094
ell 81, elapsed: 0.0002961158752441406
ell 80, elapsed: 0.0002970695495605469
ell 79, elapsed: 0.0002999305725097656
ell 78, elapsed: 0.0003020763397216797
ell 77, elapsed: 0.00030303001403808594
ell 76, elapsed: 0.0003018379211425781
ell 75, elapsed: 0.0003020763397216797
ell 74, elapsed: 0.0002949237823486328
ell 73, elapsed: 0.00031113624572753906
ell 72, elapsed: 0.0002989768981933594
ell 71, elapsed: 0.0004889965057373047
ell 70, elapsed: 0.0003039836883544922
ell 69, elapsed: 0.0003001689910888672
ell 68, elapsed: 0.0003070831298828125
ell 67, elapsed: 0.0002989768981933594
ell 66, elapsed: 0.00030112266540527344
ell 65, elapsed: 0.0002961158752441406
ell 64, elapsed: 0.0002968311309814453
ell 63, elapsed: 0.0003008842468261719
ell 62, elapsed: 0.0003020763397216797
ell 61, elapsed: 0.0003020763397216797
ell 60, elapsed: 0.0002980232238769531
ell 59, elapsed: 0.00033211708068847656
ell 58, elapsed: 0.0003077983856201172
ell 57, elapsed: 0.0002949237823486328
ell 56, elapsed: 0.00030303001403808594
ell 55, elapsed: 0.00028896331787109375
ell 54, elapsed: 0.00029397010803222656
ell 53, elapsed: 0.0002999305725097656
ell 52, elapsed: 0.0002968311309814453
ell 51, elapsed: 0.0002999305725097656
ell 50, elapsed: 0.00029206275939941406
ell 49, elapsed: 0.00029206275939941406
ell 48, elapsed: 0.0002980232238769531
ell 47, elapsed: 0.0003209114074707031
ell 46, elapsed: 0.0002989768981933594
ell 45, elapsed: 0.0002880096435546875
ell 44, elapsed: 0.0003008842468261719
ell 43, elapsed: 0.00028705596923828125
ell 42, elapsed: 0.00033211708068847656
ell 41, elapsed: 0.00028896331787109375
ell 40, elapsed: 0.000286102294921875
ell 39, elapsed: 0.0003018379211425781
ell 38, elapsed: 0.00029397010803222656
ell 37, elapsed: 0.0002968311309814453
ell 36, elapsed: 0.0003070831298828125
ell 35, elapsed: 0.00029015541076660156
ell 34, elapsed: 0.0003509521484375
ell 33, elapsed: 0.0003008842468261719
ell 32, elapsed: 0.0002980232238769531
ell 31, elapsed: 0.00030493736267089844
ell 30, elapsed: 0.0002999305725097656
ell 29, elapsed: 0.0002999305725097656
ell 28, elapsed: 0.0002961158752441406
ell 27, elapsed: 0.0003039836883544922
ell 26, elapsed: 0.0003039836883544922
ell 25, elapsed: 0.0003008842468261719
ell 24, elapsed: 0.00030303001403808594
ell 23, elapsed: 0.00030112266540527344
ell 22, elapsed: 0.00033092498779296875
ell 21, elapsed: 0.00030803680419921875
ell 20, elapsed: 0.0002989768981933594
ell 19, elapsed: 0.0003058910369873047
ell 18, elapsed: 0.00030112266540527344
ell 17, elapsed: 0.00030517578125
ell 16, elapsed: 0.0002930164337158203
ell 15, elapsed: 0.00029397010803222656
ell 14, elapsed: 0.0003008842468261719
ell 13, elapsed: 0.00024199485778808594
ell 12, elapsed: 0.00024700164794921875
ell 11, elapsed: 0.00023984909057617188
ell 10, elapsed: 0.0002410411834716797
ell 9, elapsed: 0.00025010108947753906
ell 8, elapsed: 0.0002880096435546875
ell 7, elapsed: 0.00024700164794921875
ell 6, elapsed: 0.0002410411834716797
ell 5, elapsed: 0.00023794174194335938
ell 4, elapsed: 0.00024700164794921875
ell 3, elapsed: 0.0002391338348388672
ell 2, elapsed: 0.0002551078796386719
ell 1, elapsed: 0.0002391338348388672
ell 0, elapsed: 0.00023889541625976562
  0.479158 seconds (46.03 k allocations: 3.091 MiB, 5.93% compilation time)
elapsed: 0.00030112266540527344
step:          0.048614 sec (0 allocations: 0 byte, 0.0% gc time)
swapping:      0.000449 sec (0 allocations: 0 byte, 0.0% gc time)
calc_Mellell!: 0.004773 sec (0 allocations: 0 byte, 0.0% gc time)
  t0 :  0.001637 sec (0 allocations: 0 byte, 0.0% gc time)
  tm2 : 0.070121 sec (0 allocations: 0 byte, 0.0% gc time)
  tm2s: 0.000994 sec (0 allocations: 0 byte, 0.0% gc time)
  tm4 : 0.166812 sec (0 allocations: 0 byte, 0.0% gc time)
  tp2 : 0.0 sec (0 allocations: 0 byte, 0.0% gc time)
  tp2s: 0.0 sec (0 allocations: 0 byte, 0.0% gc time)
  tp4 : 0.0 sec (0 allocations: 0 byte, 0.0% gc time)
calc_wtdll!:   0.270829 sec (9.9 k allocations: 1.047 MB, 0.0% gc time)
calc_wljj!:    0.020607 sec (689 allocations: 10.766 KB, 0.0% gc time)
mult_prefac!:  0.0 sec (0 allocations: 0 byte, 0.0% gc time)
convert:       0.0 sec (0 allocations: 0 byte, 0.0% gc time)
write:         0.032061 sec (0 allocations: 0 byte, 0.0% gc time)
test_rand_2f1: 0.0 sec (0 allocations: 0 byte, 0.0% gc time)
Closing outfile out/Ml21-cache.bin...   0.000005 seconds
  0.000401 seconds (36 allocations: 27.953 KiB)
make_phi():   0.001472 seconds (8.19 k allocations: 238.078 KiB)
  0.115629 seconds (141.90 k allocations: 3.483 MiB)
tskip:       0.001084 sec (0 allocations: 0 byte, 0.0% gc time)
tread:       0.022539 sec (17 allocations: 10.641 KB, 0.0% gc time)
tmultphi:    0.009078 sec (0 allocations: 0 byte, 0.0% gc time)
tbrfft:      0.030414 sec (0 allocations: 0 byte, 0.0% gc time)
tmultprefac: 0.015991 sec (0 allocations: 0 byte, 0.0% gc time)
toutfunc:    0.033151 sec (127.507 k allocations: 2.312 MB, 0.0% gc time)
Testing R=1.0 ... passed
Calculating fmax: 
  dlrec    = 4
  dlrecRg1 = -4
  q=1.1, R=0.9:	  0.259137 seconds (105.72 k allocations: 15.273 MiB)

  0.259921 seconds (105.77 k allocations: 15.307 MiB)
ℓ = 1202
Δℓ = 4
ΔℓRg1 = -4
N = 1600
q = 1.1
kmin = 1.0e-5
kmax = 100000.00000000004
χ0 = 0.023029999999999995
RR = RR.tsv
ℓmax = ℓmax.bin
f21 = f21.bin
kmin = 1.0e-5
kmax = 100000.0
dlrec    = 4
dlrecRg1 = -4
Output size: 5741568 bytes = 0.005347251892089844 GiB
Output size: 51264 bytes = 4.774332046508789e-5 GiB
Reading 'out/F21EllCache'...   0.001403 seconds (197 allocations: 84.203 KiB)
ellmax: 1202
lmaxcache: 1202
fell[:,1,1] = ComplexF64[1.3482014726274674e-57 - 3.302141236118086e-73im, 1.357860004724329e-57 - 3.3257978169518355e-73im]
ell 1202, elapsed: 6.604194641113281e-5
ell 1201, elapsed: 0.0003421306610107422
ell 1200, elapsed: 0.00029206275939941406
ell 1199, elapsed: 0.00027298927307128906
ell 1198, elapsed: 0.0002658367156982422
ell 1002, elapsed: 0.00852513313293457
ell 1001, elapsed: 0.0003218650817871094
ell 1000, elapsed: 0.0002989768981933594
ell 999, elapsed: 0.0003008842468261719
ell 998, elapsed: 0.0002980232238769531
ell 902, elapsed: 0.004376888275146484
ell 901, elapsed: 0.00035500526428222656
ell 900, elapsed: 0.00033593177795410156
ell 899, elapsed: 0.00031495094299316406
ell 898, elapsed: 0.00032901763916015625
ell 802, elapsed: 0.004516124725341797
ell 801, elapsed: 0.00030994415283203125
ell 800, elapsed: 0.00030303001403808594
ell 799, elapsed: 0.0003199577331542969
ell 798, elapsed: 0.000308990478515625
ell 702, elapsed: 0.0044748783111572266
ell 701, elapsed: 0.0003371238708496094
ell 700, elapsed: 0.0003299713134765625
ell 699, elapsed: 0.00032401084899902344
ell 698, elapsed: 0.0002689361572265625
ell 602, elapsed: 0.00432896614074707
ell 601, elapsed: 0.000270843505859375
ell 600, elapsed: 0.0002651214599609375
ell 599, elapsed: 0.00026297569274902344
ell 598, elapsed: 0.00026798248291015625
ell 502, elapsed: 0.0042459964752197266
ell 501, elapsed: 0.0003008842468261719
ell 500, elapsed: 0.0002689361572265625
ell 499, elapsed: 0.0002758502960205078
ell 498, elapsed: 0.0002551078796386719
ell 402, elapsed: 0.004287004470825195
ell 401, elapsed: 0.00026702880859375
ell 400, elapsed: 0.00029015541076660156
ell 399, elapsed: 0.000270843505859375
ell 398, elapsed: 0.0003848075866699219
ell 302, elapsed: 0.004324913024902344
ell 301, elapsed: 0.0002760887145996094
ell 300, elapsed: 0.0002651214599609375
ell 299, elapsed: 0.0002589225769042969
ell 298, elapsed: 0.0002598762512207031
ell 202, elapsed: 0.00431513786315918
ell 201, elapsed: 0.00026798248291015625
ell 200, elapsed: 0.0002620220184326172
ell 199, elapsed: 0.0002570152282714844
ell 198, elapsed: 0.00025582313537597656
ell 152, elapsed: 0.002176046371459961
ell 151, elapsed: 0.0002589225769042969
ell 150, elapsed: 0.0003020763397216797
ell 149, elapsed: 0.0002598762512207031
ell 148, elapsed: 0.00026297569274902344
ell 127, elapsed: 0.0011379718780517578
ell 126, elapsed: 0.0002589225769042969
ell 125, elapsed: 0.00026607513427734375
ell 124, elapsed: 0.0002589225769042969
ell 123, elapsed: 0.00026297569274902344
ell 114, elapsed: 0.0006401538848876953
ell 113, elapsed: 0.0002579689025878906
ell 112, elapsed: 0.0002810955047607422
ell 111, elapsed: 0.0002567768096923828
ell 110, elapsed: 0.00026297569274902344
ell 102, elapsed: 0.0005941390991210938
ell 101, elapsed: 0.0002639293670654297
ell 100, elapsed: 0.0002579689025878906
ell 99, elapsed: 0.00026607513427734375
ell 98, elapsed: 0.0002589225769042969
ell 97, elapsed: 0.0003180503845214844
ell 96, elapsed: 0.00029277801513671875
ell 95, elapsed: 0.0003070831298828125
ell 94, elapsed: 0.00030112266540527344
ell 93, elapsed: 0.0003190040588378906
ell 92, elapsed: 0.00030684471130371094
ell 91, elapsed: 0.0002930164337158203
ell 90, elapsed: 0.00030517578125
ell 89, elapsed: 0.0002980232238769531
ell 88, elapsed: 0.000308990478515625
ell 87, elapsed: 0.0002999305725097656
ell 86, elapsed: 0.0002949237823486328
ell 85, elapsed: 0.00030994415283203125
ell 84, elapsed: 0.0003008842468261719
ell 83, elapsed: 0.00030493736267089844
ell 82, elapsed: 0.0002999305725097656
ell 81, elapsed: 0.00029587745666503906
ell 80, elapsed: 0.00035309791564941406
ell 79, elapsed: 0.00029587745666503906
ell 78, elapsed: 0.000308990478515625
ell 77, elapsed: 0.0002999305725097656
ell 76, elapsed: 0.0003020763397216797
ell 75, elapsed: 0.0003070831298828125
ell 74, elapsed: 0.0002989768981933594
ell 73, elapsed: 0.00030493736267089844
ell 72, elapsed: 0.0002951622009277344
ell 71, elapsed: 0.00029778480529785156
ell 70, elapsed: 0.00030684471130371094
ell 69, elapsed: 0.0002989768981933594
ell 68, elapsed: 0.0003409385681152344
ell 67, elapsed: 0.0003399848937988281
ell 66, elapsed: 0.00035500526428222656
ell 65, elapsed: 0.00034308433532714844
ell 64, elapsed: 0.0003490447998046875
ell 63, elapsed: 0.0003490447998046875
ell 62, elapsed: 0.0003662109375
ell 61, elapsed: 0.0003581047058105469
ell 60, elapsed: 0.00037384033203125
ell 59, elapsed: 0.0003631114959716797
ell 58, elapsed: 0.00036597251892089844
ell 57, elapsed: 0.0003719329833984375
ell 56, elapsed: 0.0003559589385986328
ell 55, elapsed: 0.0003669261932373047
ell 54, elapsed: 0.00035190582275390625
ell 53, elapsed: 0.0003662109375
ell 52, elapsed: 0.0003559589385986328
ell 51, elapsed: 0.0003590583801269531
ell 50, elapsed: 0.0003750324249267578
ell 49, elapsed: 0.00034689903259277344
ell 48, elapsed: 0.0003771781921386719
ell 47, elapsed: 0.0003788471221923828
ell 46, elapsed: 0.0003631114959716797
ell 45, elapsed: 0.00038814544677734375
ell 44, elapsed: 0.0003788471221923828
ell 43, elapsed: 0.0003638267517089844
ell 42, elapsed: 0.00035190582275390625
ell 41, elapsed: 0.0003619194030761719
ell 40, elapsed: 0.00037097930908203125
ell 39, elapsed: 0.00035881996154785156
ell 38, elapsed: 0.0003650188446044922
ell 37, elapsed: 0.0004200935363769531
ell 36, elapsed: 0.0003571510314941406
ell 35, elapsed: 0.0003581047058105469
ell 34, elapsed: 0.00033283233642578125
ell 33, elapsed: 0.0003619194030761719
ell 32, elapsed: 0.000331878662109375
ell 31, elapsed: 0.0004601478576660156
ell 30, elapsed: 0.0003600120544433594
ell 29, elapsed: 0.0003440380096435547
ell 28, elapsed: 0.0003609657287597656
ell 27, elapsed: 0.00034999847412109375
ell 26, elapsed: 0.0003540515899658203
ell 25, elapsed: 0.00036907196044921875
ell 24, elapsed: 0.00035309791564941406
ell 23, elapsed: 0.0003440380096435547
ell 22, elapsed: 0.0003681182861328125
ell 21, elapsed: 0.00031304359436035156
ell 20, elapsed: 0.0002989768981933594
ell 19, elapsed: 0.00029397010803222656
ell 18, elapsed: 0.00030493736267089844
ell 17, elapsed: 0.00030303001403808594
ell 16, elapsed: 0.0002989768981933594
ell 15, elapsed: 0.0002880096435546875
ell 14, elapsed: 0.00029206275939941406
ell 13, elapsed: 0.0002968311309814453
ell 12, elapsed: 0.0002961158752441406
ell 11, elapsed: 0.0003039836883544922
ell 10, elapsed: 0.0002970695495605469
ell 9, elapsed: 0.0003228187561035156
ell 8, elapsed: 0.0002968311309814453
ell 7, elapsed: 0.00029087066650390625
ell 6, elapsed: 0.0003139972686767578
ell 5, elapsed: 0.00029206275939941406
ell 4, elapsed: 0.0002989768981933594
ell 3, elapsed: 0.0003020763397216797
ell 2, elapsed: 0.0002970695495605469
ell 1, elapsed: 0.0003039836883544922
ell 0, elapsed: 0.0002899169921875
  0.110007 seconds (11.51 k allocations: 719.594 KiB)
elapsed: 0.0003440380096435547
step:          0.048476 sec (0 allocations: 0 byte, 0.0% gc time)
swapping:      0.000356 sec (0 allocations: 0 byte, 0.0% gc time)
calc_Mellell!: 0.000761 sec (0 allocations: 0 byte, 0.0% gc time)
  t0 :  0.000271 sec (0 allocations: 0 byte, 0.0% gc time)
  tm2 : 0.009834 sec (0 allocations: 0 byte, 0.0% gc time)
  tm2s: 0.000184 sec (0 allocations: 0 byte, 0.0% gc time)
  tm4 : 0.023648 sec (0 allocations: 0 byte, 0.0% gc time)
  tp2 : 0.0 sec (0 allocations: 0 byte, 0.0% gc time)
  tp2s: 0.0 sec (0 allocations: 0 byte, 0.0% gc time)
  tp4 : 0.0 sec (0 allocations: 0 byte, 0.0% gc time)
calc_wtdll!:   0.034466 sec (1.344 k allocations: 147.0 KB, 0.0% gc time)
calc_wljj!:    0.002039 sec (6 allocations: 96 byte, 0.0% gc time)
mult_prefac!:  0.0 sec (0 allocations: 0 byte, 0.0% gc time)
convert:       0.0 sec (0 allocations: 0 byte, 0.0% gc time)
write:         0.003097 sec (0 allocations: 0 byte, 0.0% gc time)
test_rand_2f1: 0.0 sec (0 allocations: 0 byte, 0.0% gc time)
Closing outfile out/Ml21-cache.bin...   0.000009 seconds
  0.000255 seconds (36 allocations: 27.953 KiB)
make_phi():   0.001461 seconds (8.19 k allocations: 238.078 KiB)
  0.010504 seconds (11.65 k allocations: 308.688 KiB)
tskip:       1.7e-5 sec (0 allocations: 0 byte, 0.0% gc time)
tread:       0.002065 sec (17 allocations: 2.125 KB, 0.0% gc time)
tmultphi:    0.000831 sec (0 allocations: 0 byte, 0.0% gc time)
tbrfft:      0.002875 sec (0 allocations: 0 byte, 0.0% gc time)
tmultprefac: 0.001478 sec (0 allocations: 0 byte, 0.0% gc time)
toutfunc:    0.002976 sec (10.304 k allocations: 196.0 KB, 0.0% gc time)
Testing R=0.9 ... passed
Calculating fmax: 
  dlrec    = 4
  dlrecRg1 = -4
  q=1.1, R=0.8:	  0.211443 seconds (103.21 k allocations: 14.840 MiB, 9.43% gc time)

  0.211701 seconds (103.26 k allocations: 14.874 MiB, 9.42% gc time)
ℓ = 1202
Δℓ = 4
ΔℓRg1 = -4
N = 1600
q = 1.1
kmin = 1.0e-5
kmax = 100000.00000000004
χ0 = 0.023029999999999995
RR = RR.tsv
ℓmax = ℓmax.bin
f21 = f21.bin
kmin = 1.0e-5
kmax = 100000.0
dlrec    = 4
dlrecRg1 = -4
Output size: 5741568 bytes = 0.005347251892089844 GiB
Output size: 51264 bytes = 4.774332046508789e-5 GiB
Reading 'out/F21EllCache'...   0.000778 seconds (197 allocations: 84.203 KiB)
ellmax: 1202
lmaxcache: 1202
fell[:,1,1] = ComplexF64[7.519068145690986e-120 - 1.8416405474382574e-135im, 7.541664537386155e-120 - 1.847175067190611e-135im]
ell 1202, elapsed: 1.6927719116210938e-5
ell 1201, elapsed: 0.00036597251892089844
ell 1200, elapsed: 0.0002579689025878906
ell 1199, elapsed: 0.0002579689025878906
ell 1198, elapsed: 0.00025391578674316406
ell 1002, elapsed: 0.008526086807250977
ell 1001, elapsed: 0.0002830028533935547
ell 1000, elapsed: 0.00032711029052734375
ell 999, elapsed: 0.0002689361572265625
ell 998, elapsed: 0.0002620220184326172
ell 902, elapsed: 0.004293918609619141
ell 901, elapsed: 0.0002720355987548828
ell 900, elapsed: 0.00027489662170410156
ell 899, elapsed: 0.0002720355987548828
ell 898, elapsed: 0.00026488304138183594
ell 802, elapsed: 0.004273176193237305
ell 801, elapsed: 0.00026416778564453125
ell 800, elapsed: 0.0002570152282714844
ell 799, elapsed: 0.0002560615539550781
ell 798, elapsed: 0.00026106834411621094
ell 702, elapsed: 0.0042421817779541016
ell 701, elapsed: 0.0003380775451660156
ell 700, elapsed: 0.00026798248291015625
ell 699, elapsed: 0.00026297569274902344
ell 698, elapsed: 0.00026297569274902344
ell 602, elapsed: 0.004230976104736328
ell 601, elapsed: 0.00026488304138183594
ell 600, elapsed: 0.0002598762512207031
ell 599, elapsed: 0.0002620220184326172
ell 598, elapsed: 0.00025391578674316406
ell 502, elapsed: 0.004243135452270508
ell 501, elapsed: 0.00026702880859375
ell 500, elapsed: 0.00026297569274902344
ell 499, elapsed: 0.0002529621124267578
ell 498, elapsed: 0.0002589225769042969
ell 402, elapsed: 0.004422903060913086
ell 401, elapsed: 0.0002758502960205078
ell 400, elapsed: 0.0002639293670654297
ell 399, elapsed: 0.0002620220184326172
ell 398, elapsed: 0.00026488304138183594
ell 302, elapsed: 0.00433802604675293
ell 301, elapsed: 0.0002789497375488281
ell 300, elapsed: 0.00026297569274902344
ell 299, elapsed: 0.0002639293670654297
ell 298, elapsed: 0.00026488304138183594
ell 202, elapsed: 0.004326820373535156
ell 201, elapsed: 0.0002799034118652344
ell 200, elapsed: 0.0002989768981933594
ell 199, elapsed: 0.00026798248291015625
ell 198, elapsed: 0.0002720355987548828
ell 152, elapsed: 0.0021631717681884766
ell 151, elapsed: 0.00026488304138183594
ell 150, elapsed: 0.00025916099548339844
ell 149, elapsed: 0.0002570152282714844
ell 148, elapsed: 0.0002651214599609375
ell 127, elapsed: 0.0011570453643798828
ell 126, elapsed: 0.0002579689025878906
ell 125, elapsed: 0.000270843505859375
ell 124, elapsed: 0.0002548694610595703
ell 123, elapsed: 0.0002541542053222656
ell 114, elapsed: 0.0006330013275146484
ell 113, elapsed: 0.0002560615539550781
ell 112, elapsed: 0.0002541542053222656
ell 111, elapsed: 0.00025916099548339844
ell 110, elapsed: 0.0002510547637939453
ell 102, elapsed: 0.0006940364837646484
ell 101, elapsed: 0.0002532005310058594
ell 100, elapsed: 0.0002551078796386719
ell 99, elapsed: 0.00025582313537597656
ell 98, elapsed: 0.0002589225769042969
ell 97, elapsed: 0.00031304359436035156
ell 96, elapsed: 0.00030303001403808594
ell 95, elapsed: 0.0003070831298828125
ell 94, elapsed: 0.00029397010803222656
ell 93, elapsed: 0.0002989768981933594
ell 92, elapsed: 0.00029397010803222656
ell 91, elapsed: 0.0002911090850830078
ell 90, elapsed: 0.0003218650817871094
ell 89, elapsed: 0.0002911090850830078
ell 88, elapsed: 0.00029587745666503906
ell 87, elapsed: 0.00028705596923828125
ell 86, elapsed: 0.00029206275939941406
ell 85, elapsed: 0.0002930164337158203
ell 84, elapsed: 0.0002949237823486328
ell 83, elapsed: 0.00028705596923828125
ell 82, elapsed: 0.0002970695495605469
ell 81, elapsed: 0.0002968311309814453
ell 80, elapsed: 0.0004169940948486328
ell 79, elapsed: 0.0004429817199707031
ell 78, elapsed: 0.00034999847412109375
ell 77, elapsed: 0.00035500526428222656
[...]
ell 618, elapsed: 0.0005998611450195312
ell 612, elapsed: 0.0009050369262695312
ell 611, elapsed: 0.0005290508270263672
ell 610, elapsed: 0.0005328655242919922
ell 609, elapsed: 0.0005319118499755859
ell 608, elapsed: 0.0005369186401367188
ell 602, elapsed: 0.0009810924530029297
ell 601, elapsed: 0.0005390644073486328
ell 600, elapsed: 0.0005450248718261719
ell 599, elapsed: 0.026895999908447266
ell 598, elapsed: 0.0008308887481689453
ell 592, elapsed: 0.0011849403381347656
ell 591, elapsed: 0.0006690025329589844
ell 590, elapsed: 0.0006999969482421875
ell 589, elapsed: 0.0006868839263916016
ell 588, elapsed: 0.0006840229034423828
ell 582, elapsed: 0.0011720657348632812
ell 581, elapsed: 0.0006878376007080078
ell 580, elapsed: 0.0007350444793701172
ell 579, elapsed: 0.00057220458984375
ell 578, elapsed: 0.0005578994750976562
ell 572, elapsed: 0.0009679794311523438
ell 571, elapsed: 0.0005540847778320312
ell 570, elapsed: 0.0005650520324707031
ell 569, elapsed: 0.0005679130554199219
ell 568, elapsed: 0.0005578994750976562
ell 562, elapsed: 0.0010018348693847656
ell 561, elapsed: 0.0005431175231933594
ell 560, elapsed: 0.0005648136138916016
ell 559, elapsed: 0.0005419254302978516
ell 558, elapsed: 0.0006399154663085938
ell 552, elapsed: 0.0009999275207519531
ell 551, elapsed: 0.0005331039428710938
ell 550, elapsed: 0.0005540847778320312
ell 549, elapsed: 0.0005609989166259766
ell 548, elapsed: 0.0005879402160644531
ell 542, elapsed: 0.0010709762573242188
ell 541, elapsed: 0.0005319118499755859
ell 540, elapsed: 0.0005490779876708984
ell 539, elapsed: 0.0005409717559814453
ell 538, elapsed: 0.0005559921264648438
ell 532, elapsed: 0.0009508132934570312
ell 531, elapsed: 0.0005700588226318359
ell 530, elapsed: 0.0005500316619873047
ell 529, elapsed: 0.0005419254302978516
ell 528, elapsed: 0.0005500316619873047
ell 522, elapsed: 0.0009489059448242188
ell 521, elapsed: 0.0005490779876708984
ell 520, elapsed: 0.0005879402160644531
ell 519, elapsed: 0.0005309581756591797
ell 518, elapsed: 0.0005438327789306641
ell 512, elapsed: 0.0009338855743408203
ell 511, elapsed: 0.0005359649658203125
ell 510, elapsed: 0.0005409717559814453
ell 509, elapsed: 0.0005328655242919922
ell 508, elapsed: 0.0005679130554199219
ell 502, elapsed: 0.0009450912475585938
ell 501, elapsed: 0.0005300045013427734
ell 500, elapsed: 0.0005431175231933594
ell 499, elapsed: 0.0005440711975097656
ell 498, elapsed: 0.0005459785461425781
ell 492, elapsed: 0.0010371208190917969
ell 491, elapsed: 0.0005168914794921875
ell 490, elapsed: 0.0005490779876708984
ell 489, elapsed: 0.0005309581756591797
ell 488, elapsed: 0.0005459785461425781
ell 482, elapsed: 0.0009438991546630859
ell 481, elapsed: 0.0005500316619873047
ell 480, elapsed: 0.0005371570587158203
ell 479, elapsed: 0.0005350112915039062
ell 478, elapsed: 0.0005490779876708984
ell 472, elapsed: 0.0009551048278808594
ell 471, elapsed: 0.0005209445953369141
ell 470, elapsed: 0.0006039142608642578
ell 469, elapsed: 0.0005331039428710938
ell 468, elapsed: 0.0005419254302978516
ell 462, elapsed: 0.0009119510650634766
ell 461, elapsed: 0.0005190372467041016
ell 460, elapsed: 0.0005309581756591797
ell 459, elapsed: 0.0005550384521484375
ell 458, elapsed: 0.0005300045013427734
ell 452, elapsed: 0.0009219646453857422
ell 451, elapsed: 0.000514984130859375
ell 450, elapsed: 0.0005300045013427734
ell 449, elapsed: 0.0005190372467041016
ell 448, elapsed: 0.0005161762237548828
ell 442, elapsed: 0.000949859619140625
ell 441, elapsed: 0.0005168914794921875
ell 440, elapsed: 0.0005209445953369141
ell 439, elapsed: 0.0005180835723876953
ell 438, elapsed: 0.0005178451538085938
ell 432, elapsed: 0.0009081363677978516
ell 431, elapsed: 0.0005037784576416016
ell 430, elapsed: 0.000514984130859375
ell 429, elapsed: 0.0004918575286865234
ell 428, elapsed: 0.0004980564117431641
ell 422, elapsed: 0.0009009838104248047
ell 421, elapsed: 0.0005180835723876953
ell 420, elapsed: 0.0005080699920654297
ell 419, elapsed: 0.0005397796630859375
ell 418, elapsed: 0.0004999637603759766
ell 412, elapsed: 0.0008809566497802734
ell 411, elapsed: 0.0004820823669433594
ell 410, elapsed: 0.0004999637603759766
ell 409, elapsed: 0.0005059242248535156
ell 408, elapsed: 0.0004971027374267578
ell 402, elapsed: 0.0009109973907470703
ell 401, elapsed: 0.0004918575286865234
ell 400, elapsed: 0.0004980564117431641
ell 399, elapsed: 0.0004928112030029297
ell 398, elapsed: 0.0005021095275878906
ell 392, elapsed: 0.00090789794921875
ell 391, elapsed: 0.0005350112915039062
ell 390, elapsed: 0.0005171298980712891
ell 389, elapsed: 0.0005040168762207031
ell 388, elapsed: 0.0005090236663818359
ell 382, elapsed: 0.0008809566497802734
ell 381, elapsed: 0.0004940032958984375
ell 380, elapsed: 0.0005109310150146484
ell 379, elapsed: 0.0005321502685546875
ell 378, elapsed: 0.000518798828125
ell 372, elapsed: 0.0008959770202636719
ell 371, elapsed: 0.0004971027374267578
ell 370, elapsed: 0.0005218982696533203
ell 369, elapsed: 0.0005180835723876953
ell 368, elapsed: 0.0005121231079101562
ell 362, elapsed: 0.0009570121765136719
ell 361, elapsed: 0.0005121231079101562
ell 360, elapsed: 0.000514984130859375
ell 359, elapsed: 0.0005109310150146484
ell 358, elapsed: 0.0005128383636474609
ell 352, elapsed: 0.0009179115295410156
ell 351, elapsed: 0.0005271434783935547
ell 350, elapsed: 0.0005140304565429688
ell 349, elapsed: 0.0005071163177490234
ell 348, elapsed: 0.0005259513854980469
ell 342, elapsed: 0.0009000301361083984
ell 341, elapsed: 0.0004990100860595703
ell 340, elapsed: 0.0004999637603759766
ell 339, elapsed: 0.0005409717559814453
ell 338, elapsed: 0.0005140304565429688
ell 332, elapsed: 0.0009200572967529297
ell 331, elapsed: 0.0005080699920654297
ell 330, elapsed: 0.0005171298980712891
ell 329, elapsed: 0.0005021095275878906
ell 328, elapsed: 0.0005619525909423828
ell 322, elapsed: 0.00092315673828125
ell 321, elapsed: 0.0005068778991699219
ell 320, elapsed: 0.0004968643188476562
ell 319, elapsed: 0.0004961490631103516
ell 318, elapsed: 0.0004949569702148438
ell 312, elapsed: 0.0009047985076904297
ell 311, elapsed: 0.0005040168762207031
ell 310, elapsed: 0.0004980564117431641
ell 309, elapsed: 0.00049591064453125
ell 308, elapsed: 0.0005021095275878906
ell 302, elapsed: 0.0008950233459472656
ell 301, elapsed: 0.0004930496215820312
ell 300, elapsed: 0.0005290508270263672
ell 299, elapsed: 0.0005061626434326172
ell 298, elapsed: 0.0005040168762207031
ell 292, elapsed: 0.0009169578552246094
ell 291, elapsed: 0.0004930496215820312
ell 290, elapsed: 0.0005099773406982422
ell 289, elapsed: 0.0005128383636474609
ell 288, elapsed: 0.0005469322204589844
ell 282, elapsed: 0.0009531974792480469
ell 281, elapsed: 0.0005071163177490234
ell 280, elapsed: 0.0005199909210205078
ell 279, elapsed: 0.0005159378051757812
ell 278, elapsed: 0.0005240440368652344
ell 272, elapsed: 0.0009679794311523438
ell 271, elapsed: 0.0005059242248535156
ell 270, elapsed: 0.0005321502685546875
ell 269, elapsed: 0.0005350112915039062
ell 268, elapsed: 0.0005540847778320312
ell 262, elapsed: 0.0009639263153076172
ell 261, elapsed: 0.0005700588226318359
ell 260, elapsed: 0.0005481243133544922
ell 259, elapsed: 0.0005500316619873047
ell 258, elapsed: 0.0005450248718261719
ell 252, elapsed: 0.0009541511535644531
ell 251, elapsed: 0.0005359649658203125
ell 250, elapsed: 0.0005650520324707031
ell 249, elapsed: 0.0006060600280761719
ell 248, elapsed: 0.0005500316619873047
ell 242, elapsed: 0.0009920597076416016
ell 241, elapsed: 0.0005469322204589844
ell 240, elapsed: 0.0005609989166259766
ell 239, elapsed: 0.0005459785461425781
ell 238, elapsed: 0.0005910396575927734
ell 232, elapsed: 0.000990152359008789
ell 231, elapsed: 0.0005300045013427734
ell 230, elapsed: 0.000553131103515625
ell 229, elapsed: 0.0005490779876708984
ell 228, elapsed: 0.0005629062652587891
ell 222, elapsed: 0.0010578632354736328
ell 221, elapsed: 0.000576019287109375
ell 220, elapsed: 0.0005621910095214844
ell 219, elapsed: 0.0005431175231933594
ell 218, elapsed: 0.0005471706390380859
ell 212, elapsed: 0.0010640621185302734
ell 211, elapsed: 0.0005478858947753906
ell 210, elapsed: 0.0005660057067871094
ell 209, elapsed: 0.0005521774291992188
ell 208, elapsed: 0.0005660057067871094
ell 202, elapsed: 0.001010894775390625
ell 201, elapsed: 0.0005869865417480469
ell 200, elapsed: 0.0005679130554199219
ell 199, elapsed: 0.0005500316619873047
ell 198, elapsed: 0.0005619525909423828
ell 192, elapsed: 0.0009438991546630859
ell 191, elapsed: 0.0005390644073486328
ell 190, elapsed: 0.0005550384521484375
ell 189, elapsed: 0.0005679130554199219
ell 188, elapsed: 0.0005500316619873047
ell 182, elapsed: 0.0009829998016357422
ell 181, elapsed: 0.0005290508270263672
ell 180, elapsed: 0.0005469322204589844
ell 179, elapsed: 0.0005440711975097656
ell 178, elapsed: 0.0006248950958251953
ell 172, elapsed: 0.0010120868682861328
ell 171, elapsed: 0.0005509853363037109
ell 170, elapsed: 0.0005509853363037109
ell 169, elapsed: 0.0005490779876708984
ell 168, elapsed: 0.0005600452423095703
ell 162, elapsed: 0.0010309219360351562
ell 161, elapsed: 0.0005459785461425781
ell 160, elapsed: 0.0005650520324707031
ell 159, elapsed: 0.0005488395690917969
ell 158, elapsed: 0.0005509853363037109
ell 152, elapsed: 0.00102996826171875
ell 151, elapsed: 0.0005447864532470703
ell 150, elapsed: 0.0005578994750976562
ell 149, elapsed: 0.0005450248718261719
ell 148, elapsed: 0.0005538463592529297
ell 142, elapsed: 0.000946044921875
ell 141, elapsed: 0.0005450248718261719
ell 140, elapsed: 0.0005891323089599609
ell 139, elapsed: 0.0005419254302978516
ell 138, elapsed: 0.0005559921264648438
ell 132, elapsed: 0.0009679794311523438
ell 131, elapsed: 0.0005369186401367188
ell 130, elapsed: 0.0005478858947753906
ell 129, elapsed: 0.0005409717559814453
ell 128, elapsed: 0.0005450248718261719
ell 122, elapsed: 0.0009942054748535156
ell 121, elapsed: 0.0005550384521484375
ell 120, elapsed: 0.0005528926849365234
ell 119, elapsed: 0.0005478858947753906
ell 118, elapsed: 0.0005939006805419922
ell 112, elapsed: 0.000990152359008789
ell 111, elapsed: 0.0005419254302978516
ell 110, elapsed: 0.000537872314453125
ell 109, elapsed: 0.0005450248718261719
ell 108, elapsed: 0.0005691051483154297
ell 102, elapsed: 0.0010030269622802734
ell 101, elapsed: 0.00232696533203125
ell 100, elapsed: 0.002351999282836914
ell 99, elapsed: 0.0023529529571533203
ell 98, elapsed: 0.0023708343505859375
ell 92, elapsed: 0.004551887512207031
ell 91, elapsed: 0.0023729801177978516
ell 90, elapsed: 0.002301931381225586
ell 89, elapsed: 0.0023488998413085938
ell 88, elapsed: 0.0023589134216308594
ell 82, elapsed: 0.004559993743896484
ell 81, elapsed: 0.0022840499877929688
ell 80, elapsed: 0.0023200511932373047
ell 79, elapsed: 0.002296924591064453
ell 78, elapsed: 0.002337932586669922
ell 72, elapsed: 0.004475116729736328
ell 71, elapsed: 0.0023941993713378906
ell 70, elapsed: 0.0022690296173095703
ell 69, elapsed: 0.0022940635681152344
ell 68, elapsed: 0.0022649765014648438
ell 62, elapsed: 0.004477024078369141
ell 61, elapsed: 0.0022690296173095703
ell 60, elapsed: 0.002321958541870117
ell 59, elapsed: 0.002318859100341797
ell 58, elapsed: 0.002404928207397461
ell 52, elapsed: 0.004606962203979492
ell 51, elapsed: 0.0023322105407714844
ell 50, elapsed: 0.0022950172424316406
ell 49, elapsed: 0.002341032028198242
ell 48, elapsed: 0.0023069381713867188
ell 42, elapsed: 0.0045490264892578125
ell 41, elapsed: 0.0022771358489990234
ell 40, elapsed: 0.0023298263549804688
ell 39, elapsed: 0.002254962921142578
ell 38, elapsed: 0.002238035202026367
ell 32, elapsed: 0.004315853118896484
ell 31, elapsed: 0.0021610260009765625
ell 30, elapsed: 0.0023059844970703125
ell 29, elapsed: 0.002311229705810547
ell 28, elapsed: 0.002363920211791992
ell 22, elapsed: 0.004518985748291016
ell 21, elapsed: 0.0024530887603759766
ell 20, elapsed: 0.0023479461669921875
ell 19, elapsed: 0.002293109893798828
ell 18, elapsed: 0.0023360252380371094
ell 12, elapsed: 0.004457950592041016
ell 11, elapsed: 0.0023050308227539062
ell 10, elapsed: 0.002396106719970703
ell 9, elapsed: 0.0023260116577148438
ell 8, elapsed: 0.002257108688354492
  0.526762 seconds (68.56 k allocations: 12.176 MiB, 2.34% gc time)
elapsed: 0.0028400421142578125
step:          0.044551 sec (0 allocations: 0 byte, 0.0% gc time)
swapping:      0.000372 sec (0 allocations: 0 byte, 0.0% gc time)
calc_Mellell!: 0.017177 sec (0 allocations: 0 byte, 0.0% gc time)
  t0 :  0.006964 sec (0 allocations: 0 byte, 0.0% gc time)
  tm2 : 0.050329 sec (0 allocations: 0 byte, 0.0% gc time)
  tm2s: 0.00563 sec (0 allocations: 0 byte, 0.0% gc time)
  tm4 : 0.113162 sec (0 allocations: 0 byte, 0.0% gc time)
  tp2 : 0.0 sec (0 allocations: 0 byte, 0.0% gc time)
  tp2s: 0.0 sec (0 allocations: 0 byte, 0.0% gc time)
  tp4 : 0.0 sec (0 allocations: 0 byte, 0.0% gc time)
calc_wtdll!:   0.372691 sec (48.6 k allocations: 11.096 MB, 3.31% gc time)
calc_wljj!:    0.018604 sec (69 allocations: 1.078 KB, 0.0% gc time)
mult_prefac!:  0.0 sec (0 allocations: 0 byte, 0.0% gc time)
convert:       0.0 sec (0 allocations: 0 byte, 0.0% gc time)
write:         0.024095 sec (0 allocations: 0 byte, 0.0% gc time)
test_rand_2f1: 0.0 sec (0 allocations: 0 byte, 0.0% gc time)
Closing outfile out/MlCache/MlCache.bin...   0.000006 seconds
xi, l=0, nu=0:   0.321162 seconds (615.19 k allocations: 34.065 MiB, 99.46% compilation time)
xi, l=0, nu=-2:  0.001465 seconds (114 allocations: 148.969 KiB)
Created 'out/xi.tsv'.
  q=1.1, R=0.6:	  0.408244 seconds (264.58 k allocations: 38.109 MiB, 4.91% gc time)
  q=1.1, R=0.7:	  0.467374 seconds (276.43 k allocations: 40.113 MiB, 3.89% gc time)
  q=1.1, R=0.8:	  0.465501 seconds (271.87 k allocations: 39.334 MiB, 1.53% gc time)
  q=1.1, R=0.9:	  0.532031 seconds (266.68 k allocations: 38.464 MiB, 1.36% gc time)
  q=1.1, R=0.998:	 13.836260 seconds (114.96 k allocations: 7.588 MiB)
  q=1.1, R=1.0:	  0.002889 seconds (8.20 k allocations: 704.344 KiB)

ℓ = 1000
Δℓ = 4
ΔℓRg1 = -4
N = 4096
q = 1.1
kmin = 1.0e-5
kmax = 1000.0
χ0 = 0.001
RR = RR.tsv
ℓmax = ℓmax.bin
f21 = f21.bin
kmin = 1.0e-5
kmax = 1000.0
dlrec    = 4
dlrecRg1 = -4
Output size: 1573632 bytes = 0.0014655590057373047 GiB
Output size: 786816 bytes = 0.0007327795028686523 GiB
Reading 'out/F21EllCache'...   0.001045 seconds (198 allocations: 533.078 KiB)
ellmax: 1002
lmaxcache: 1000
fell[:,1,1] = ComplexF64[1.726292812820208e-224 - 4.2281979352226965e-240im, 1.7282693092099638e-224 - 4.233038955177178e-240im]
ell 1002, elapsed: 8.296966552734375e-5
ell 1001, elapsed: 0.0003380775451660156
ell 1000, elapsed: 0.00034809112548828125
ell 999, elapsed: 0.0036368370056152344
ell 998, elapsed: 0.0038640499114990234
ell 44, elapsed: 0.5898730754852295
ell 43, elapsed: 0.0036869049072265625
ell 42, elapsed: 0.0037920475006103516
ell 41, elapsed: 0.0038149356842041016
ell 40, elapsed: 0.0037229061126708984
  0.617793 seconds (4.59 k allocations: 322.266 KiB)
elapsed: 0.00445103645324707
step:          0.58837 sec (0 allocations: 0 byte, 0.0% gc time)
swapping:      0.000425 sec (0 allocations: 0 byte, 0.0% gc time)
calc_Mellell!: 0.000512 sec (0 allocations: 0 byte, 0.0% gc time)
  t0 :  0.000211 sec (0 allocations: 0 byte, 0.0% gc time)
  tm2 : 0.007254 sec (0 allocations: 0 byte, 0.0% gc time)
  tm2s: 0.000189 sec (0 allocations: 0 byte, 0.0% gc time)
  tm4 : 0.016972 sec (0 allocations: 0 byte, 0.0% gc time)
  tp2 : 0.0 sec (0 allocations: 0 byte, 0.0% gc time)
  tp2s: 0.0 sec (0 allocations: 0 byte, 0.0% gc time)
  tp4 : 0.0 sec (0 allocations: 0 byte, 0.0% gc time)
calc_wtdll!:   0.024747 sec (480 allocations: 52.5 KB, 0.0% gc time)
calc_wljj!:    0.000628 sec (1 allocations: 16 byte, 0.0% gc time)
mult_prefac!:  0.0 sec (0 allocations: 0 byte, 0.0% gc time)
convert:       0.0 sec (0 allocations: 0 byte, 0.0% gc time)
write:         0.00066 sec (0 allocations: 0 byte, 0.0% gc time)
test_rand_2f1: 0.0 sec (0 allocations: 0 byte, 0.0% gc time)
Closing outfile out/MlCache/MlCache.bin...   0.000008 seconds
  0.371138 seconds (38 allocations: 66.859 KiB)
make_phi():   0.005565 seconds (65 allocations: 275.984 KiB)
  0.039405 seconds (11.83 k allocations: 740.085 KiB, 91.83% compilation time)
tskip:       0.0 sec (0 allocations: 0 byte, 0.0% gc time)
tread:       0.000585 sec (17 allocations: 1.266 KB, 0.0% gc time)
tmultphi:    0.000215 sec (0 allocations: 0 byte, 0.0% gc time)
tbrfft:      0.001034 sec (0 allocations: 0 byte, 0.0% gc time)
tmultprefac: 0.000411 sec (0 allocations: 0 byte, 0.0% gc time)
toutfunc:    9.1e-5 sec (0 allocations: 0 byte, 0.0% gc time)
Created 'out/wl42_jj00.tsv'.
Created 'out/wl42_jj02.tsv'.
     Testing TwoFAST tests passed 

PkgEval succeeded


################################################################################
# PkgEval teardown: 2020-10-28T14:35:22.113
CPU usage: 134.81s (127.03s user, 8.01s kernel)

Network usage:
- eth0: 23.650 MiB received, 220.136 KiB sent

Raw statistics: {"blkio_stats":{"io_queue_recursive":[],"io_serviced_recursive":[{"major":259,"value":0,"op":"Read","minor":0},{"major":259,"value":13,"op":"Write","minor":0},{"major":259,"value":0,"op":"Sync","minor":0},{"major":259,"value":13,"op":"Async","minor":0},{"major":259,"value":13,"op":"Total","minor":0},{"major":253,"value":0,"op":"Read","minor":2},{"major":253,"value":13,"op":"Write","minor":2},{"major":253,"value":0,"op":"Sync","minor":2},{"major":253,"value":13,"op":"Async","minor":2},{"major":253,"value":13,"op":"Total","minor":2}],"io_time_recursive":[],"sectors_recursive":[],"io_service_bytes_recursive":[{"major":259,"value":0,"op":"Read","minor":0},{"major":259,"value":61440,"op":"Write","minor":0},{"major":259,"value":0,"op":"Sync","minor":0},{"major":259,"value":61440,"op":"Async","minor":0},{"major":259,"value":61440,"op":"Total","minor":0},{"major":253,"value":0,"op":"Read","minor":2},{"major":253,"value":61440,"op":"Write","minor":2},{"major":253,"value":0,"op":"Sync","minor":2},{"major":253,"value":61440,"op":"Async","minor":2},{"major":253,"value":61440,"op":"Total","minor":2}],"io_wait_time_recursive":[],"io_merged_recursive":[],"io_service_time_recursive":[]},"memory_stats":{"usage":338751488,"max_usage":947355648,"stats":{"hierarchical_memory_limit":9223372036854771712,"pgmajfault":0,"total_rss":226353152,"inactive_file":8192,"inactive_anon":49631232,"total_pgfault":1799876,"total_cache":105607168,"total_rss_huge":0,"total_active_anon":282284032,"total_pgmajfault":0,"pgpgin":1052258,"rss_huge":0,"mapped_file":0,"total_inactive_file":8192,"dirty":0,"total_unevictable":0,"total_dirty":0,"writeback":0,"pgpgout":971213,"hierarchical_memsw_limit":0,"cache":105607168,"active_file":4096,"pgfault":1799876,"total_mapped_file":0,"total_pgpgout":971213,"total_writeback":0,"rss":226353152,"unevictable":0,"total_inactive_anon":49631232,"total_pgpgin":1052258,"active_anon":282284032,"total_active_file":4096},"limit":540972998656},"name":"/TwoFAST-nWh2zZqy","networks":{"eth0":{"rx_bytes":24799284,"rx_packets":3636,"tx_packets":2857,"tx_bytes":225419,"tx_dropped":0,"rx_dropped":5,"tx_errors":0,"rx_errors":0}},"id":"add92447d3e4b18481d04b169eed35adfd141548b9a514d69c40301e3ff2198e","preread":"0001-01-01T00:00:00Z","storage_stats":{},"precpu_stats":{"throttling_data":{"throttled_periods":0,"throttled_time":0,"periods":0},"cpu_usage":{"usage_in_usermode":0,"usage_in_kernelmode":0,"total_usage":0}},"pids_stats":{"current":38},"num_procs":0,"cpu_stats":{"throttling_data":{"throttled_periods":0,"throttled_time":0,"periods":0},"system_cpu_usage":95414660870000000,"online_cpus":128,"cpu_usage":{"usage_in_usermode":127030000000,"usage_in_kernelmode":8010000000,"total_usage":134811259495,"percpu_usage":[0,0,0,134811259495,0,0,0,0,0,0,0,0,0,0,0,0,0,0,0,0,0,0,0,0,0,0,0,0,0,0,0,0,0,0,0,0,0,0,0,0,0,0,0,0,0,0,0,0,0,0,0,0,0,0,0,0,0,0,0,0,0,0,0,0,0,0,0,0,0,0,0,0,0,0,0,0,0,0,0,0,0,0,0,0,0,0,0,0,0,0,0,0,0,0,0,0,0,0,0,0,0,0,0,0,0,0,0,0,0,0,0,0,0,0,0,0,0,0,0,0,0,0,0,0,0,0,0,0]}},"read":"2020-10-28T14:35:22.252877046Z"}