################################################################################
# PkgEval set-up: 2020-10-28T11:43:34.020
#

Julia Version 1.6.0-DEV.1352
Commit 8f71ea7f35 (2020-10-28 02:10 UTC)
Platform Info:
  OS: Linux (x86_64-linux-gnu)
  CPU: AMD EPYC 7502 32-Core Processor
  WORD_SIZE: 64
  LIBM: libopenlibm
  LLVM: libLLVM-11.0.0 (ORCJIT, znver2)
Environment:
  JULIA_DEPOT_PATH = ::/usr/local/share/julia
  JULIA_NUM_THREADS = 2
  JULIA_MAX_NUM_PRECOMPILE_FILES = 9223372036854775807



################################################################################
# Installation: 2020-10-28T11:43:35.849
#

   Resolving package versions...
   Installed Readables ──────────────────── v0.3.3
   Installed CompilerSupportLibraries_jll ─ v0.3.4+0
   Installed OpenSpecFun_jll ────────────── v0.5.3+4
   Installed MKL_jll ────────────────────── v2020.2.254+0
   Installed Reexport ───────────────────── v0.2.0
   Installed GenericSchur ───────────────── v0.4.0
   Installed ArbNumerics ────────────────── v1.2.1
   Installed FFTW ───────────────────────── v1.2.4
   Installed AbstractFFTs ───────────────── v0.5.0
   Installed BinaryProvider ─────────────── v0.5.10
   Installed GenericSVD ─────────────────── v0.3.0
   Installed SpecialFunctions ───────────── v0.10.3
   Installed IntelOpenMP_jll ────────────── v2018.0.3+0
   Installed FFTW_jll ───────────────────── v3.3.9+6
   Installed JLLWrappers ────────────────── v1.1.3
   Installed TwoFAST ────────────────────── v0.1.3
Updating `~/.julia/environments/v1.6/Project.toml`
  [0dd23c3e] + TwoFAST v0.1.3
Updating `~/.julia/environments/v1.6/Manifest.toml`
  [621f4979] + AbstractFFTs v0.5.0
  [7e558dbc] + ArbNumerics v1.2.1
  [b99e7846] + BinaryProvider v0.5.10
  [7a1cc6ca] + FFTW v1.2.4
  [01680d73] + GenericSVD v0.3.0
  [c145ed77] + GenericSchur v0.4.0
  [692b3bcd] + JLLWrappers v1.1.3
  [0d4725de] + Readables v0.3.3
  [189a3867] + Reexport v0.2.0
  [276daf66] + SpecialFunctions v0.10.3
  [0dd23c3e] + TwoFAST v0.1.3
  [e66e0078] + CompilerSupportLibraries_jll v0.3.4+0
  [f5851436] + FFTW_jll v3.3.9+6
  [1d5cc7b8] + IntelOpenMP_jll v2018.0.3+0
  [856f044c] + MKL_jll v2020.2.254+0
  [efe28fd5] + OpenSpecFun_jll v0.5.3+4
  [0dad84c5] + ArgTools
  [56f22d72] + Artifacts
  [2a0f44e3] + Base64
  [ade2ca70] + Dates
  [8bb1440f] + DelimitedFiles
  [f43a241f] + Downloads
  [b77e0a4c] + InteractiveUtils
  [b27032c2] + LibCURL
  [76f85450] + LibGit2
  [8f399da3] + Libdl
  [37e2e46d] + LinearAlgebra
  [56ddb016] + Logging
  [d6f4376e] + Markdown
  [a63ad114] + Mmap
  [44cfe95a] + Pkg
  [de0858da] + Printf
  [3fa0cd96] + REPL
  [9a3f8284] + Random
  [ea8e919c] + SHA
  [9e88b42a] + Serialization
  [6462fe0b] + Sockets
  [fa267f1f] + TOML
  [8dfed614] + Test
  [cf7118a7] + UUIDs
  [4ec0a83e] + Unicode
  [deac9b47] + LibCURL_jll
  [14a3606d] + MozillaCACerts_jll
    Building ArbNumerics → `~/.julia/scratchspaces/44cfe95a-1eb2-52ea-b672-e2afdf69b78f/329a81d67c64e3a51c176a243b6424fbe39213d0/build.log`
    Building FFTW ───────→ `~/.julia/scratchspaces/44cfe95a-1eb2-52ea-b672-e2afdf69b78f/8b7c16b56936047ca41bf25effa137ae0b381ae8/build.log`


################################################################################
# Testing: 2020-10-28T11:44:01.502
#


     Testing TwoFAST
Status `/tmp/jl_mdzn50/Project.toml`
  [7e558dbc] ArbNumerics v1.2.1
  [39dd38d3] Dierckx v0.5.0
  [7a1cc6ca] FFTW v1.2.4
  [276daf66] SpecialFunctions v0.10.3
  [0dd23c3e] TwoFAST v0.1.3
  [8bb1440f] DelimitedFiles
  [37e2e46d] LinearAlgebra
  [56ddb016] Logging
  [8dfed614] Test
Status `/tmp/jl_mdzn50/Manifest.toml`
  [621f4979] AbstractFFTs v0.5.0
  [7e558dbc] ArbNumerics v1.2.1
  [b99e7846] BinaryProvider v0.5.10
  [39dd38d3] Dierckx v0.5.0
  [7a1cc6ca] FFTW v1.2.4
  [01680d73] GenericSVD v0.3.0
  [c145ed77] GenericSchur v0.4.0
  [692b3bcd] JLLWrappers v1.1.3
  [0d4725de] Readables v0.3.3
  [189a3867] Reexport v0.2.0
  [276daf66] SpecialFunctions v0.10.3
  [0dd23c3e] TwoFAST v0.1.3
  [e66e0078] CompilerSupportLibraries_jll v0.3.4+0
  [cd4c43a9] Dierckx_jll v0.0.1+0
  [f5851436] FFTW_jll v3.3.9+6
  [1d5cc7b8] IntelOpenMP_jll v2018.0.3+0
  [856f044c] MKL_jll v2020.2.254+0
  [efe28fd5] OpenSpecFun_jll v0.5.3+4
  [0dad84c5] ArgTools
  [56f22d72] Artifacts
  [2a0f44e3] Base64
  [ade2ca70] Dates
  [8bb1440f] DelimitedFiles
  [f43a241f] Downloads
  [b77e0a4c] InteractiveUtils
  [b27032c2] LibCURL
  [76f85450] LibGit2
  [8f399da3] Libdl
  [37e2e46d] LinearAlgebra
  [56ddb016] Logging
  [d6f4376e] Markdown
  [a63ad114] Mmap
  [44cfe95a] Pkg
  [de0858da] Printf
  [3fa0cd96] REPL
  [9a3f8284] Random
  [ea8e919c] SHA
  [9e88b42a] Serialization
  [6462fe0b] Sockets
  [fa267f1f] TOML
  [8dfed614] Test
  [cf7118a7] UUIDs
  [4ec0a83e] Unicode
  [deac9b47] LibCURL_jll
  [14a3606d] MozillaCACerts_jll
     Testing Running tests...
WARNING: could not import Printf.ini_hex into ArbNumerics
WARNING: could not import Printf.ini_HEX into ArbNumerics
t = 0.0 sec (0 allocations: 0 byte, 0.0% gc time)
typeof(t) = NamedTuple{(:value, :time, :bytes, :gctime, :gcstats), Tuple{DataType, Float64, Int64, Float64, Base.GC_Diff}}
TwoFAST.PerformanceStats.TimedType = Union{NamedTuple{(:value, :time, :bytes, :gctime, :gcstats), Tuple{T, Float64, Int64, Float64, Base.GC_Diff}}, Tuple{Any, Float64, Int64, Float64, Base.GC_Diff}} where T
t = 0.0 sec (0 allocations: 0 byte, 0.0% gc time)
t: 0.0 sec (0 allocations: 0 byte, 0.0% gc time)
Testing ξ(r), ℓ=0, ν=-1 ... passed
Testing ξ(r), ℓ=0, ν=0 ... passed
Testing ξ(r), ℓ=0, ν=1 ... passed
Testing ξ(r), ℓ=0, ν=2 ... passed
Testing ξ(r), ℓ=0, ν=3 ... passed
Testing ξ(r), ℓ=1, ν=0 ... passed
Testing ξ(r), ℓ=1, ν=1 ... passed
Testing ξ(r), ℓ=1, ν=2 ... passed
Testing ξ(r), ℓ=1, ν=3 ... passed
Testing ξ(r), ℓ=2, ν=-1 ... passed
Testing ξ(r), ℓ=2, ν=0 ... passed
Testing ξ(r), ℓ=2, ν=1 ... passed
Testing ξ(r), ℓ=2, ν=2 ... passed
Testing ξ(r), ℓ=2, ν=3 ... passed
Testing ξ(r), ℓ=3, ν=-1 ... passed
Testing ξ(r), ℓ=3, ν=0 ... passed
Testing ξ(r), ℓ=3, ν=1 ... passed
Testing ξ(r), ℓ=3, ν=2 ... passed
Testing ξ(r), ℓ=3, ν=3 ... passed
Testing ξ(r), ℓ=4, ν=-1 ... passed
Testing ξ(r), ℓ=4, ν=0 ... passed
Testing ξ(r), ℓ=4, ν=1 ... passed
Testing ξ(r), ℓ=4, ν=2 ... passed
Testing ξ(r), ℓ=4, ν=3 ... passed
Testing ξ(r) ... passed
Testing ξ′(r) ... passed
Testing ξ″(r) ... passed
Calculating fmax: 
  dlrec    = 4
  dlrecRg1 = -4
  q=1.1, R=1.1:	  3.533386 seconds (859.23 k allocations: 55.119 MiB, 1.65% gc time, 92.81% compilation time)

  3.533642 seconds (859.29 k allocations: 55.154 MiB, 1.65% gc time, 92.80% compilation time)
ℓ = 1202
Δℓ = 4
ΔℓRg1 = -4
N = 1600
q = 1.1
kmin = 1.0e-5
kmax = 100000.00000000004
χ0 = 0.023029999999999995
RR = RR.tsv
ℓmax = ℓmax.bin
f21 = f21.bin
kmin = 1.0e-5
kmax = 100000.0
dlrec    = 4
dlrecRg1 = -4
Output size: 5741568 bytes = 0.005347251892089844 GiB
Output size: 51264 bytes = 4.774332046508789e-5 GiB
Reading 'out/F21EllCache'...   0.734110 seconds (433.74 k allocations: 25.621 MiB, 3.72% gc time, 99.44% compilation time)
ellmax: 1202
lmaxcache: 1202
fell[:,1,1] = ComplexF64[3.9583795592771634e-52 - 9.695233714158177e-68im, 3.990121772925759e-52 - 9.772979714843386e-68im]
ell 1202, elapsed: 3.2901763916015625e-5
ell 1201, elapsed: 1.0822241306304932
ell 1200, elapsed: 0.00039315223693847656
ell 1199, elapsed: 0.00041794776916503906
ell 1198, elapsed: 0.00036597251892089844
ell 1002, elapsed: 0.008296966552734375
ell 1001, elapsed: 0.0003910064697265625
ell 1000, elapsed: 0.0003859996795654297
ell 999, elapsed: 0.0003859996795654297
ell 998, elapsed: 0.0003879070281982422
ell 902, elapsed: 0.004380941390991211
ell 901, elapsed: 0.00038909912109375
ell 900, elapsed: 0.0003800392150878906
ell 899, elapsed: 0.00043487548828125
ell 898, elapsed: 0.0003800392150878906
ell 802, elapsed: 0.00448918342590332
ell 801, elapsed: 0.0004000663757324219
ell 800, elapsed: 0.0004329681396484375
ell 799, elapsed: 0.0004360675811767578
ell 798, elapsed: 0.00041794776916503906
ell 702, elapsed: 0.004456996917724609
ell 701, elapsed: 0.0004417896270751953
ell 700, elapsed: 0.00043201446533203125
ell 699, elapsed: 0.0004410743713378906
ell 698, elapsed: 0.0004391670227050781
ell 602, elapsed: 0.004524946212768555
ell 601, elapsed: 0.00044608116149902344
ell 600, elapsed: 0.0004680156707763672
ell 599, elapsed: 0.0004467964172363281
ell 598, elapsed: 0.0004360675811767578
ell 502, elapsed: 0.004459857940673828
ell 501, elapsed: 0.0004470348358154297
ell 500, elapsed: 0.0004229545593261719
ell 499, elapsed: 0.00046515464782714844
ell 498, elapsed: 0.00039005279541015625
ell 402, elapsed: 0.00433802604675293
ell 401, elapsed: 0.0003941059112548828
ell 400, elapsed: 0.00038909912109375
ell 399, elapsed: 0.00038909912109375
ell 398, elapsed: 0.00039005279541015625
ell 302, elapsed: 0.004380226135253906
ell 301, elapsed: 0.0003960132598876953
ell 300, elapsed: 0.0003898143768310547
ell 299, elapsed: 0.0004699230194091797
ell 298, elapsed: 0.00038504600524902344
ell 202, elapsed: 0.004333019256591797
ell 201, elapsed: 0.00039196014404296875
ell 200, elapsed: 0.0003960132598876953
ell 199, elapsed: 0.0003859996795654297
ell 198, elapsed: 0.00039196014404296875
ell 152, elapsed: 0.002315998077392578
ell 151, elapsed: 0.0003819465637207031
ell 150, elapsed: 0.00038886070251464844
ell 149, elapsed: 0.00038695335388183594
ell 148, elapsed: 0.0003809928894042969
ell 127, elapsed: 0.0012769699096679688
ell 126, elapsed: 0.00043511390686035156
ell 125, elapsed: 0.0003819465637207031
ell 124, elapsed: 0.0003838539123535156
ell 123, elapsed: 0.0003859996795654297
ell 114, elapsed: 0.0007688999176025391
ell 113, elapsed: 0.0003859996795654297
ell 112, elapsed: 0.0003790855407714844
ell 111, elapsed: 0.00038504600524902344
ell 110, elapsed: 0.0003800392150878906
ell 102, elapsed: 0.0007688999176025391
ell 101, elapsed: 0.0003809928894042969
ell 100, elapsed: 0.00038123130798339844
ell 99, elapsed: 0.0003829002380371094
ell 98, elapsed: 0.0003859996795654297
ell 97, elapsed: 0.0004360675811767578
ell 96, elapsed: 0.000431060791015625
ell 95, elapsed: 0.0004458427429199219
ell 94, elapsed: 0.0004820823669433594
ell 93, elapsed: 0.0004401206970214844
ell 92, elapsed: 0.0004291534423828125
ell 91, elapsed: 0.0004410743713378906
ell 90, elapsed: 0.00043201446533203125
ell 89, elapsed: 0.0004279613494873047
ell 88, elapsed: 0.0004248619079589844
ell 87, elapsed: 0.0004241466522216797
ell 86, elapsed: 0.00043010711669921875
ell 85, elapsed: 0.0004589557647705078
ell 84, elapsed: 0.0004329681396484375
ell 83, elapsed: 0.00043582916259765625
ell 82, elapsed: 0.00042700767517089844
ell 81, elapsed: 0.0004360675811767578
ell 80, elapsed: 0.0004200935363769531
ell 79, elapsed: 0.00042891502380371094
ell 78, elapsed: 0.00042891502380371094
ell 77, elapsed: 0.0004210472106933594
ell 76, elapsed: 0.0004858970642089844
ell 75, elapsed: 0.0004220008850097656
ell 74, elapsed: 0.0004229545593261719
ell 73, elapsed: 0.00043487548828125
ell 72, elapsed: 0.00043010711669921875
ell 71, elapsed: 0.00042891502380371094
ell 70, elapsed: 0.00042510032653808594
ell 69, elapsed: 0.000415802001953125
ell 68, elapsed: 0.0004248619079589844
ell 67, elapsed: 0.00045609474182128906
ell 66, elapsed: 0.0004229545593261719
ell 65, elapsed: 0.0004189014434814453
ell 64, elapsed: 0.00041604042053222656
ell 63, elapsed: 0.0004200935363769531
ell 62, elapsed: 0.0004169940948486328
ell 61, elapsed: 0.00043010711669921875
ell 60, elapsed: 0.0004239082336425781
ell 59, elapsed: 0.00042319297790527344
ell 58, elapsed: 0.00043892860412597656
ell 57, elapsed: 0.0004189014434814453
ell 56, elapsed: 0.0004169940948486328
ell 55, elapsed: 0.00041294097900390625
ell 54, elapsed: 0.0004191398620605469
ell 53, elapsed: 0.0004200935363769531
ell 52, elapsed: 0.00040912628173828125
ell 51, elapsed: 0.0004169940948486328
ell 50, elapsed: 0.0004069805145263672
ell 49, elapsed: 0.0004699230194091797
ell 48, elapsed: 0.00041294097900390625
ell 47, elapsed: 0.00041604042053222656
ell 46, elapsed: 0.00041294097900390625
ell 45, elapsed: 0.00041413307189941406
ell 44, elapsed: 0.00041604042053222656
ell 43, elapsed: 0.000408172607421875
ell 42, elapsed: 0.00040793418884277344
ell 41, elapsed: 0.00041604042053222656
ell 40, elapsed: 0.00043582916259765625
ell 39, elapsed: 0.0004229545593261719
ell 38, elapsed: 0.0004100799560546875
ell 37, elapsed: 0.0004138946533203125
ell 36, elapsed: 0.00043201446533203125
ell 35, elapsed: 0.0004169940948486328
ell 34, elapsed: 0.0004329681396484375
ell 33, elapsed: 0.0004220008850097656
ell 32, elapsed: 0.0004220008850097656
ell 31, elapsed: 0.00045800209045410156
ell 30, elapsed: 0.00041794776916503906
ell 29, elapsed: 0.0004379749298095703
ell 28, elapsed: 0.0004189014434814453
ell 27, elapsed: 0.0004241466522216797
ell 26, elapsed: 0.00042819976806640625
ell 25, elapsed: 0.0004279613494873047
ell 24, elapsed: 0.00043320655822753906
ell 23, elapsed: 0.0004220008850097656
ell 22, elapsed: 0.0004761219024658203
ell 21, elapsed: 0.000431060791015625
ell 20, elapsed: 0.00043892860412597656
ell 19, elapsed: 0.00043892860412597656
ell 18, elapsed: 0.0004398822784423828
ell 17, elapsed: 0.0004291534423828125
ell 16, elapsed: 0.0004429817199707031
ell 15, elapsed: 0.000431060791015625
ell 14, elapsed: 0.00044608116149902344
ell 13, elapsed: 0.00046896934509277344
ell 12, elapsed: 0.00044989585876464844
ell 11, elapsed: 0.0004398822784423828
ell 10, elapsed: 0.0004439353942871094
ell 9, elapsed: 0.0004429817199707031
ell 8, elapsed: 0.0004420280456542969
ell 7, elapsed: 0.0004410743713378906
ell 6, elapsed: 0.0004401206970214844
ell 5, elapsed: 0.0005290508270263672
ell 4, elapsed: 0.00044989585876464844
ell 3, elapsed: 0.0004360675811767578
ell 2, elapsed: 0.00043582916259765625
ell 1, elapsed: 0.0004279613494873047
ell 0, elapsed: 0.0004360675811767578
  1.643723 seconds (1.40 M allocations: 76.281 MiB, 1.18% gc time, 92.68% compilation time)
elapsed: 0.0005300045013427734
step:          0.292351 sec (315.761 k allocations: 17.395 MB, 0.0% gc time)
swapping:      0.000341 sec (0 allocations: 0 byte, 0.0% gc time)
calc_Mellell!: 0.113377 sec (137.693 k allocations: 7.624 MB, 0.0% gc time)
  t0 :  0.0 sec (0 allocations: 0 byte, 0.0% gc time)
  tm2 : 0.0 sec (0 allocations: 0 byte, 0.0% gc time)
  tm2s: 0.0 sec (0 allocations: 0 byte, 0.0% gc time)
  tm4 : 0.0 sec (0 allocations: 0 byte, 0.0% gc time)
  tp2 : 0.0 sec (0 allocations: 0 byte, 0.0% gc time)
  tp2s: 0.0 sec (0 allocations: 0 byte, 0.0% gc time)
  tp4 : 0.0 sec (0 allocations: 0 byte, 0.0% gc time)
calc_wtdll!:   0.778644 sec (515.0 k allocations: 28.644 MB, 2.49% gc time)
calc_wljj!:    0.002233 sec (6 allocations: 96 byte, 0.0% gc time)
mult_prefac!:  0.0 sec (0 allocations: 0 byte, 0.0% gc time)
convert:       0.0 sec (0 allocations: 0 byte, 0.0% gc time)
write:         0.003298 sec (0 allocations: 0 byte, 0.0% gc time)
test_rand_2f1: 0.0 sec (0 allocations: 0 byte, 0.0% gc time)
Closing outfile out/Ml21-cache.bin...   0.000016 seconds
  1.077863 seconds (251.76 k allocations: 14.640 MiB, 5.16% gc time, 48.93% compilation time)
make_phi():   0.008994 seconds (8.19 k allocations: 238.078 KiB)
  0.228412 seconds (89.37 k allocations: 4.883 MiB, 89.74% compilation time)
tskip:       1.4e-5 sec (0 allocations: 0 byte, 0.0% gc time)
tread:       0.002082 sec (17 allocations: 2.125 KB, 0.0% gc time)
tmultphi:    0.040553 sec (22.005 k allocations: 1.33 MB, 0.0% gc time)
tbrfft:      0.003067 sec (0 allocations: 0 byte, 0.0% gc time)
tmultprefac: 0.001632 sec (0 allocations: 0 byte, 0.0% gc time)
toutfunc:    0.147346 sec (65.704 k allocations: 3.421 MB, 0.0% gc time)
Testing R=1.1 ... passed
Calculating fmax: 
  dlrec    = 4
  dlrecRg1 = -4
  q=1.1, R=1.0:	  0.001624 seconds (3.20 k allocations: 275.344 KiB)

  0.001776 seconds (3.25 k allocations: 310.250 KiB)
ℓ = 1202
Δℓ = 4
ΔℓRg1 = -4
N = 1600
q = 1.1
kmin = 1.0e-5
kmax = 100000.00000000004
χ0 = 0.023029999999999995
RR = RR.tsv
ℓmax = ℓmax.bin
f21 = f21.bin
kmin = 1.0e-5
kmax = 100000.0
dlrec    = 4
dlrecRg1 = -4
Output size: 61465536 bytes = 0.05724424123764038 GiB
Output size: 51264 bytes = 4.774332046508789e-5 GiB
Reading 'out/F21EllCache'...   0.004997 seconds (197 allocations: 84.203 KiB)
ellmax: 1202
lmaxcache: 1202
fell[:,1,1] = ComplexF64[809.6031528389767 - 1.9829558194077161e-13im, 0.0 + 0.0im]
ell 1202, elapsed: 1.6927719116210938e-5
ell 1201, elapsed: 0.012473106384277344
ell 1200, elapsed: 0.013395071029663086
ell 1199, elapsed: 0.0002589225769042969
ell 1198, elapsed: 0.00025177001953125
ell 1197, elapsed: 0.0003361701965332031
ell 1196, elapsed: 0.0002830028533935547
ell 1195, elapsed: 0.0002760887145996094
ell 1194, elapsed: 0.0002970695495605469
ell 1193, elapsed: 0.0002741813659667969
ell 1192, elapsed: 0.0002799034118652344
ell 1191, elapsed: 0.0002751350402832031
ell 1190, elapsed: 0.0002830028533935547
ell 1189, elapsed: 0.0002770423889160156
ell 1188, elapsed: 0.0002880096435546875
ell 1187, elapsed: 0.0002810955047607422
ell 1186, elapsed: 0.00028204917907714844
ell 1185, elapsed: 0.00028514862060546875
ell 1184, elapsed: 0.0002799034118652344
ell 1183, elapsed: 0.0002810955047607422
ell 1182, elapsed: 0.00028514862060546875
ell 1181, elapsed: 0.0002770423889160156
ell 1180, elapsed: 0.0003299713134765625
ell 1179, elapsed: 0.00028204917907714844
ell 1178, elapsed: 0.0002791881561279297
ell 1177, elapsed: 0.00028514862060546875
ell 1176, elapsed: 0.0002760887145996094
ell 1175, elapsed: 0.00029087066650390625
ell 1174, elapsed: 0.0002770423889160156
ell 1173, elapsed: 0.0002808570861816406
ell 1172, elapsed: 0.0002799034118652344
ell 1171, elapsed: 0.0002789497375488281
ell 1170, elapsed: 0.00029015541076660156
ell 1169, elapsed: 0.0002911090850830078
ell 1168, elapsed: 0.0003058910369873047
ell 1167, elapsed: 0.00030994415283203125
ell 1166, elapsed: 0.00028705596923828125
ell 1165, elapsed: 0.0003120899200439453
ell 1164, elapsed: 0.0002949237823486328
ell 1163, elapsed: 0.0003001689910888672
ell 1162, elapsed: 0.00029206275939941406
ell 1161, elapsed: 0.00029206275939941406
ell 1160, elapsed: 0.0002980232238769531
ell 1159, elapsed: 0.00029206275939941406
ell 1158, elapsed: 0.0003008842468261719
ell 1157, elapsed: 0.00029397010803222656
ell 1156, elapsed: 0.0002968311309814453
ell 1155, elapsed: 0.0003330707550048828
ell 1154, elapsed: 0.0002942085266113281
ell 1153, elapsed: 0.0002999305725097656
ell 1152, elapsed: 0.0002930164337158203
ell 1151, elapsed: 0.0002930164337158203
ell 1150, elapsed: 0.0002968311309814453
ell 1149, elapsed: 0.0003039836883544922
ell 1148, elapsed: 0.0003008842468261719
ell 1147, elapsed: 0.0002930164337158203
ell 1146, elapsed: 0.0002949237823486328
ell 1145, elapsed: 0.0002989768981933594
ell 1144, elapsed: 0.0002961158752441406
ell 1143, elapsed: 0.0003058910369873047
ell 1142, elapsed: 0.0003139972686767578
ell 1141, elapsed: 0.0002930164337158203
ell 1140, elapsed: 0.0003070831298828125
ell 1139, elapsed: 0.0002989768981933594
ell 1138, elapsed: 0.0003020763397216797
ell 1137, elapsed: 0.00029397010803222656
ell 1136, elapsed: 0.0002951622009277344
ell 1135, elapsed: 0.0003018379211425781
ell 1134, elapsed: 0.0002949237823486328
ell 1133, elapsed: 0.0002989768981933594
ell 1132, elapsed: 0.00029397010803222656
ell 1131, elapsed: 0.00029397010803222656
ell 1130, elapsed: 0.0002999305725097656
ell 1129, elapsed: 0.0003170967102050781
ell 1128, elapsed: 0.0003001689910888672
ell 1127, elapsed: 0.00029397010803222656
ell 1126, elapsed: 0.0002949237823486328
ell 1125, elapsed: 0.0002989768981933594
ell 1124, elapsed: 0.00029397010803222656
ell 1123, elapsed: 0.00029778480529785156
ell 1122, elapsed: 0.0002951622009277344
ell 1121, elapsed: 0.0002980232238769531
ell 1120, elapsed: 0.0002951622009277344
ell 1119, elapsed: 0.0002949237823486328
ell 1118, elapsed: 0.0002989768981933594
ell 1117, elapsed: 0.0003368854522705078
ell 1116, elapsed: 0.0002560615539550781
ell 1115, elapsed: 0.0002429485321044922
ell 1114, elapsed: 0.00024890899658203125
ell 1113, elapsed: 0.00025081634521484375
ell 1112, elapsed: 0.0002448558807373047
ell 1111, elapsed: 0.00025200843811035156
ell 1110, elapsed: 0.000244140625
ell 1109, elapsed: 0.00023794174194335938
ell 1108, elapsed: 0.0002510547637939453
ell 1107, elapsed: 0.00024390220642089844
ell 1106, elapsed: 0.00025582313537597656
ell 1105, elapsed: 0.0002429485321044922
ell 1104, elapsed: 0.00024199485778808594
ell 1103, elapsed: 0.00024509429931640625
ell 1102, elapsed: 0.00024008750915527344
ell 1101, elapsed: 0.0003180503845214844
ell 1100, elapsed: 0.0002911090850830078
ell 1099, elapsed: 0.0003039836883544922
ell 1098, elapsed: 0.0002989768981933594
ell 1097, elapsed: 0.0002970695495605469
ell 1096, elapsed: 0.00030303001403808594
ell 1095, elapsed: 0.00029587745666503906
ell 1094, elapsed: 0.0002980232238769531
ell 1093, elapsed: 0.0002999305725097656
ell 1092, elapsed: 0.0002942085266113281
ell 1091, elapsed: 0.00031685829162597656
ell 1090, elapsed: 0.0002961158752441406
ell 1089, elapsed: 0.0003139972686767578
ell 1088, elapsed: 0.00029206275939941406
ell 1087, elapsed: 0.00028204917907714844
ell 1086, elapsed: 0.0002818107604980469
ell 1085, elapsed: 0.00026798248291015625
ell 1084, elapsed: 0.00027298927307128906
ell 1083, elapsed: 0.0002701282501220703
ell 1082, elapsed: 0.0002689361572265625
ell 1081, elapsed: 0.00027489662170410156
ell 1080, elapsed: 0.0016460418701171875
ell 1079, elapsed: 0.0002808570861816406
ell 1078, elapsed: 0.0002701282501220703
ell 1077, elapsed: 0.00026488304138183594
ell 1076, elapsed: 0.00026988983154296875
ell 1075, elapsed: 0.0002620220184326172
ell 1074, elapsed: 0.00026607513427734375
ell 1073, elapsed: 0.0002639293670654297
ell 1072, elapsed: 0.0002620220184326172
ell 1071, elapsed: 0.0002639293670654297
ell 1070, elapsed: 0.00026106834411621094
ell 1069, elapsed: 0.0002570152282714844
ell 1068, elapsed: 0.00026416778564453125
ell 1067, elapsed: 0.0002579689025878906
ell 1066, elapsed: 0.0002658367156982422
ell 1065, elapsed: 0.0004069805145263672
ell 1064, elapsed: 0.0003180503845214844
ell 1063, elapsed: 0.00030803680419921875
ell 1062, elapsed: 0.0002830028533935547
ell 1061, elapsed: 0.00028896331787109375
ell 1060, elapsed: 0.00028395652770996094
ell 1059, elapsed: 0.00028896331787109375
ell 1058, elapsed: 0.0002810955047607422
ell 1057, elapsed: 0.0002930164337158203
ell 1056, elapsed: 0.00029015541076660156
ell 1055, elapsed: 0.00028586387634277344
ell 1054, elapsed: 0.0002880096435546875
ell 1053, elapsed: 0.00041985511779785156
ell 1052, elapsed: 0.00031495094299316406
ell 1051, elapsed: 0.0002961158752441406
ell 1050, elapsed: 0.0002830028533935547
ell 1049, elapsed: 0.0002899169921875
ell 1048, elapsed: 0.0002918243408203125
ell 1047, elapsed: 0.0002911090850830078
ell 1046, elapsed: 0.0002949237823486328
ell 1045, elapsed: 0.0002980232238769531
ell 1044, elapsed: 0.0002970695495605469
ell 1043, elapsed: 0.00029087066650390625
ell 1042, elapsed: 0.0002980232238769531
ell 1041, elapsed: 0.0003039836883544922
ell 1040, elapsed: 0.0003528594970703125
ell 1039, elapsed: 0.0003268718719482422
ell 1038, elapsed: 0.0003008842468261719
ell 1037, elapsed: 0.0002961158752441406
ell 1036, elapsed: 0.0003001689910888672
ell 1035, elapsed: 0.00029587745666503906
ell 1034, elapsed: 0.0002989768981933594
ell 1033, elapsed: 0.0002942085266113281
ell 1032, elapsed: 0.0003008842468261719
ell 1031, elapsed: 0.0002989768981933594
ell 1030, elapsed: 0.0002961158752441406
ell 1029, elapsed: 0.0003120899200439453
ell 1028, elapsed: 0.00035309791564941406
ell 1027, elapsed: 0.0003268718719482422
ell 1026, elapsed: 0.00030517578125
ell 1025, elapsed: 0.0003020763397216797
ell 1024, elapsed: 0.00030493736267089844
ell 1023, elapsed: 0.0002968311309814453
ell 1022, elapsed: 0.0002999305725097656
ell 1021, elapsed: 0.00030303001403808594
ell 1020, elapsed: 0.0003039836883544922
ell 1019, elapsed: 0.0003039836883544922
ell 1018, elapsed: 0.0003039836883544922
ell 1017, elapsed: 0.0002980232238769531
ell 1016, elapsed: 0.0004489421844482422
ell 1015, elapsed: 0.00032591819763183594
ell 1014, elapsed: 0.00031304359436035156
ell 1013, elapsed: 0.00029587745666503906
ell 1012, elapsed: 0.00030803680419921875
ell 1011, elapsed: 0.0003039836883544922
ell 1010, elapsed: 0.0002949237823486328
ell 1009, elapsed: 0.00030493736267089844
ell 1008, elapsed: 0.0002970695495605469
ell 1007, elapsed: 0.0002999305725097656
ell 1006, elapsed: 0.0002961158752441406
ell 1005, elapsed: 0.0002949237823486328
ell 1004, elapsed: 0.0003421306610107422
ell 1003, elapsed: 0.0002970695495605469
ell 1002, elapsed: 0.0003058910369873047
ell 1001, elapsed: 0.0002930164337158203
ell 1000, elapsed: 0.0002951622009277344
ell 999, elapsed: 0.000308990478515625
ell 998, elapsed: 0.0002970695495605469
ell 997, elapsed: 0.00030493736267089844
ell 996, elapsed: 0.0002989768981933594
ell 995, elapsed: 0.0002989768981933594
ell 994, elapsed: 0.0003039836883544922
ell 993, elapsed: 0.0002999305725097656
ell 992, elapsed: 0.0003521442413330078
ell 991, elapsed: 0.0003008842468261719
ell 990, elapsed: 0.00030303001403808594
ell 989, elapsed: 0.00030303001403808594
ell 988, elapsed: 0.0002970695495605469
ell 987, elapsed: 0.0003020763397216797
ell 986, elapsed: 0.00029397010803222656
ell 985, elapsed: 0.00029397010803222656
ell 984, elapsed: 0.0002980232238769531
ell 983, elapsed: 0.0002961158752441406
ell 982, elapsed: 0.0002980232238769531
ell 981, elapsed: 0.0002989768981933594
ell 980, elapsed: 0.0002942085266113281
ell 979, elapsed: 0.000331878662109375
ell 978, elapsed: 0.0002970695495605469
ell 977, elapsed: 0.0003180503845214844
ell 976, elapsed: 0.00029587745666503906
ell 975, elapsed: 0.0002961158752441406
ell 974, elapsed: 0.00030112266540527344
ell 973, elapsed: 0.0002980232238769531
ell 972, elapsed: 0.0003018379211425781
ell 971, elapsed: 0.0002989768981933594
ell 970, elapsed: 0.00029397010803222656
ell 969, elapsed: 0.0003020763397216797
ell 968, elapsed: 0.00029397010803222656
ell 967, elapsed: 0.0003540515899658203
ell 966, elapsed: 0.0002989768981933594
ell 965, elapsed: 0.0002949237823486328
ell 964, elapsed: 0.0002999305725097656
ell 963, elapsed: 0.00029397010803222656
ell 962, elapsed: 0.0003020763397216797
ell 961, elapsed: 0.00029397010803222656
ell 960, elapsed: 0.0002999305725097656
ell 959, elapsed: 0.0002911090850830078
ell 958, elapsed: 0.00029206275939941406
ell 957, elapsed: 0.0002968311309814453
ell 956, elapsed: 0.0002930164337158203
ell 955, elapsed: 0.0002980232238769531
ell 954, elapsed: 0.0003361701965332031
ell 953, elapsed: 0.00026798248291015625
ell 952, elapsed: 0.0002760887145996094
ell 951, elapsed: 0.0002651214599609375
ell 950, elapsed: 0.0002732276916503906
ell 949, elapsed: 0.0002639293670654297
ell 948, elapsed: 0.0002658367156982422
ell 947, elapsed: 0.00027298927307128906
ell 946, elapsed: 0.00026798248291015625
ell 945, elapsed: 0.0002789497375488281
ell 944, elapsed: 0.00026297569274902344
ell 943, elapsed: 0.00026488304138183594
ell 942, elapsed: 0.0002720355987548828
ell 941, elapsed: 0.0002689361572265625
ell 940, elapsed: 0.008430004119873047
ell 939, elapsed: 0.00037288665771484375
ell 938, elapsed: 0.00032401084899902344
ell 937, elapsed: 0.00030303001403808594
ell 936, elapsed: 0.00045609474182128906
ell 935, elapsed: 0.0004420280456542969
ell 934, elapsed: 0.0003409385681152344
ell 933, elapsed: 0.00030303001403808594
ell 932, elapsed: 0.0003039836883544922
ell 931, elapsed: 0.00030803680419921875
ell 930, elapsed: 0.000682830810546875
ell 929, elapsed: 0.0003631114959716797
ell 928, elapsed: 0.0004360675811767578
ell 927, elapsed: 0.00031185150146484375
ell 926, elapsed: 0.0003020763397216797
ell 925, elapsed: 0.00030303001403808594
ell 924, elapsed: 0.00031113624572753906
ell 923, elapsed: 0.00035381317138671875
ell 922, elapsed: 0.0006330013275146484
ell 921, elapsed: 0.0003039836883544922
ell 920, elapsed: 0.0004000663757324219
ell 919, elapsed: 0.0003311634063720703
ell 918, elapsed: 0.0003139972686767578
ell 917, elapsed: 0.00031685829162597656
ell 916, elapsed: 0.00030994415283203125
ell 915, elapsed: 0.0003070831298828125
ell 914, elapsed: 0.0003619194030761719
ell 913, elapsed: 0.00034499168395996094
ell 912, elapsed: 0.00030493736267089844
ell 911, elapsed: 0.000308990478515625
ell 910, elapsed: 0.000308990478515625
ell 909, elapsed: 0.0002989768981933594
ell 908, elapsed: 0.00029087066650390625
ell 907, elapsed: 0.0002989768981933594
ell 906, elapsed: 0.00029397010803222656
ell 905, elapsed: 0.00029397010803222656
ell 904, elapsed: 0.0002989768981933594
ell 903, elapsed: 0.0002930164337158203
ell 902, elapsed: 0.0002980232238769531
ell 901, elapsed: 0.0002930164337158203
ell 900, elapsed: 0.00032210350036621094
ell 899, elapsed: 0.0002980232238769531
ell 898, elapsed: 0.0002930164337158203
ell 897, elapsed: 0.0003020763397216797
ell 896, elapsed: 0.00037789344787597656
ell 895, elapsed: 0.0003349781036376953
ell 894, elapsed: 0.0003161430358886719
ell 893, elapsed: 0.00035691261291503906
ell 892, elapsed: 0.0003540515899658203
ell 891, elapsed: 0.00039887428283691406
ell 890, elapsed: 0.00030517578125
ell 889, elapsed: 0.00034880638122558594
ell 888, elapsed: 0.0002970695495605469
ell 887, elapsed: 0.0002970695495605469
ell 886, elapsed: 0.0002930164337158203
ell 885, elapsed: 0.0002918243408203125
ell 884, elapsed: 0.00029921531677246094
ell 883, elapsed: 0.0002899169921875
ell 882, elapsed: 0.00030303001403808594
ell 881, elapsed: 0.00029206275939941406
ell 880, elapsed: 0.00029206275939941406
ell 879, elapsed: 0.0002989768981933594
ell 878, elapsed: 0.0002911090850830078
ell 877, elapsed: 0.00029277801513671875
ell 876, elapsed: 0.00029397010803222656
ell 875, elapsed: 0.0002949237823486328
ell 874, elapsed: 0.0002989768981933594
ell 873, elapsed: 0.00028896331787109375
ell 872, elapsed: 0.0003001689910888672
ell 871, elapsed: 0.0002911090850830078
ell 870, elapsed: 0.0002961158752441406
ell 869, elapsed: 0.0002930164337158203
ell 868, elapsed: 0.0003211498260498047
ell 867, elapsed: 0.0003058910369873047
ell 866, elapsed: 0.0002911090850830078
ell 865, elapsed: 0.0002949237823486328
ell 864, elapsed: 0.0002899169921875
ell 863, elapsed: 0.0002899169921875
ell 862, elapsed: 0.00030112266540527344
ell 861, elapsed: 0.0002868175506591797
ell 860, elapsed: 0.00029397010803222656
ell 859, elapsed: 0.00029087066650390625
ell 858, elapsed: 0.00028896331787109375
ell 857, elapsed: 0.0002961158752441406
ell 856, elapsed: 0.0002918243408203125
ell 855, elapsed: 0.00035309791564941406
ell 854, elapsed: 0.00029206275939941406
ell 853, elapsed: 0.00029397010803222656
ell 852, elapsed: 0.00029206275939941406
ell 851, elapsed: 0.00028705596923828125
ell 850, elapsed: 0.0003001689910888672
ell 849, elapsed: 0.00029397010803222656
ell 848, elapsed: 0.0002899169921875
ell 847, elapsed: 0.0002980232238769531
ell 846, elapsed: 0.00028705596923828125
ell 845, elapsed: 0.0002980232238769531
ell 844, elapsed: 0.000286102294921875
ell 843, elapsed: 0.0002880096435546875
ell 842, elapsed: 0.0003209114074707031
ell 841, elapsed: 0.00028705596923828125
ell 840, elapsed: 0.0002899169921875
ell 839, elapsed: 0.00028586387634277344
ell 838, elapsed: 0.000286102294921875
ell 837, elapsed: 0.00029587745666503906
ell 836, elapsed: 0.000286102294921875
ell 835, elapsed: 0.0002930164337158203
ell 834, elapsed: 0.000286102294921875
ell 833, elapsed: 0.00028586387634277344
ell 832, elapsed: 0.00029087066650390625
ell 831, elapsed: 0.0002830028533935547
ell 830, elapsed: 0.0003020763397216797
ell 829, elapsed: 0.004467964172363281
ell 828, elapsed: 0.00029206275939941406
ell 827, elapsed: 0.0002849102020263672
ell 826, elapsed: 0.0002799034118652344
ell 825, elapsed: 0.0002868175506591797
ell 824, elapsed: 0.0002918243408203125
ell 823, elapsed: 0.0002810955047607422
ell 822, elapsed: 0.00029206275939941406
ell 821, elapsed: 0.0002810955047607422
ell 820, elapsed: 0.0002880096435546875
ell 819, elapsed: 0.00028204917907714844
ell 818, elapsed: 0.00029206275939941406
ell 817, elapsed: 0.00028204917907714844
ell 816, elapsed: 0.0002880096435546875
ell 815, elapsed: 0.0002880096435546875
ell 814, elapsed: 0.000286102294921875
ell 813, elapsed: 0.00028514862060546875
ell 812, elapsed: 0.0002799034118652344
ell 811, elapsed: 0.0002791881561279297
ell 810, elapsed: 0.00028705596923828125
ell 809, elapsed: 0.0002799034118652344
ell 808, elapsed: 0.00028896331787109375
ell 807, elapsed: 0.0002789497375488281
ell 806, elapsed: 0.00028395652770996094
ell 805, elapsed: 0.0002849102020263672
ell 804, elapsed: 0.0002911090850830078
ell 803, elapsed: 0.0004138946533203125
ell 802, elapsed: 0.00028395652770996094
ell 801, elapsed: 0.00028586387634277344
ell 800, elapsed: 0.0002911090850830078
ell 799, elapsed: 0.00028705596923828125
ell 798, elapsed: 0.0002980232238769531
ell 797, elapsed: 0.00029206275939941406
ell 796, elapsed: 0.000286102294921875
ell 795, elapsed: 0.00030612945556640625
ell 794, elapsed: 0.0002899169921875
ell 793, elapsed: 0.00030303001403808594
ell 792, elapsed: 0.00029587745666503906
ell 791, elapsed: 0.00041794776916503906
ell 790, elapsed: 0.0003039836883544922
ell 789, elapsed: 0.00029206275939941406
ell 788, elapsed: 0.00028896331787109375
ell 787, elapsed: 0.00028705596923828125
ell 786, elapsed: 0.0002942085266113281
ell 785, elapsed: 0.0002951622009277344
ell 784, elapsed: 0.0002918243408203125
ell 783, elapsed: 0.00029397010803222656
ell 782, elapsed: 0.00029206275939941406
ell 781, elapsed: 0.00028705596923828125
ell 780, elapsed: 0.00029206275939941406
ell 779, elapsed: 0.00029397010803222656
ell 778, elapsed: 0.0004239082336425781
ell 777, elapsed: 0.00029397010803222656
ell 776, elapsed: 0.00028705596923828125
ell 775, elapsed: 0.00029587745666503906
ell 774, elapsed: 0.00028896331787109375
ell 773, elapsed: 0.0002961158752441406
ell 772, elapsed: 0.0002918243408203125
ell 771, elapsed: 0.0002918243408203125
ell 770, elapsed: 0.0003008842468261719
ell 769, elapsed: 0.0014071464538574219
ell 768, elapsed: 0.0002980232238769531
ell 767, elapsed: 0.00028586387634277344
ell 766, elapsed: 0.0002911090850830078
ell 765, elapsed: 0.0002818107604980469
ell 764, elapsed: 0.0002841949462890625
ell 763, elapsed: 0.0002911090850830078
ell 762, elapsed: 0.00028395652770996094
ell 761, elapsed: 0.0002911090850830078
ell 760, elapsed: 0.0002808570861816406
ell 759, elapsed: 0.0002810955047607422
ell 758, elapsed: 0.00028896331787109375
ell 757, elapsed: 0.0002791881561279297
ell 756, elapsed: 0.00031185150146484375
ell 755, elapsed: 0.0002841949462890625
ell 754, elapsed: 0.00028514862060546875
ell 753, elapsed: 0.00028395652770996094
ell 752, elapsed: 0.0002830028533935547
ell 751, elapsed: 0.0002830028533935547
ell 750, elapsed: 0.0002791881561279297
ell 749, elapsed: 0.0002808570861816406
ell 748, elapsed: 0.0002849102020263672
ell 747, elapsed: 0.0002899169921875
ell 746, elapsed: 0.0002899169921875
ell 745, elapsed: 0.0002830028533935547
ell 744, elapsed: 0.0002930164337158203
ell 743, elapsed: 0.00032901763916015625
ell 742, elapsed: 0.00028395652770996094
ell 741, elapsed: 0.0002849102020263672
ell 740, elapsed: 0.00028014183044433594
ell 739, elapsed: 0.00028896331787109375
ell 738, elapsed: 0.0002989768981933594
ell 737, elapsed: 0.00029206275939941406
ell 736, elapsed: 0.0002930164337158203
ell 735, elapsed: 0.00029397010803222656
ell 734, elapsed: 0.00030112266540527344
ell 733, elapsed: 0.0003001689910888672
ell 732, elapsed: 0.0002911090850830078
ell 731, elapsed: 0.0002980232238769531
ell 730, elapsed: 0.0003249645233154297
ell 729, elapsed: 0.0002930164337158203
ell 728, elapsed: 0.00030303001403808594
ell 727, elapsed: 0.0002949237823486328
ell 726, elapsed: 0.0002999305725097656
ell 725, elapsed: 0.00029587745666503906
ell 724, elapsed: 0.0002961158752441406
ell 723, elapsed: 0.0002999305725097656
ell 722, elapsed: 0.0002949237823486328
ell 721, elapsed: 0.0002989768981933594
ell 720, elapsed: 0.0002911090850830078
ell 719, elapsed: 0.00029087066650390625
ell 718, elapsed: 0.00029921531677246094
ell 717, elapsed: 0.00032401084899902344
ell 716, elapsed: 0.0002980232238769531
ell 715, elapsed: 0.0003008842468261719
ell 714, elapsed: 0.0002949237823486328
ell 713, elapsed: 0.00030112266540527344
ell 712, elapsed: 0.0003018379211425781
ell 711, elapsed: 0.00030303001403808594
ell 710, elapsed: 0.0002930164337158203
ell 709, elapsed: 0.0003020763397216797
ell 708, elapsed: 0.0002970695495605469
ell 707, elapsed: 0.00029397010803222656
ell 706, elapsed: 0.00030803680419921875
ell 705, elapsed: 0.00033783912658691406
ell 704, elapsed: 0.00030517578125
ell 703, elapsed: 0.0002949237823486328
ell 702, elapsed: 0.0002961158752441406
ell 701, elapsed: 0.0002980232238769531
ell 700, elapsed: 0.0002949237823486328
ell 699, elapsed: 0.00030493736267089844
ell 698, elapsed: 0.0002961158752441406
ell 697, elapsed: 0.0003039836883544922
ell 696, elapsed: 0.00030303001403808594
ell 695, elapsed: 0.0002989768981933594
ell 694, elapsed: 0.0003039836883544922
ell 693, elapsed: 0.00030803680419921875
ell 692, elapsed: 0.0004131793975830078
ell 691, elapsed: 0.0003199577331542969
ell 690, elapsed: 0.0002949237823486328
ell 689, elapsed: 0.00030112266540527344
ell 688, elapsed: 0.0002970695495605469
ell 687, elapsed: 0.0002949237823486328
ell 686, elapsed: 0.0003020763397216797
ell 685, elapsed: 0.0002930164337158203
ell 684, elapsed: 0.00029397010803222656
ell 683, elapsed: 0.0002911090850830078
ell 682, elapsed: 0.0002930164337158203
ell 681, elapsed: 0.0002980232238769531
ell 680, elapsed: 0.00034689903259277344
ell 679, elapsed: 0.0002989768981933594
ell 678, elapsed: 0.00029587745666503906
ell 677, elapsed: 0.00029397010803222656
ell 676, elapsed: 0.0003161430358886719
ell 675, elapsed: 0.0002970695495605469
ell 674, elapsed: 0.0002949237823486328
ell 673, elapsed: 0.00029206275939941406
ell 672, elapsed: 0.0002880096435546875
ell 671, elapsed: 0.0002999305725097656
ell 670, elapsed: 0.00028705596923828125
ell 669, elapsed: 0.0002989768981933594
ell 668, elapsed: 0.0002918243408203125
ell 667, elapsed: 0.00035500526428222656
ell 666, elapsed: 0.0003039836883544922
ell 665, elapsed: 0.00029206275939941406
ell 664, elapsed: 0.0002949237823486328
ell 663, elapsed: 0.0002899169921875
ell 662, elapsed: 0.0002911090850830078
ell 661, elapsed: 0.0002989768981933594
ell 660, elapsed: 0.0002911090850830078
ell 659, elapsed: 0.005810976028442383
ell 658, elapsed: 0.00029087066650390625
ell 657, elapsed: 0.0002999305725097656
ell 656, elapsed: 0.0002949237823486328
ell 655, elapsed: 0.00029397010803222656
ell 654, elapsed: 0.0003020763397216797
ell 653, elapsed: 0.0002930164337158203
ell 652, elapsed: 0.0003039836883544922
ell 651, elapsed: 0.0003008842468261719
ell 650, elapsed: 0.0002911090850830078
ell 649, elapsed: 0.00030612945556640625
ell 648, elapsed: 0.0002949237823486328
ell 647, elapsed: 0.00035309791564941406
ell 646, elapsed: 0.0003008842468261719
ell 645, elapsed: 0.0003120899200439453
ell 644, elapsed: 0.00029397010803222656
ell 643, elapsed: 0.00029397010803222656
ell 642, elapsed: 0.0003039836883544922
ell 641, elapsed: 0.0002951622009277344
ell 640, elapsed: 0.0002930164337158203
ell 639, elapsed: 0.00030112266540527344
ell 638, elapsed: 0.00029087066650390625
ell 637, elapsed: 0.0003008842468261719
ell 636, elapsed: 0.00030112266540527344
ell 635, elapsed: 0.00029206275939941406
ell 634, elapsed: 0.0003299713134765625
ell 633, elapsed: 0.0002930164337158203
ell 632, elapsed: 0.000308990478515625
ell 631, elapsed: 0.00028896331787109375
ell 630, elapsed: 0.0003020763397216797
ell 629, elapsed: 0.00029397010803222656
ell 628, elapsed: 0.00028896331787109375
ell 627, elapsed: 0.0002911090850830078
ell 626, elapsed: 0.0002899169921875
ell 625, elapsed: 0.0002892017364501953
ell 624, elapsed: 0.00029087066650390625
ell 623, elapsed: 0.0002880096435546875
ell 622, elapsed: 0.00034809112548828125
ell 621, elapsed: 0.00028896331787109375
ell 620, elapsed: 0.000308990478515625
ell 619, elapsed: 0.00028896331787109375
ell 618, elapsed: 0.00029206275939941406
ell 617, elapsed: 0.0002980232238769531
ell 616, elapsed: 0.0002930164337158203
ell 615, elapsed: 0.0002980232238769531
ell 614, elapsed: 0.00029397010803222656
ell 613, elapsed: 0.0002968311309814453
ell 612, elapsed: 0.00029587745666503906
ell 611, elapsed: 0.00029587745666503906
ell 610, elapsed: 0.0002989768981933594
ell 609, elapsed: 0.0003211498260498047
ell 608, elapsed: 0.00029015541076660156
ell 607, elapsed: 0.0002999305725097656
ell 606, elapsed: 0.0002911090850830078
ell 605, elapsed: 0.0002989768981933594
ell 604, elapsed: 0.0002911090850830078
ell 603, elapsed: 0.00029087066650390625
ell 602, elapsed: 0.00029778480529785156
ell 601, elapsed: 0.0002961158752441406
ell 600, elapsed: 0.00031495094299316406
ell 599, elapsed: 0.0002980232238769531
ell 598, elapsed: 0.00029206275939941406
ell 597, elapsed: 0.0002989768981933594
ell 596, elapsed: 0.00034618377685546875
ell 595, elapsed: 0.0002989768981933594
ell 594, elapsed: 0.0002980232238769531
ell 593, elapsed: 0.0003018379211425781
ell 592, elapsed: 0.0002880096435546875
ell 591, elapsed: 0.00029397010803222656
ell 590, elapsed: 0.00030422210693359375
ell 589, elapsed: 0.0002880096435546875
ell 588, elapsed: 0.00032901763916015625
ell 587, elapsed: 0.0002899169921875
ell 586, elapsed: 0.0002849102020263672
ell 585, elapsed: 0.00029397010803222656
ell 584, elapsed: 0.0003190040588378906
ell 583, elapsed: 0.0003540515899658203
ell 582, elapsed: 0.00028896331787109375
ell 581, elapsed: 0.00029206275939941406
ell 580, elapsed: 0.00029587745666503906
ell 579, elapsed: 0.00029015541076660156
ell 578, elapsed: 0.00029397010803222656
ell 577, elapsed: 0.00028514862060546875
ell 576, elapsed: 0.0002880096435546875
ell 575, elapsed: 0.0002892017364501953
ell 574, elapsed: 0.0002830028533935547
ell 573, elapsed: 0.00028896331787109375
ell 572, elapsed: 0.00028896331787109375
ell 571, elapsed: 0.0003361701965332031
ell 570, elapsed: 0.0002989768981933594
ell 569, elapsed: 0.0002980232238769531
ell 568, elapsed: 0.00029587745666503906
ell 567, elapsed: 0.00029397010803222656
ell 566, elapsed: 0.00030303001403808594
ell 565, elapsed: 0.00029397010803222656
ell 564, elapsed: 0.0002930164337158203
ell 563, elapsed: 0.0002930164337158203
ell 562, elapsed: 0.0002911090850830078
ell 561, elapsed: 0.00029206275939941406
ell 560, elapsed: 0.0002999305725097656
ell 559, elapsed: 0.00029206275939941406
ell 558, elapsed: 0.0003330707550048828
ell 557, elapsed: 0.0002918243408203125
ell 556, elapsed: 0.0003008842468261719
ell 555, elapsed: 0.00029087066650390625
ell 554, elapsed: 0.0002930164337158203
ell 553, elapsed: 0.0002949237823486328
ell 552, elapsed: 0.0002951622009277344
ell 551, elapsed: 0.0002970695495605469
ell 550, elapsed: 0.0002899169921875
ell 549, elapsed: 0.00028514862060546875
ell 548, elapsed: 0.00029397010803222656
ell 547, elapsed: 0.0002849102020263672
ell 546, elapsed: 0.01156306266784668
ell 545, elapsed: 0.00027489662170410156
ell 544, elapsed: 0.0002570152282714844
ell 543, elapsed: 0.000286102294921875
ell 542, elapsed: 0.0002529621124267578
ell 541, elapsed: 0.0002548694610595703
ell 540, elapsed: 0.00025010108947753906
ell 539, elapsed: 0.00025200843811035156
ell 538, elapsed: 0.0002601146697998047
ell 537, elapsed: 0.00026106834411621094
ell 536, elapsed: 0.0002560615539550781
ell 535, elapsed: 0.00025200843811035156
ell 534, elapsed: 0.0002510547637939453
ell 533, elapsed: 0.0002658367156982422
ell 532, elapsed: 0.00025582313537597656
ell 531, elapsed: 0.0002598762512207031
ell 530, elapsed: 0.0002541542053222656
ell 529, elapsed: 0.0002620220184326172
ell 528, elapsed: 0.00041413307189941406
ell 527, elapsed: 0.0002620220184326172
ell 526, elapsed: 0.00026416778564453125
ell 525, elapsed: 0.0002601146697998047
ell 524, elapsed: 0.00026297569274902344
ell 523, elapsed: 0.0002682209014892578
ell 522, elapsed: 0.0002579689025878906
ell 521, elapsed: 0.00026416778564453125
ell 520, elapsed: 0.0002589225769042969
ell 519, elapsed: 0.0002758502960205078
ell 518, elapsed: 0.0002620220184326172
ell 517, elapsed: 0.0002799034118652344
ell 516, elapsed: 0.0002970695495605469
ell 515, elapsed: 0.00045108795166015625
ell 514, elapsed: 0.00029397010803222656
ell 513, elapsed: 0.0002970695495605469
ell 512, elapsed: 0.0002892017364501953
ell 511, elapsed: 0.00029397010803222656
ell 510, elapsed: 0.0002970695495605469
ell 509, elapsed: 0.0002949237823486328
ell 508, elapsed: 0.0002899169921875
ell 507, elapsed: 0.0002970695495605469
ell 506, elapsed: 0.0002989768981933594
ell 505, elapsed: 0.0002930164337158203
ell 504, elapsed: 0.0002989768981933594
ell 503, elapsed: 0.0002980232238769531
ell 502, elapsed: 0.0004010200500488281
ell 501, elapsed: 0.0002880096435546875
ell 500, elapsed: 0.00028896331787109375
ell 499, elapsed: 0.00029397010803222656
ell 498, elapsed: 0.0002892017364501953
ell 497, elapsed: 0.0003058910369873047
ell 496, elapsed: 0.0002949237823486328
ell 495, elapsed: 0.0002930164337158203
ell 494, elapsed: 0.0002970695495605469
ell 493, elapsed: 0.0002899169921875
ell 492, elapsed: 0.0002999305725097656
ell 491, elapsed: 0.0002911090850830078
ell 490, elapsed: 0.0004010200500488281
ell 489, elapsed: 0.0003020763397216797
ell 488, elapsed: 0.0002989768981933594
ell 487, elapsed: 0.0003039836883544922
ell 486, elapsed: 0.0002989768981933594
ell 485, elapsed: 0.0002951622009277344
ell 484, elapsed: 0.0003020763397216797
ell 483, elapsed: 0.0002980232238769531
ell 482, elapsed: 0.0002989768981933594
ell 481, elapsed: 0.00030303001403808594
ell 480, elapsed: 0.00029206275939941406
ell 479, elapsed: 0.00030303001403808594
ell 478, elapsed: 0.0004050731658935547
ell 477, elapsed: 0.0003190040588378906
ell 476, elapsed: 0.0003008842468261719
ell 475, elapsed: 0.0003001689910888672
ell 474, elapsed: 0.0002968311309814453
ell 473, elapsed: 0.00029921531677246094
ell 472, elapsed: 0.0002980232238769531
ell 471, elapsed: 0.0002899169921875
ell 470, elapsed: 0.0002970695495605469
ell 469, elapsed: 0.0002970695495605469
ell 468, elapsed: 0.0002918243408203125
ell 467, elapsed: 0.0003008842468261719
ell 466, elapsed: 0.0002961158752441406
ell 465, elapsed: 0.0004649162292480469
ell 464, elapsed: 0.0002970695495605469
ell 463, elapsed: 0.0002949237823486328
ell 462, elapsed: 0.0003070831298828125
ell 461, elapsed: 0.0003001689910888672
ell 460, elapsed: 0.0003058910369873047
ell 459, elapsed: 0.0002980232238769531
ell 458, elapsed: 0.0002970695495605469
ell 457, elapsed: 0.00030612945556640625
ell 456, elapsed: 0.0002999305725097656
ell 455, elapsed: 0.0002989768981933594
ell 454, elapsed: 0.00030112266540527344
ell 453, elapsed: 0.00032401084899902344
ell 452, elapsed: 0.0002989768981933594
ell 451, elapsed: 0.0002930164337158203
ell 450, elapsed: 0.0003008842468261719
ell 449, elapsed: 0.0002961158752441406
ell 448, elapsed: 0.0002980232238769531
ell 447, elapsed: 0.00030612945556640625
ell 446, elapsed: 0.0002989768981933594
ell 445, elapsed: 0.0003039836883544922
ell 444, elapsed: 0.0002999305725097656
ell 443, elapsed: 0.00029921531677246094
ell 442, elapsed: 0.0002970695495605469
ell 441, elapsed: 0.0003390312194824219
ell 440, elapsed: 0.00031185150146484375
ell 439, elapsed: 0.0002968311309814453
ell 438, elapsed: 0.00030684471130371094
ell 437, elapsed: 0.0002949237823486328
ell 436, elapsed: 0.0002968311309814453
ell 435, elapsed: 0.0002989768981933594
ell 434, elapsed: 0.0002911090850830078
ell 433, elapsed: 0.0002989768981933594
ell 432, elapsed: 0.0002970695495605469
ell 431, elapsed: 0.0002899169921875
ell 430, elapsed: 0.00029206275939941406
ell 429, elapsed: 0.0002930164337158203
ell 428, elapsed: 0.004418849945068359
ell 427, elapsed: 0.00026702880859375
ell 426, elapsed: 0.00026702880859375
ell 425, elapsed: 0.00026488304138183594
ell 424, elapsed: 0.00026297569274902344
ell 423, elapsed: 0.0002682209014892578
ell 422, elapsed: 0.00026798248291015625
ell 421, elapsed: 0.00026297569274902344
ell 420, elapsed: 0.00026798248291015625
ell 419, elapsed: 0.0002639293670654297
ell 418, elapsed: 0.00026798248291015625
ell 417, elapsed: 0.0002639293670654297
ell 416, elapsed: 0.00026297569274902344
ell 415, elapsed: 0.0002779960632324219
ell 414, elapsed: 0.0003161430358886719
ell 413, elapsed: 0.0002961158752441406
ell 412, elapsed: 0.00029015541076660156
ell 411, elapsed: 0.0002951622009277344
ell 410, elapsed: 0.00028395652770996094
ell 409, elapsed: 0.0002989768981933594
ell 408, elapsed: 0.00029397010803222656
ell 407, elapsed: 0.00028896331787109375
ell 406, elapsed: 0.00030112266540527344
ell 405, elapsed: 0.0002899169921875
ell 404, elapsed: 0.00028896331787109375
ell 403, elapsed: 0.00029587745666503906
ell 402, elapsed: 0.0002880096435546875
ell 401, elapsed: 0.0004220008850097656
ell 400, elapsed: 0.0002980232238769531
ell 399, elapsed: 0.0002930164337158203
ell 398, elapsed: 0.0002970695495605469
ell 397, elapsed: 0.00029397010803222656
ell 396, elapsed: 0.0002980232238769531
ell 395, elapsed: 0.00029397010803222656
ell 394, elapsed: 0.00028896331787109375
ell 393, elapsed: 0.0003070831298828125
ell 392, elapsed: 0.00029206275939941406
ell 391, elapsed: 0.0002980232238769531
ell 390, elapsed: 0.00029206275939941406
ell 389, elapsed: 0.00033211708068847656
ell 388, elapsed: 0.00030112266540527344
ell 387, elapsed: 0.00030303001403808594
ell 386, elapsed: 0.00030493736267089844
ell 385, elapsed: 0.0002951622009277344
ell 384, elapsed: 0.0002999305725097656
ell 383, elapsed: 0.0002989768981933594
ell 382, elapsed: 0.0002951622009277344
ell 381, elapsed: 0.00030422210693359375
ell 380, elapsed: 0.00029587745666503906
ell 379, elapsed: 0.0003008842468261719
ell 378, elapsed: 0.0002961158752441406
ell 377, elapsed: 0.0002942085266113281
ell 376, elapsed: 0.0003299713134765625
ell 375, elapsed: 0.0002918243408203125
ell 374, elapsed: 0.00031113624572753906
ell 373, elapsed: 0.0002968311309814453
ell 372, elapsed: 0.00029587745666503906
ell 371, elapsed: 0.0002989768981933594
ell 370, elapsed: 0.0002989768981933594
ell 369, elapsed: 0.0003039836883544922
ell 368, elapsed: 0.00030112266540527344
ell 367, elapsed: 0.00029587745666503906
ell 366, elapsed: 0.00030303001403808594
ell 365, elapsed: 0.00029397010803222656
ell 364, elapsed: 0.00035190582275390625
ell 363, elapsed: 0.0002970695495605469
ell 362, elapsed: 0.00030612945556640625
ell 361, elapsed: 0.0003008842468261719
ell 360, elapsed: 0.0002961158752441406
ell 359, elapsed: 0.0003178119659423828
ell 358, elapsed: 0.0002989768981933594
ell 357, elapsed: 0.0002961158752441406
ell 356, elapsed: 0.0003108978271484375
ell 355, elapsed: 0.0002949237823486328
ell 354, elapsed: 0.0002980232238769531
ell 353, elapsed: 0.0002949237823486328
ell 352, elapsed: 0.0004451274871826172
ell 351, elapsed: 0.0003020763397216797
ell 350, elapsed: 0.0002970695495605469
ell 349, elapsed: 0.0003020763397216797
ell 348, elapsed: 0.0002949237823486328
ell 347, elapsed: 0.0003008842468261719
ell 346, elapsed: 0.0002961158752441406
ell 345, elapsed: 0.0002949237823486328
ell 344, elapsed: 0.00030303001403808594
ell 343, elapsed: 0.0002968311309814453
ell 342, elapsed: 0.0002968311309814453
ell 341, elapsed: 0.0002930164337158203
ell 340, elapsed: 0.00029206275939941406
ell 339, elapsed: 0.0003249645233154297
ell 338, elapsed: 0.00029397010803222656
ell 337, elapsed: 0.00030303001403808594
ell 336, elapsed: 0.00029397010803222656
ell 335, elapsed: 0.0002949237823486328
ell 334, elapsed: 0.0002961158752441406
ell 333, elapsed: 0.0002949237823486328
ell 332, elapsed: 0.0002999305725097656
ell 331, elapsed: 0.0002951622009277344
ell 330, elapsed: 0.00029087066650390625
ell 329, elapsed: 0.0003020763397216797
ell 328, elapsed: 0.0003039836883544922
ell 327, elapsed: 0.0004630088806152344
ell 326, elapsed: 0.00029587745666503906
ell 325, elapsed: 0.0002989768981933594
ell 324, elapsed: 0.0002951622009277344
ell 323, elapsed: 0.0003018379211425781
ell 322, elapsed: 0.0003020763397216797
ell 321, elapsed: 0.00029397010803222656
ell 320, elapsed: 0.0002999305725097656
ell 319, elapsed: 0.0002970695495605469
ell 318, elapsed: 0.0002999305725097656
ell 317, elapsed: 0.00030112266540527344
ell 316, elapsed: 0.0002980232238769531
ell 315, elapsed: 0.0004558563232421875
ell 314, elapsed: 0.0003001689910888672
ell 313, elapsed: 0.0002930164337158203
ell 312, elapsed: 0.0002989768981933594
ell 311, elapsed: 0.00029206275939941406
ell 310, elapsed: 0.00030803680419921875
ell 309, elapsed: 0.0002949237823486328
ell 308, elapsed: 0.0002961158752441406
ell 307, elapsed: 0.00030994415283203125
ell 306, elapsed: 0.0002949237823486328
ell 305, elapsed: 0.00030303001403808594
ell 304, elapsed: 0.00030303001403808594
ell 303, elapsed: 0.00046896934509277344
ell 302, elapsed: 0.0003108978271484375
ell 301, elapsed: 0.0002970695495605469
ell 300, elapsed: 0.0003039836883544922
ell 299, elapsed: 0.0003008842468261719
ell 298, elapsed: 0.0002980232238769531
ell 297, elapsed: 0.0003020763397216797
ell 296, elapsed: 0.0002970695495605469
ell 295, elapsed: 0.0003039836883544922
ell 294, elapsed: 0.0002949237823486328
ell 293, elapsed: 0.0002970695495605469
ell 292, elapsed: 0.000308990478515625
ell 291, elapsed: 0.0003249645233154297
ell 290, elapsed: 0.0003039836883544922
ell 289, elapsed: 0.0003001689910888672
ell 288, elapsed: 0.00030303001403808594
ell 287, elapsed: 0.0002999305725097656
ell 286, elapsed: 0.00029587745666503906
ell 285, elapsed: 0.0003070831298828125
ell 284, elapsed: 0.0002961158752441406
ell 283, elapsed: 0.0003108978271484375
ell 282, elapsed: 0.0002951622009277344
ell 281, elapsed: 0.0002970695495605469
ell 280, elapsed: 0.000308990478515625
ell 279, elapsed: 0.0002989768981933594
ell 278, elapsed: 0.00030803680419921875
ell 277, elapsed: 0.0002999305725097656
ell 276, elapsed: 0.0002918243408203125
ell 275, elapsed: 0.0002989768981933594
ell 274, elapsed: 0.0002911090850830078
ell 273, elapsed: 0.0002989768981933594
ell 272, elapsed: 0.00029206275939941406
ell 271, elapsed: 0.00029277801513671875
ell 270, elapsed: 0.0002961158752441406
ell 269, elapsed: 0.0002899169921875
ell 268, elapsed: 0.0002949237823486328
ell 267, elapsed: 0.0002899169921875
ell 266, elapsed: 0.0003199577331542969
ell 265, elapsed: 0.0002799034118652344
ell 264, elapsed: 0.0002689361572265625
ell 263, elapsed: 0.00027489662170410156
ell 262, elapsed: 0.0002682209014892578
ell 261, elapsed: 0.0002720355987548828
ell 260, elapsed: 0.00027108192443847656
ell 259, elapsed: 0.00026702880859375
ell 258, elapsed: 0.0002760887145996094
ell 257, elapsed: 0.00026798248291015625
ell 256, elapsed: 0.00027298927307128906
ell 255, elapsed: 0.00026702880859375
ell 254, elapsed: 0.0002639293670654297
ell 253, elapsed: 0.000270843505859375
ell 252, elapsed: 0.0002999305725097656
ell 251, elapsed: 0.00027489662170410156
ell 250, elapsed: 0.00026297569274902344
ell 249, elapsed: 0.00025916099548339844
ell 248, elapsed: 0.0002689361572265625
ell 247, elapsed: 0.0002598762512207031
ell 246, elapsed: 0.0002689361572265625
ell 245, elapsed: 0.0002570152282714844
ell 244, elapsed: 0.00026106834411621094
ell 243, elapsed: 0.0002701282501220703
ell 242, elapsed: 0.0002570152282714844
ell 241, elapsed: 0.00028705596923828125
ell 240, elapsed: 0.0002779960632324219
ell 239, elapsed: 0.0002779960632324219
ell 238, elapsed: 0.0003199577331542969
ell 237, elapsed: 0.0002789497375488281
ell 236, elapsed: 0.0002918243408203125
ell 235, elapsed: 0.00028204917907714844
ell 234, elapsed: 0.00028705596923828125
ell 233, elapsed: 0.0002791881561279297
ell 232, elapsed: 0.0002791881561279297
ell 231, elapsed: 0.00028395652770996094
ell 230, elapsed: 0.00027680397033691406
ell 229, elapsed: 0.0002880096435546875
ell 228, elapsed: 0.0002770423889160156
ell 227, elapsed: 0.0002810955047607422
ell 226, elapsed: 0.0002880096435546875
ell 225, elapsed: 0.00028586387634277344
ell 224, elapsed: 0.0003039836883544922
ell 223, elapsed: 0.0002830028533935547
ell 222, elapsed: 0.00028204917907714844
ell 221, elapsed: 0.00028896331787109375
ell 220, elapsed: 0.00028204917907714844
ell 219, elapsed: 0.0003008842468261719
ell 218, elapsed: 0.00028586387634277344
ell 217, elapsed: 0.0002868175506591797
ell 216, elapsed: 0.0002918243408203125
ell 215, elapsed: 0.0002830028533935547
ell 214, elapsed: 0.0002899169921875
ell 213, elapsed: 0.0002849102020263672
ell 212, elapsed: 0.00028204917907714844
ell 211, elapsed: 0.00031685829162597656
ell 210, elapsed: 0.0002830028533935547
ell 209, elapsed: 0.0002949237823486328
ell 208, elapsed: 0.0002849102020263672
ell 207, elapsed: 0.000286102294921875
ell 206, elapsed: 0.00030112266540527344
ell 205, elapsed: 0.0002899169921875
ell 204, elapsed: 0.00029587745666503906
ell 203, elapsed: 0.0002980232238769531
ell 202, elapsed: 0.0002949237823486328
ell 201, elapsed: 0.00029397010803222656
ell 200, elapsed: 0.0002949237823486328
ell 199, elapsed: 0.0004038810729980469
ell 198, elapsed: 0.00029587745666503906
ell 197, elapsed: 0.0002942085266113281
ell 196, elapsed: 0.0002930164337158203
ell 195, elapsed: 0.00029397010803222656
ell 194, elapsed: 0.00030303001403808594
ell 193, elapsed: 0.00028896331787109375
ell 192, elapsed: 0.0002942085266113281
ell 191, elapsed: 0.0002918243408203125
ell 190, elapsed: 0.0003020763397216797
ell 189, elapsed: 0.0002970695495605469
ell 188, elapsed: 0.0002930164337158203
ell 187, elapsed: 0.00030684471130371094
ell 186, elapsed: 0.0003311634063720703
ell 185, elapsed: 0.00029587745666503906
ell 184, elapsed: 0.00030112266540527344
ell 183, elapsed: 0.00029397010803222656
ell 182, elapsed: 0.0002989768981933594
ell 181, elapsed: 0.00030112266540527344
ell 180, elapsed: 0.0002970695495605469
ell 179, elapsed: 0.00029587745666503906
ell 178, elapsed: 0.0002980232238769531
ell 177, elapsed: 0.0002989768981933594
ell 176, elapsed: 0.0002980232238769531
ell 175, elapsed: 0.0002999305725097656
ell 174, elapsed: 0.0003600120544433594
ell 173, elapsed: 0.00029397010803222656
ell 172, elapsed: 0.0002930164337158203
ell 171, elapsed: 0.00028705596923828125
ell 170, elapsed: 0.000286102294921875
ell 169, elapsed: 0.0002789497375488281
ell 168, elapsed: 0.00028204917907714844
ell 167, elapsed: 0.0002849102020263672
ell 166, elapsed: 0.00028204917907714844
ell 165, elapsed: 0.00028395652770996094
ell 164, elapsed: 0.00028204917907714844
ell 163, elapsed: 0.0002808570861816406
ell 162, elapsed: 0.00028586387634277344
ell 161, elapsed: 0.0002779960632324219
ell 160, elapsed: 0.0003190040588378906
ell 159, elapsed: 0.000286102294921875
ell 158, elapsed: 0.0002961158752441406
ell 157, elapsed: 0.0002970695495605469
ell 156, elapsed: 0.00029397010803222656
ell 155, elapsed: 0.0003020763397216797
ell 154, elapsed: 0.00029015541076660156
ell 153, elapsed: 0.0002911090850830078
ell 152, elapsed: 0.00030112266540527344
ell 151, elapsed: 0.0002899169921875
ell 150, elapsed: 0.0002980232238769531
ell 149, elapsed: 0.0002949237823486328
ell 148, elapsed: 0.0003190040588378906
ell 147, elapsed: 0.0002779960632324219
ell 146, elapsed: 0.00026297569274902344
ell 145, elapsed: 0.0002689361572265625
ell 144, elapsed: 0.00026106834411621094
ell 143, elapsed: 0.00026607513427734375
ell 142, elapsed: 0.00026106834411621094
ell 141, elapsed: 0.0002598762512207031
ell 140, elapsed: 0.00026297569274902344
ell 139, elapsed: 0.00026297569274902344
ell 138, elapsed: 0.00026297569274902344
ell 137, elapsed: 0.00026297569274902344
ell 136, elapsed: 0.00022792816162109375
ell 135, elapsed: 0.0002319812774658203
ell 134, elapsed: 0.00023508071899414062
ell 133, elapsed: 0.0002620220184326172
ell 132, elapsed: 0.00022912025451660156
ell 131, elapsed: 0.0002269744873046875
ell 130, elapsed: 0.00023102760314941406
ell 129, elapsed: 0.0002269744873046875
ell 128, elapsed: 0.00023412704467773438
ell 127, elapsed: 0.0002288818359375
ell 126, elapsed: 0.00023412704467773438
ell 125, elapsed: 0.00027298927307128906
ell 124, elapsed: 0.0002911090850830078
ell 123, elapsed: 0.0002911090850830078
ell 122, elapsed: 0.0002410411834716797
ell 121, elapsed: 0.00023317337036132812
ell 120, elapsed: 0.00023293495178222656
ell 119, elapsed: 0.00023484230041503906
ell 118, elapsed: 0.0003001689910888672
ell 117, elapsed: 0.0002319812774658203
ell 116, elapsed: 0.0002288818359375
ell 115, elapsed: 0.00024008750915527344
ell 114, elapsed: 0.0002319812774658203
ell 113, elapsed: 0.0002338886260986328
ell 112, elapsed: 0.00023102760314941406
ell 111, elapsed: 0.0002338886260986328
ell 110, elapsed: 0.0002281665802001953
ell 109, elapsed: 0.0002269744873046875
ell 108, elapsed: 0.00029015541076660156
ell 107, elapsed: 0.0002789497375488281
ell 106, elapsed: 0.0002338886260986328
ell 105, elapsed: 0.0002288818359375
ell 104, elapsed: 0.0002810955047607422
ell 103, elapsed: 0.00023508071899414062
ell 102, elapsed: 0.00026988983154296875
ell 101, elapsed: 0.00023794174194335938
ell 100, elapsed: 0.00023484230041503906
ell 99, elapsed: 0.0002372264862060547
ell 98, elapsed: 0.0002918243408203125
ell 97, elapsed: 0.00023794174194335938
ell 96, elapsed: 0.00029397010803222656
ell 95, elapsed: 0.00024700164794921875
ell 94, elapsed: 0.0002639293670654297
ell 93, elapsed: 0.00029397010803222656
ell 92, elapsed: 0.00024509429931640625
ell 91, elapsed: 0.0002849102020263672
ell 90, elapsed: 0.0002779960632324219
ell 89, elapsed: 0.00029015541076660156
ell 88, elapsed: 0.00032711029052734375
ell 87, elapsed: 0.00029015541076660156
ell 86, elapsed: 0.0002961158752441406
ell 85, elapsed: 0.00028896331787109375
ell 84, elapsed: 0.0002799034118652344
ell 83, elapsed: 0.0003230571746826172
ell 82, elapsed: 0.00029206275939941406
ell 81, elapsed: 0.0002942085266113281
ell 80, elapsed: 0.00028896331787109375
ell 79, elapsed: 0.0002880096435546875
ell 78, elapsed: 0.0002930164337158203
ell 77, elapsed: 0.00029087066650390625
ell 76, elapsed: 0.00030303001403808594
ell 75, elapsed: 0.00034499168395996094
ell 74, elapsed: 0.00029206275939941406
ell 73, elapsed: 0.00029206275939941406
ell 72, elapsed: 0.0002880096435546875
ell 71, elapsed: 0.00028896331787109375
ell 70, elapsed: 0.00024008750915527344
ell 69, elapsed: 0.0002739429473876953
ell 68, elapsed: 0.00029206275939941406
ell 67, elapsed: 0.0002892017364501953
ell 66, elapsed: 0.00029087066650390625
ell 65, elapsed: 0.0002949237823486328
ell 64, elapsed: 0.00029015541076660156
ell 63, elapsed: 0.0003020763397216797
ell 62, elapsed: 0.00032591819763183594
ell 61, elapsed: 0.00028896331787109375
ell 60, elapsed: 0.0002989768981933594
ell 59, elapsed: 0.0002899169921875
ell 58, elapsed: 0.0002899169921875
ell 57, elapsed: 0.0002880096435546875
ell 56, elapsed: 0.00029397010803222656
ell 55, elapsed: 0.000286102294921875
ell 54, elapsed: 0.0002980232238769531
ell 53, elapsed: 0.0002491474151611328
ell 52, elapsed: 0.00025391578674316406
ell 51, elapsed: 0.00023984909057617188
ell 50, elapsed: 0.0002410411834716797
ell 49, elapsed: 0.0003180503845214844
ell 48, elapsed: 0.0002617835998535156
ell 47, elapsed: 0.0002560615539550781
ell 46, elapsed: 0.0002448558807373047
ell 45, elapsed: 0.00024008750915527344
ell 44, elapsed: 0.00026106834411621094
ell 43, elapsed: 0.0002930164337158203
ell 42, elapsed: 0.00030803680419921875
ell 41, elapsed: 0.0002980232238769531
ell 40, elapsed: 0.0002989768981933594
ell 39, elapsed: 0.00026297569274902344
ell 38, elapsed: 0.0002410411834716797
ell 37, elapsed: 0.000244140625
ell 36, elapsed: 0.0002529621124267578
ell 35, elapsed: 0.0003840923309326172
ell 34, elapsed: 0.00028204917907714844
ell 33, elapsed: 0.0002460479736328125
ell 32, elapsed: 0.00026416778564453125
ell 31, elapsed: 0.00024700164794921875
ell 30, elapsed: 0.0002779960632324219
ell 29, elapsed: 0.00029087066650390625
ell 28, elapsed: 0.00024390220642089844
ell 27, elapsed: 0.00025200843811035156
ell 26, elapsed: 0.0002410411834716797
ell 25, elapsed: 0.00024819374084472656
ell 24, elapsed: 0.00024390220642089844
ell 23, elapsed: 0.00024199485778808594
ell 22, elapsed: 0.00025010108947753906
ell 21, elapsed: 0.00028204917907714844
ell 20, elapsed: 0.0002510547637939453
ell 19, elapsed: 0.00028586387634277344
ell 18, elapsed: 0.000244140625
ell 17, elapsed: 0.0002529621124267578
ell 16, elapsed: 0.000247955322265625
ell 15, elapsed: 0.00024700164794921875
ell 14, elapsed: 0.0002949237823486328
ell 13, elapsed: 0.0002868175506591797
ell 12, elapsed: 0.0002930164337158203
ell 11, elapsed: 0.0003008842468261719
ell 10, elapsed: 0.00029206275939941406
ell 9, elapsed: 0.00029397010803222656
ell 8, elapsed: 0.00029397010803222656
ell 7, elapsed: 0.00035381317138671875
ell 6, elapsed: 0.0002949237823486328
ell 5, elapsed: 0.0002989768981933594
ell 4, elapsed: 0.0002968311309814453
ell 3, elapsed: 0.0002989768981933594
ell 2, elapsed: 0.00031304359436035156
ell 1, elapsed: 0.00030112266540527344
ell 0, elapsed: 0.0002980232238769531
  0.438497 seconds (46.03 k allocations: 3.091 MiB, 5.74% compilation time)
elapsed: 0.00038909912109375
step:          0.047509 sec (0 allocations: 0 byte, 0.0% gc time)
swapping:      0.000365 sec (0 allocations: 0 byte, 0.0% gc time)
calc_Mellell!: 0.004517 sec (0 allocations: 0 byte, 0.0% gc time)
  t0 :  0.001422 sec (0 allocations: 0 byte, 0.0% gc time)
  tm2 : 0.073582 sec (0 allocations: 0 byte, 0.0% gc time)
  tm2s: 0.001047 sec (0 allocations: 0 byte, 0.0% gc time)
  tm4 : 0.178546 sec (0 allocations: 0 byte, 0.0% gc time)
  tp2 : 0.0 sec (0 allocations: 0 byte, 0.0% gc time)
  tp2s: 0.0 sec (0 allocations: 0 byte, 0.0% gc time)
  tp4 : 0.0 sec (0 allocations: 0 byte, 0.0% gc time)
calc_wtdll!:   0.281848 sec (9.9 k allocations: 1.047 MB, 0.0% gc time)
calc_wljj!:    0.023757 sec (689 allocations: 10.766 KB, 0.0% gc time)
mult_prefac!:  0.0 sec (0 allocations: 0 byte, 0.0% gc time)
convert:       0.0 sec (0 allocations: 0 byte, 0.0% gc time)
write:         0.039212 sec (0 allocations: 0 byte, 0.0% gc time)
test_rand_2f1: 0.0 sec (0 allocations: 0 byte, 0.0% gc time)
Closing outfile out/Ml21-cache.bin...   0.000013 seconds
  0.000329 seconds (36 allocations: 27.953 KiB)
make_phi():   0.001571 seconds (8.19 k allocations: 238.078 KiB)
  0.127752 seconds (141.90 k allocations: 3.483 MiB)
tskip:       0.000618 sec (0 allocations: 0 byte, 0.0% gc time)
tread:       0.021633 sec (17 allocations: 10.641 KB, 0.0% gc time)
tmultphi:    0.008871 sec (0 allocations: 0 byte, 0.0% gc time)
tbrfft:      0.04037 sec (0 allocations: 0 byte, 0.0% gc time)
tmultprefac: 0.018353 sec (0 allocations: 0 byte, 0.0% gc time)
toutfunc:    0.034706 sec (127.507 k allocations: 2.312 MB, 0.0% gc time)
Testing R=1.0 ... passed
Calculating fmax: 
  dlrec    = 4
  dlrecRg1 = -4
  q=1.1, R=0.9:	  0.237062 seconds (105.72 k allocations: 15.273 MiB)

  0.237183 seconds (105.77 k allocations: 15.307 MiB)
ℓ = 1202
Δℓ = 4
ΔℓRg1 = -4
N = 1600
q = 1.1
kmin = 1.0e-5
kmax = 100000.00000000004
χ0 = 0.023029999999999995
RR = RR.tsv
ℓmax = ℓmax.bin
f21 = f21.bin
kmin = 1.0e-5
kmax = 100000.0
dlrec    = 4
dlrecRg1 = -4
Output size: 5741568 bytes = 0.005347251892089844 GiB
Output size: 51264 bytes = 4.774332046508789e-5 GiB
Reading 'out/F21EllCache'...   0.000968 seconds (197 allocations: 84.203 KiB)
ellmax: 1202
lmaxcache: 1202
fell[:,1,1] = ComplexF64[1.3482014726274674e-57 - 3.302141236118086e-73im, 1.357860004724329e-57 - 3.3257978169518355e-73im]
ell 1202, elapsed: 1.811981201171875e-5
ell 1201, elapsed: 0.0003058910369873047
ell 1200, elapsed: 0.00028395652770996094
ell 1199, elapsed: 0.0002760887145996094
ell 1198, elapsed: 0.00027108192443847656
ell 1002, elapsed: 0.008646011352539062
ell 1001, elapsed: 0.00026607513427734375
ell 1000, elapsed: 0.0002570152282714844
ell 999, elapsed: 0.0002570152282714844
ell 998, elapsed: 0.0002579689025878906
ell 902, elapsed: 0.0042591094970703125
ell 901, elapsed: 0.0002551078796386719
ell 900, elapsed: 0.0002498626708984375
ell 899, elapsed: 0.0002548694610595703
ell 898, elapsed: 0.00025391578674316406
ell 802, elapsed: 0.0042040348052978516
ell 801, elapsed: 0.00025010108947753906
ell 800, elapsed: 0.00024890899658203125
ell 799, elapsed: 0.00026702880859375
ell 798, elapsed: 0.0002498626708984375
ell 702, elapsed: 0.004085063934326172
ell 701, elapsed: 0.00024008750915527344
ell 700, elapsed: 0.00023794174194335938
ell 699, elapsed: 0.00023984909057617188
ell 698, elapsed: 0.0002391338348388672
ell 602, elapsed: 0.0038361549377441406
ell 601, elapsed: 0.00022101402282714844
ell 600, elapsed: 0.000225067138671875
ell 599, elapsed: 0.0002560615539550781
ell 598, elapsed: 0.0002608299255371094
ell 502, elapsed: 0.003965139389038086
ell 501, elapsed: 0.0002541542053222656
ell 500, elapsed: 0.0002510547637939453
ell 499, elapsed: 0.0002510547637939453
ell 498, elapsed: 0.00024890899658203125
ell 402, elapsed: 0.003950834274291992
ell 401, elapsed: 0.0002181529998779297
ell 400, elapsed: 0.00021409988403320312
ell 399, elapsed: 0.0002770423889160156
ell 398, elapsed: 0.0002460479736328125
ell 302, elapsed: 0.004086017608642578
ell 301, elapsed: 0.00026416778564453125
ell 300, elapsed: 0.0002498626708984375
ell 299, elapsed: 0.0002491474151611328
ell 298, elapsed: 0.0002541542053222656
ell 202, elapsed: 0.0041561126708984375
ell 201, elapsed: 0.00026106834411621094
ell 200, elapsed: 0.0002498626708984375
ell 199, elapsed: 0.0002598762512207031
ell 198, elapsed: 0.0002551078796386719
ell 152, elapsed: 0.0021750926971435547
ell 151, elapsed: 0.0002620220184326172
ell 150, elapsed: 0.00026297569274902344
ell 149, elapsed: 0.00025010108947753906
ell 148, elapsed: 0.0002510547637939453
ell 127, elapsed: 0.0011179447174072266
ell 126, elapsed: 0.00024890899658203125
ell 125, elapsed: 0.00025391578674316406
ell 124, elapsed: 0.0002989768981933594
ell 123, elapsed: 0.0002498626708984375
ell 114, elapsed: 0.0006289482116699219
ell 113, elapsed: 0.000247955322265625
ell 112, elapsed: 0.0002551078796386719
ell 111, elapsed: 0.0002532005310058594
ell 110, elapsed: 0.0002510547637939453
ell 102, elapsed: 0.0005810260772705078
ell 101, elapsed: 0.0002510547637939453
ell 100, elapsed: 0.00025200843811035156
ell 99, elapsed: 0.0002498626708984375
ell 98, elapsed: 0.0002570152282714844
ell 97, elapsed: 0.00034618377685546875
ell 96, elapsed: 0.0003018379211425781
ell 95, elapsed: 0.0002970695495605469
ell 94, elapsed: 0.0002989768981933594
ell 93, elapsed: 0.0002911090850830078
ell 92, elapsed: 0.00030493736267089844
ell 91, elapsed: 0.0002880096435546875
ell 90, elapsed: 0.0003039836883544922
ell 89, elapsed: 0.00030994415283203125
ell 88, elapsed: 0.0003039836883544922
ell 87, elapsed: 0.0003070831298828125
ell 86, elapsed: 0.00030303001403808594
ell 85, elapsed: 0.0003139972686767578
ell 84, elapsed: 0.00030303001403808594
ell 83, elapsed: 0.00029397010803222656
ell 82, elapsed: 0.0002989768981933594
ell 81, elapsed: 0.00029206275939941406
ell 80, elapsed: 0.0003020763397216797
ell 79, elapsed: 0.00030612945556640625
ell 78, elapsed: 0.0002968311309814453
ell 77, elapsed: 0.0003018379211425781
ell 76, elapsed: 0.0002930164337158203
ell 75, elapsed: 0.00028896331787109375
ell 74, elapsed: 0.0002951622009277344
ell 73, elapsed: 0.0002899169921875
ell 72, elapsed: 0.0003540515899658203
ell 71, elapsed: 0.0002961158752441406
ell 70, elapsed: 0.0002949237823486328
ell 69, elapsed: 0.00030303001403808594
ell 68, elapsed: 0.000308990478515625
ell 67, elapsed: 0.00033402442932128906
ell 66, elapsed: 0.0003681182861328125
ell 65, elapsed: 0.0002961158752441406
ell 64, elapsed: 0.0003230571746826172
ell 63, elapsed: 0.0003039836883544922
ell 62, elapsed: 0.0003070831298828125
ell 61, elapsed: 0.000347137451171875
ell 60, elapsed: 0.00031185150146484375
ell 59, elapsed: 0.00031495094299316406
ell 58, elapsed: 0.0003058910369873047
ell 57, elapsed: 0.00032782554626464844
ell 56, elapsed: 0.0002980232238769531
ell 55, elapsed: 0.00030493736267089844
ell 54, elapsed: 0.0002980232238769531
ell 53, elapsed: 0.0002989768981933594
ell 52, elapsed: 0.00030803680419921875
ell 51, elapsed: 0.0002980232238769531
ell 50, elapsed: 0.00030303001403808594
ell 49, elapsed: 0.0002989768981933594
ell 48, elapsed: 0.0003440380096435547
ell 47, elapsed: 0.00027108192443847656
ell 46, elapsed: 0.0002651214599609375
ell 45, elapsed: 0.00027108192443847656
ell 44, elapsed: 0.00026297569274902344
ell 43, elapsed: 0.0002651214599609375
ell 42, elapsed: 0.0002720355987548828
ell 41, elapsed: 0.00026488304138183594
ell 40, elapsed: 0.0002689361572265625
ell 39, elapsed: 0.00026798248291015625
ell 38, elapsed: 0.00026297569274902344
ell 37, elapsed: 0.00026798248291015625
ell 36, elapsed: 0.000263214111328125
ell 35, elapsed: 0.00027108192443847656
ell 34, elapsed: 0.0003361701965332031
ell 33, elapsed: 0.0003249645233154297
ell 32, elapsed: 0.0003039836883544922
ell 31, elapsed: 0.0003039836883544922
ell 30, elapsed: 0.0003039836883544922
ell 29, elapsed: 0.0002930164337158203
ell 28, elapsed: 0.0002970695495605469
ell 27, elapsed: 0.00029397010803222656
ell 26, elapsed: 0.0002949237823486328
ell 25, elapsed: 0.00029397010803222656
ell 24, elapsed: 0.0002880096435546875
ell 23, elapsed: 0.00028896331787109375
ell 22, elapsed: 0.0003180503845214844
ell 21, elapsed: 0.00029206275939941406
ell 20, elapsed: 0.0002961158752441406
ell 19, elapsed: 0.0002930164337158203
ell 18, elapsed: 0.00029206275939941406
ell 17, elapsed: 0.0002999305725097656
ell 16, elapsed: 0.00029206275939941406
ell 15, elapsed: 0.0002980232238769531
ell 14, elapsed: 0.0002980232238769531
ell 13, elapsed: 0.0002949237823486328
ell 12, elapsed: 0.0002980232238769531
ell 11, elapsed: 0.00029587745666503906
ell 10, elapsed: 0.0003018379211425781
ell 9, elapsed: 0.0003211498260498047
ell 8, elapsed: 0.00029921531677246094
ell 7, elapsed: 0.00030303001403808594
ell 6, elapsed: 0.00029397010803222656
ell 5, elapsed: 0.00029587745666503906
ell 4, elapsed: 0.0002951622009277344
ell 3, elapsed: 0.00029015541076660156
ell 2, elapsed: 0.0003039836883544922
ell 1, elapsed: 0.0002970695495605469
ell 0, elapsed: 0.0002980232238769531
  0.092733 seconds (11.51 k allocations: 719.594 KiB)
elapsed: 0.0003540515899658203
step:          0.046949 sec (0 allocations: 0 byte, 0.0% gc time)
swapping:      0.000296 sec (0 allocations: 0 byte, 0.0% gc time)
calc_Mellell!: 0.000653 sec (0 allocations: 0 byte, 0.0% gc time)
  t0 :  0.00023 sec (0 allocations: 0 byte, 0.0% gc time)
  tm2 : 0.009587 sec (0 allocations: 0 byte, 0.0% gc time)
  tm2s: 0.000167 sec (0 allocations: 0 byte, 0.0% gc time)
  tm4 : 0.02254 sec (0 allocations: 0 byte, 0.0% gc time)
  tp2 : 0.0 sec (0 allocations: 0 byte, 0.0% gc time)
  tp2s: 0.0 sec (0 allocations: 0 byte, 0.0% gc time)
  tp4 : 0.0 sec (0 allocations: 0 byte, 0.0% gc time)
calc_wtdll!:   0.03292 sec (1.344 k allocations: 147.0 KB, 0.0% gc time)
calc_wljj!:    0.002111 sec (6 allocations: 96 byte, 0.0% gc time)
mult_prefac!:  0.0 sec (0 allocations: 0 byte, 0.0% gc time)
convert:       0.0 sec (0 allocations: 0 byte, 0.0% gc time)
write:         0.002951 sec (0 allocations: 0 byte, 0.0% gc time)
test_rand_2f1: 0.0 sec (0 allocations: 0 byte, 0.0% gc time)
Closing outfile out/Ml21-cache.bin...   0.000010 seconds
  0.000236 seconds (36 allocations: 27.953 KiB)
make_phi():   0.001503 seconds (8.19 k allocations: 238.078 KiB)
  0.011567 seconds (11.65 k allocations: 308.688 KiB)
tskip:       1.4e-5 sec (0 allocations: 0 byte, 0.0% gc time)
tread:       0.002161 sec (17 allocations: 2.125 KB, 0.0% gc time)
tmultphi:    0.000945 sec (0 allocations: 0 byte, 0.0% gc time)
tbrfft:      0.003348 sec (0 allocations: 0 byte, 0.0% gc time)
tmultprefac: 0.001746 sec (0 allocations: 0 byte, 0.0% gc time)
toutfunc:    0.003082 sec (10.304 k allocations: 196.0 KB, 0.0% gc time)
Testing R=0.9 ... passed
Calculating fmax: 
  dlrec    = 4
  dlrecRg1 = -4
  q=1.1, R=0.8:	  0.217681 seconds (103.21 k allocations: 14.840 MiB, 8.19% gc time)

  0.217798 seconds (103.26 k allocations: 14.874 MiB, 8.18% gc time)
ℓ = 1202
Δℓ = 4
ΔℓRg1 = -4
N = 1600
q = 1.1
kmin = 1.0e-5
kmax = 100000.00000000004
χ0 = 0.023029999999999995
RR = RR.tsv
ℓmax = ℓmax.bin
f21 = f21.bin
kmin = 1.0e-5
kmax = 100000.0
dlrec    = 4
dlrecRg1 = -4
Output size: 5741568 bytes = 0.005347251892089844 GiB
Output size: 51264 bytes = 4.774332046508789e-5 GiB
Reading 'out/F21EllCache'...   0.000599 seconds (197 allocations: 84.203 KiB)
ellmax: 1202
lmaxcache: 1202
fell[:,1,1] = ComplexF64[7.519068145690986e-120 - 1.8416405474382574e-135im, 7.541664537386155e-120 - 1.847175067190611e-135im]
ell 1202, elapsed: 1.6927719116210938e-5
ell 1201, elapsed: 0.0002639293670654297
ell 1200, elapsed: 0.0002460479736328125
ell 1199, elapsed: 0.0002300739288330078
ell 1198, elapsed: 0.00021791458129882812
ell 1002, elapsed: 0.008035898208618164
ell 1001, elapsed: 0.0002231597900390625
ell 1000, elapsed: 0.0002129077911376953
ell 999, elapsed: 0.0002129077911376953
ell 998, elapsed: 0.00021314620971679688
ell 902, elapsed: 0.004196882247924805
ell 901, elapsed: 0.0002620220184326172
ell 900, elapsed: 0.0002598762512207031
ell 899, elapsed: 0.0002579689025878906
ell 898, elapsed: 0.00026798248291015625
ell 802, elapsed: 0.004358053207397461
ell 801, elapsed: 0.0002410411834716797
ell 800, elapsed: 0.00023889541625976562
ell 799, elapsed: 0.0002391338348388672
ell 798, elapsed: 0.00023603439331054688
ell 702, elapsed: 0.007962942123413086
ell 701, elapsed: 0.00024199485778808594
ell 700, elapsed: 0.00023603439331054688
ell 699, elapsed: 0.00023698806762695312
ell 698, elapsed: 0.00023412704467773438
ell 602, elapsed: 0.003988027572631836
ell 601, elapsed: 0.00024890899658203125
ell 600, elapsed: 0.000247955322265625
ell 599, elapsed: 0.00024700164794921875
ell 598, elapsed: 0.000247955322265625
ell 502, elapsed: 0.0038139820098876953
ell 501, elapsed: 0.00022602081298828125
ell 500, elapsed: 0.000225067138671875
ell 499, elapsed: 0.0002338886260986328
ell 498, elapsed: 0.00024890899658203125
ell 402, elapsed: 0.004331111907958984
ell 401, elapsed: 0.00026988983154296875
ell 400, elapsed: 0.00026988983154296875
ell 399, elapsed: 0.0002620220184326172
ell 398, elapsed: 0.00026106834411621094
ell 302, elapsed: 0.00439000129699707
ell 301, elapsed: 0.0002598762512207031
ell 300, elapsed: 0.0002589225769042969
ell 299, elapsed: 0.0002620220184326172
ell 298, elapsed: 0.00026798248291015625
ell 202, elapsed: 0.004357099533081055
ell 201, elapsed: 0.0002560615539550781
ell 200, elapsed: 0.0002617835998535156
ell 199, elapsed: 0.00029587745666503906
ell 198, elapsed: 0.0002529621124267578
ell 152, elapsed: 0.0022211074829101562
ell 151, elapsed: 0.00026798248291015625
ell 150, elapsed: 0.0002651214599609375
ell 149, elapsed: 0.00026106834411621094
ell 148, elapsed: 0.0002658367156982422
ell 127, elapsed: 0.0011830329895019531
ell 126, elapsed: 0.0002651214599609375
ell 125, elapsed: 0.00026702880859375
ell 124, elapsed: 0.00026106834411621094
ell 123, elapsed: 0.00026106834411621094
ell 114, elapsed: 0.0006289482116699219
ell 113, elapsed: 0.0002601146697998047
ell 112, elapsed: 0.0002570152282714844
ell 111, elapsed: 0.0002608299255371094
ell 110, elapsed: 0.0002949237823486328
ell 102, elapsed: 0.0005621910095214844
ell 101, elapsed: 0.00023698806762695312
ell 100, elapsed: 0.00023794174194335938
ell 99, elapsed: 0.00023698806762695312
ell 98, elapsed: 0.00023889541625976562
ell 97, elapsed: 0.0002830028533935547
ell 96, elapsed: 0.0002770423889160156
ell 95, elapsed: 0.00031495094299316406
ell 94, elapsed: 0.0003070831298828125
ell 93, elapsed: 0.0003180503845214844
ell 92, elapsed: 0.00030493736267089844
ell 91, elapsed: 0.00030922889709472656
ell 90, elapsed: 0.0004470348358154297
ell 89, elapsed: 0.0003018379211425781
ell 88, elapsed: 0.00030493736267089844
ell 87, elapsed: 0.0002999305725097656
ell 86, elapsed: 0.0003018379211425781
ell 85, elapsed: 0.0002968311309814453
ell 84, elapsed: 0.0002980232238769531
ell 83, elapsed: 0.0003070831298828125
ell 82, elapsed: 0.00030422210693359375
ell 81, elapsed: 0.0003070831298828125
ell 80, elapsed: 0.0003101825714111328
ell 79, elapsed: 0.00030517578125
ell 78, elapsed: 0.000347137451171875
ell 77, elapsed: 0.00030493736267089844
[...]
ell 568, elapsed: 0.0005998611450195312
ell 562, elapsed: 0.0009849071502685547
ell 561, elapsed: 0.0005269050598144531
ell 560, elapsed: 0.0005488395690917969
ell 559, elapsed: 0.0005300045013427734
ell 558, elapsed: 0.000537872314453125
ell 552, elapsed: 0.0009710788726806641
ell 551, elapsed: 0.0005300045013427734
ell 550, elapsed: 0.0005369186401367188
ell 549, elapsed: 0.0005240440368652344
ell 548, elapsed: 0.0005290508270263672
ell 542, elapsed: 0.0009398460388183594
ell 541, elapsed: 0.0005340576171875
ell 540, elapsed: 0.0005230903625488281
ell 539, elapsed: 0.000514984130859375
ell 538, elapsed: 0.0005180835723876953
ell 532, elapsed: 0.0009419918060302734
ell 531, elapsed: 0.0005052089691162109
ell 530, elapsed: 0.0005168914794921875
ell 529, elapsed: 0.0005469322204589844
ell 528, elapsed: 0.0005121231079101562
ell 522, elapsed: 0.0009579658508300781
ell 521, elapsed: 0.0005230903625488281
ell 520, elapsed: 0.0005240440368652344
ell 519, elapsed: 0.0005288124084472656
ell 518, elapsed: 0.0005609989166259766
ell 512, elapsed: 0.0009388923645019531
ell 511, elapsed: 0.0005309581756591797
ell 510, elapsed: 0.0005309581756591797
ell 509, elapsed: 0.0005412101745605469
ell 508, elapsed: 0.0005421638488769531
ell 502, elapsed: 0.0010180473327636719
ell 501, elapsed: 0.0005278587341308594
ell 500, elapsed: 0.0005459785461425781
ell 499, elapsed: 0.0005240440368652344
ell 498, elapsed: 0.0005419254302978516
ell 492, elapsed: 0.0009789466857910156
ell 491, elapsed: 0.0005588531494140625
ell 490, elapsed: 0.0005440711975097656
ell 489, elapsed: 0.0005559921264648438
ell 488, elapsed: 0.0005578994750976562
ell 482, elapsed: 0.000985860824584961
ell 481, elapsed: 0.0005311965942382812
ell 480, elapsed: 0.0005960464477539062
ell 479, elapsed: 0.0005381107330322266
ell 478, elapsed: 0.0005438327789306641
ell 472, elapsed: 0.0009889602661132812
ell 471, elapsed: 0.0005459785461425781
ell 470, elapsed: 0.0005521774291992188
ell 469, elapsed: 0.0005488395690917969
ell 468, elapsed: 0.0005581378936767578
ell 462, elapsed: 0.0009860992431640625
ell 461, elapsed: 0.0005450248718261719
ell 460, elapsed: 0.0005538463592529297
ell 459, elapsed: 0.0005428791046142578
ell 458, elapsed: 0.0005540847778320312
ell 452, elapsed: 0.001035928726196289
ell 451, elapsed: 0.0005438327789306641
ell 450, elapsed: 0.0005540847778320312
ell 449, elapsed: 0.0005409717559814453
ell 448, elapsed: 0.0005578994750976562
ell 442, elapsed: 0.0010440349578857422
ell 441, elapsed: 0.0005490779876708984
ell 440, elapsed: 0.0005609989166259766
ell 439, elapsed: 0.0005621910095214844
ell 438, elapsed: 0.0005598068237304688
ell 432, elapsed: 0.0010251998901367188
ell 431, elapsed: 0.0005729198455810547
ell 430, elapsed: 0.0005590915679931641
ell 429, elapsed: 0.0005540847778320312
ell 428, elapsed: 0.0005559921264648438
ell 422, elapsed: 0.0010368824005126953
ell 421, elapsed: 0.0005450248718261719
ell 420, elapsed: 0.0006129741668701172
ell 419, elapsed: 0.0005650520324707031
ell 418, elapsed: 0.0005581378936767578
ell 412, elapsed: 0.001009225845336914
ell 411, elapsed: 0.0005369186401367188
ell 410, elapsed: 0.0005588531494140625
ell 409, elapsed: 0.0005819797515869141
ell 408, elapsed: 0.0005540847778320312
ell 402, elapsed: 0.001010894775390625
ell 401, elapsed: 0.0005490779876708984
ell 400, elapsed: 0.0005669593811035156
ell 399, elapsed: 0.0005388259887695312
ell 398, elapsed: 0.0005819797515869141
ell 392, elapsed: 0.00098419189453125
ell 391, elapsed: 0.0005419254302978516
ell 390, elapsed: 0.0005538463592529297
ell 389, elapsed: 0.0005412101745605469
ell 388, elapsed: 0.0005440711975097656
ell 382, elapsed: 0.0010290145874023438
ell 381, elapsed: 0.0005359649658203125
ell 380, elapsed: 0.0005440711975097656
ell 379, elapsed: 0.0005440711975097656
ell 378, elapsed: 0.0005450248718261719
ell 372, elapsed: 0.0009949207305908203
ell 371, elapsed: 0.0005588531494140625
ell 370, elapsed: 0.0005521774291992188
ell 369, elapsed: 0.0005400180816650391
ell 368, elapsed: 0.0005409717559814453
ell 362, elapsed: 0.0009860992431640625
ell 361, elapsed: 0.0005431175231933594
ell 360, elapsed: 0.0005929470062255859
ell 359, elapsed: 0.0005331039428710938
ell 358, elapsed: 0.0005431175231933594
ell 352, elapsed: 0.0010018348693847656
ell 351, elapsed: 0.0005400180816650391
ell 350, elapsed: 0.0005500316619873047
ell 349, elapsed: 0.0005788803100585938
ell 348, elapsed: 0.0005440711975097656
ell 342, elapsed: 0.0009949207305908203
ell 341, elapsed: 0.0005359649658203125
ell 340, elapsed: 0.0005550384521484375
ell 339, elapsed: 0.0005340576171875
ell 338, elapsed: 0.0005400180816650391
ell 332, elapsed: 0.0010180473327636719
ell 331, elapsed: 0.0005290508270263672
ell 330, elapsed: 0.0005438327789306641
ell 329, elapsed: 0.0005340576171875
ell 328, elapsed: 0.0005421638488769531
ell 322, elapsed: 0.0010061264038085938
ell 321, elapsed: 0.0005331039428710938
ell 320, elapsed: 0.0005428791046142578
ell 319, elapsed: 0.0005340576171875
ell 318, elapsed: 0.0005488395690917969
ell 312, elapsed: 0.000993967056274414
ell 311, elapsed: 0.0005581378936767578
ell 310, elapsed: 0.0005400180816650391
ell 309, elapsed: 0.0005319118499755859
ell 308, elapsed: 0.0005419254302978516
ell 302, elapsed: 0.0009760856628417969
ell 301, elapsed: 0.0005269050598144531
ell 300, elapsed: 0.0005447864532470703
ell 299, elapsed: 0.0005800724029541016
ell 298, elapsed: 0.0005428791046142578
ell 292, elapsed: 0.0009729862213134766
ell 291, elapsed: 0.0005261898040771484
ell 290, elapsed: 0.0005450248718261719
ell 289, elapsed: 0.0005321502685546875
ell 288, elapsed: 0.0005698204040527344
ell 282, elapsed: 0.000993967056274414
ell 281, elapsed: 0.0005300045013427734
ell 280, elapsed: 0.0005431175231933594
ell 279, elapsed: 0.0005409717559814453
ell 278, elapsed: 0.0005509853363037109
ell 272, elapsed: 0.0010249614715576172
ell 271, elapsed: 0.0005369186401367188
ell 270, elapsed: 0.0005490779876708984
ell 269, elapsed: 0.0005371570587158203
ell 268, elapsed: 0.0005450248718261719
ell 262, elapsed: 0.0009970664978027344
ell 261, elapsed: 0.0006349086761474609
ell 260, elapsed: 0.0005459785461425781
ell 259, elapsed: 0.0005400180816650391
ell 258, elapsed: 0.0005419254302978516
ell 252, elapsed: 0.0009620189666748047
ell 251, elapsed: 0.0005269050598144531
ell 250, elapsed: 0.0005650520324707031
ell 249, elapsed: 0.0005300045013427734
ell 248, elapsed: 0.0005340576171875
ell 242, elapsed: 0.0009560585021972656
ell 241, elapsed: 0.0005178451538085938
ell 240, elapsed: 0.0005300045013427734
ell 239, elapsed: 0.0005450248718261719
ell 238, elapsed: 0.0005278587341308594
ell 232, elapsed: 0.0009419918060302734
ell 231, elapsed: 0.0005190372467041016
ell 230, elapsed: 0.0005390644073486328
ell 229, elapsed: 0.0005230903625488281
ell 228, elapsed: 0.0005438327789306641
ell 222, elapsed: 0.0010249614715576172
ell 221, elapsed: 0.0005350112915039062
ell 220, elapsed: 0.00055694580078125
ell 219, elapsed: 0.0005331039428710938
ell 218, elapsed: 0.0005450248718261719
ell 212, elapsed: 0.0009889602661132812
ell 211, elapsed: 0.0005328655242919922
ell 210, elapsed: 0.0005428791046142578
ell 209, elapsed: 0.0005490779876708984
ell 208, elapsed: 0.0005490779876708984
ell 202, elapsed: 0.0009989738464355469
ell 201, elapsed: 0.0005359649658203125
ell 200, elapsed: 0.0005860328674316406
ell 199, elapsed: 0.0005550384521484375
ell 198, elapsed: 0.0005679130554199219
ell 192, elapsed: 0.000965118408203125
ell 191, elapsed: 0.0005278587341308594
ell 190, elapsed: 0.0005500316619873047
ell 189, elapsed: 0.0006630420684814453
ell 188, elapsed: 0.000537872314453125
ell 182, elapsed: 0.0010111331939697266
ell 181, elapsed: 0.0005240440368652344
ell 180, elapsed: 0.0005629062652587891
ell 179, elapsed: 0.0005500316619873047
ell 178, elapsed: 0.0005841255187988281
ell 172, elapsed: 0.0009930133819580078
ell 171, elapsed: 0.0005462169647216797
ell 170, elapsed: 0.0005590915679931641
ell 169, elapsed: 0.0005271434783935547
ell 168, elapsed: 0.00055694580078125
ell 162, elapsed: 0.001024007797241211
ell 161, elapsed: 0.0005538463592529297
ell 160, elapsed: 0.0005600452423095703
ell 159, elapsed: 0.0005469322204589844
ell 158, elapsed: 0.0005359649658203125
ell 152, elapsed: 0.0009639263153076172
ell 151, elapsed: 0.0005791187286376953
ell 150, elapsed: 0.0005450248718261719
ell 149, elapsed: 0.0005431175231933594
ell 148, elapsed: 0.0005490779876708984
ell 142, elapsed: 0.0009679794311523438
ell 141, elapsed: 0.0005359649658203125
ell 140, elapsed: 0.0005660057067871094
ell 139, elapsed: 0.0005419254302978516
ell 138, elapsed: 0.0005450248718261719
ell 132, elapsed: 0.0009808540344238281
ell 131, elapsed: 0.0005168914794921875
ell 130, elapsed: 0.0005369186401367188
ell 129, elapsed: 0.0005688667297363281
ell 128, elapsed: 0.0005350112915039062
ell 122, elapsed: 0.0009529590606689453
ell 121, elapsed: 0.0005269050598144531
ell 120, elapsed: 0.0005409717559814453
ell 119, elapsed: 0.0005381107330322266
ell 118, elapsed: 0.0005481243133544922
ell 112, elapsed: 0.001007080078125
ell 111, elapsed: 0.0005300045013427734
ell 110, elapsed: 0.0005400180816650391
ell 109, elapsed: 0.0005309581756591797
ell 108, elapsed: 0.0005362033843994141
ell 102, elapsed: 0.0009758472442626953
ell 101, elapsed: 0.0022249221801757812
ell 100, elapsed: 0.0023009777069091797
ell 99, elapsed: 0.0022439956665039062
ell 98, elapsed: 0.0022859573364257812
ell 92, elapsed: 0.004431962966918945
ell 91, elapsed: 0.002318143844604492
ell 90, elapsed: 0.0022988319396972656
ell 89, elapsed: 0.0023889541625976562
ell 88, elapsed: 0.0022630691528320312
ell 82, elapsed: 0.004461050033569336
ell 81, elapsed: 0.002290010452270508
ell 80, elapsed: 0.0022749900817871094
ell 79, elapsed: 0.0022339820861816406
ell 78, elapsed: 0.0022330284118652344
ell 72, elapsed: 0.00442814826965332
ell 71, elapsed: 0.0022399425506591797
ell 70, elapsed: 0.002262115478515625
ell 69, elapsed: 0.0022530555725097656
ell 68, elapsed: 0.002193927764892578
ell 62, elapsed: 0.004338979721069336
ell 61, elapsed: 0.0022430419921875
ell 60, elapsed: 0.0022280216217041016
ell 59, elapsed: 0.0022661685943603516
ell 58, elapsed: 0.002237081527709961
ell 52, elapsed: 0.00450897216796875
ell 51, elapsed: 0.0022940635681152344
ell 50, elapsed: 0.002318859100341797
ell 49, elapsed: 0.0022919178009033203
ell 48, elapsed: 0.002295970916748047
ell 42, elapsed: 0.00448298454284668
ell 41, elapsed: 0.002295970916748047
ell 40, elapsed: 0.0022630691528320312
ell 39, elapsed: 0.0022830963134765625
ell 38, elapsed: 0.0022020339965820312
ell 32, elapsed: 0.004323005676269531
ell 31, elapsed: 0.0022079944610595703
ell 30, elapsed: 0.002259969711303711
ell 29, elapsed: 0.0022439956665039062
ell 28, elapsed: 0.0022809505462646484
ell 22, elapsed: 0.004431962966918945
ell 21, elapsed: 0.002225160598754883
ell 20, elapsed: 0.002259969711303711
ell 19, elapsed: 0.0022590160369873047
ell 18, elapsed: 0.0022149085998535156
ell 12, elapsed: 0.00445103645324707
ell 11, elapsed: 0.002309083938598633
ell 10, elapsed: 0.0023109912872314453
ell 9, elapsed: 0.0023398399353027344
ell 8, elapsed: 0.002424955368041992
  0.501997 seconds (68.56 k allocations: 12.176 MiB, 2.19% gc time)
elapsed: 0.0028672218322753906
step:          0.044349 sec (0 allocations: 0 byte, 0.0% gc time)
swapping:      0.000387 sec (0 allocations: 0 byte, 0.0% gc time)
calc_Mellell!: 0.016573 sec (0 allocations: 0 byte, 0.0% gc time)
  t0 :  0.007085 sec (0 allocations: 0 byte, 0.0% gc time)
  tm2 : 0.048772 sec (0 allocations: 0 byte, 0.0% gc time)
  tm2s: 0.005537 sec (0 allocations: 0 byte, 0.0% gc time)
  tm4 : 0.110265 sec (0 allocations: 0 byte, 0.0% gc time)
  tp2 : 0.0 sec (0 allocations: 0 byte, 0.0% gc time)
  tp2s: 0.0 sec (0 allocations: 0 byte, 0.0% gc time)
  tp4 : 0.0 sec (0 allocations: 0 byte, 0.0% gc time)
calc_wtdll!:   0.369591 sec (48.6 k allocations: 11.096 MB, 2.97% gc time)
calc_wljj!:    0.020782 sec (69 allocations: 1.078 KB, 0.0% gc time)
mult_prefac!:  0.0 sec (0 allocations: 0 byte, 0.0% gc time)
convert:       0.0 sec (0 allocations: 0 byte, 0.0% gc time)
write:         0.025237 sec (0 allocations: 0 byte, 0.0% gc time)
test_rand_2f1: 0.0 sec (0 allocations: 0 byte, 0.0% gc time)
Closing outfile out/MlCache/MlCache.bin...   0.000010 seconds
xi, l=0, nu=0:   0.282537 seconds (615.19 k allocations: 34.064 MiB, 99.54% compilation time)
xi, l=0, nu=-2:  0.001100 seconds (114 allocations: 148.969 KiB)
Created 'out/xi.tsv'.
  q=1.1, R=0.6:	  0.392590 seconds (264.58 k allocations: 38.109 MiB, 4.69% gc time)
  q=1.1, R=0.7:	  0.458725 seconds (276.43 k allocations: 40.113 MiB, 4.70% gc time)
  q=1.1, R=0.8:	  0.454862 seconds (271.87 k allocations: 39.334 MiB, 1.45% gc time)
  q=1.1, R=0.9:	  0.531300 seconds (266.68 k allocations: 38.464 MiB, 1.21% gc time)
  q=1.1, R=0.998:	 12.968117 seconds (114.96 k allocations: 7.588 MiB)
  q=1.1, R=1.0:	  0.002713 seconds (8.20 k allocations: 704.344 KiB)

ℓ = 1000
Δℓ = 4
ΔℓRg1 = -4
N = 4096
q = 1.1
kmin = 1.0e-5
kmax = 1000.0
χ0 = 0.001
RR = RR.tsv
ℓmax = ℓmax.bin
f21 = f21.bin
kmin = 1.0e-5
kmax = 1000.0
dlrec    = 4
dlrecRg1 = -4
Output size: 1573632 bytes = 0.0014655590057373047 GiB
Output size: 786816 bytes = 0.0007327795028686523 GiB
Reading 'out/F21EllCache'...   0.000951 seconds (198 allocations: 533.078 KiB)
ellmax: 1002
lmaxcache: 1000
fell[:,1,1] = ComplexF64[1.726292812820208e-224 - 4.2281979352226965e-240im, 1.7282693092099638e-224 - 4.233038955177178e-240im]
ell 1002, elapsed: 1.0967254638671875e-5
ell 1001, elapsed: 0.0007560253143310547
ell 1000, elapsed: 0.0006139278411865234
ell 999, elapsed: 0.0036139488220214844
ell 998, elapsed: 0.0035898685455322266
ell 44, elapsed: 0.5624449253082275
ell 43, elapsed: 0.003184080123901367
ell 42, elapsed: 0.0035440921783447266
ell 41, elapsed: 0.0034639835357666016
ell 40, elapsed: 0.0036118030548095703
  0.589383 seconds (4.59 k allocations: 322.266 KiB)
elapsed: 0.004377841949462891
step:          0.560866 sec (0 allocations: 0 byte, 0.0% gc time)
swapping:      0.0003 sec (0 allocations: 0 byte, 0.0% gc time)
calc_Mellell!: 0.000555 sec (0 allocations: 0 byte, 0.0% gc time)
  t0 :  0.000393 sec (0 allocations: 0 byte, 0.0% gc time)
  tm2 : 0.006827 sec (0 allocations: 0 byte, 0.0% gc time)
  tm2s: 0.000371 sec (0 allocations: 0 byte, 0.0% gc time)
  tm4 : 0.016593 sec (0 allocations: 0 byte, 0.0% gc time)
  tp2 : 0.0 sec (0 allocations: 0 byte, 0.0% gc time)
  tp2s: 0.0 sec (0 allocations: 0 byte, 0.0% gc time)
  tp4 : 0.0 sec (0 allocations: 0 byte, 0.0% gc time)
calc_wtdll!:   0.024324 sec (480 allocations: 52.5 KB, 0.0% gc time)
calc_wljj!:    0.000739 sec (1 allocations: 16 byte, 0.0% gc time)
mult_prefac!:  0.0 sec (0 allocations: 0 byte, 0.0% gc time)
convert:       0.0 sec (0 allocations: 0 byte, 0.0% gc time)
write:         0.000637 sec (0 allocations: 0 byte, 0.0% gc time)
test_rand_2f1: 0.0 sec (0 allocations: 0 byte, 0.0% gc time)
Closing outfile out/MlCache/MlCache.bin...   0.000004 seconds
  0.353055 seconds (38 allocations: 66.859 KiB)
make_phi():   0.005847 seconds (65 allocations: 275.984 KiB)
  0.037988 seconds (11.83 k allocations: 740.085 KiB, 92.39% compilation time)
tskip:       1.0e-6 sec (0 allocations: 0 byte, 0.0% gc time)
tread:       0.000553 sec (17 allocations: 1.266 KB, 0.0% gc time)
tmultphi:    0.00019 sec (0 allocations: 0 byte, 0.0% gc time)
tbrfft:      0.000829 sec (0 allocations: 0 byte, 0.0% gc time)
tmultprefac: 0.000365 sec (0 allocations: 0 byte, 0.0% gc time)
toutfunc:    0.000134 sec (0 allocations: 0 byte, 0.0% gc time)
Created 'out/wl42_jj00.tsv'.
Created 'out/wl42_jj02.tsv'.
     Testing TwoFAST tests passed 

PkgEval succeeded


################################################################################
# PkgEval teardown: 2020-10-28T11:46:05.895
#


CPU usage: 134.07s (123.05s user, 11.81s kernel)

Network usage:
- eth0: 23.809 MiB received, 263.464 KiB sent

Raw statistics: {"read":"2020-10-28T11:46:05.898204809Z","preread":"0001-01-01T00:00:00Z","pids_stats":{"current":46},"blkio_stats":{"io_service_bytes_recursive":[{"major":259,"minor":0,"op":"Read","value":0},{"major":259,"minor":0,"op":"Write","value":61440},{"major":259,"minor":0,"op":"Sync","value":0},{"major":259,"minor":0,"op":"Async","value":61440},{"major":259,"minor":0,"op":"Total","value":61440},{"major":253,"minor":2,"op":"Read","value":0},{"major":253,"minor":2,"op":"Write","value":61440},{"major":253,"minor":2,"op":"Sync","value":0},{"major":253,"minor":2,"op":"Async","value":61440},{"major":253,"minor":2,"op":"Total","value":61440}],"io_serviced_recursive":[{"major":259,"minor":0,"op":"Read","value":0},{"major":259,"minor":0,"op":"Write","value":13},{"major":259,"minor":0,"op":"Sync","value":0},{"major":259,"minor":0,"op":"Async","value":13},{"major":259,"minor":0,"op":"Total","value":13},{"major":253,"minor":2,"op":"Read","value":0},{"major":253,"minor":2,"op":"Write","value":13},{"major":253,"minor":2,"op":"Sync","value":0},{"major":253,"minor":2,"op":"Async","value":13},{"major":253,"minor":2,"op":"Total","value":13}],"io_queue_recursive":[],"io_service_time_recursive":[],"io_wait_time_recursive":[],"io_merged_recursive":[],"io_time_recursive":[],"sectors_recursive":[]},"num_procs":0,"storage_stats":{},"cpu_stats":{"cpu_usage":{"total_usage":134072651589,"percpu_usage":[2354899701,1963823696,1169665974,1687476754,5544549898,2035090332,6238597461,1316392154,4266154003,2527562002,1400668216,2400772411,337698084,1190987982,548869979,1804434218,1165398918,1992227922,2914211427,1956569362,3525824124,1608583679,1640656097,1183021437,1079581763,665711705,1174418830,2105459229,3389201757,4059808249,1885529096,3836586443,20114156,78298201,9150344,302031337,217124349,35321154,179158130,68899739,67285164,29736052,8695675,38104904,66043017,1690841,188104328,46823132,2553441,0,5836612,86753995,50326778,32537493,53927073,18438288,69646159,213138481,82400905,90066837,24781489,193613496,99133167,301400534,1869755146,2998494734,2762590576,2167940571,2651739853,1397952908,2942964456,618297626,4216004670,586704130,1952885815,2801030214,390589881,811883876,696418578,764048452,1568858122,1189281334,1325802355,2284880169,1928012922,1075205661,1639222267,1196129720,1543866816,794122875,2757369468,1405660618,1322030165,1968697495,2910056337,1989987006,0,1643510,210002314,456684435,0,148770380,48509016,306643652,29452251,24810,47251839,53511591,20756729,13400175,179900064,63924897,111980473,291738579,64910106,116322527,45576229,621130,176934260,368049755,13228807,21558029,492745618,162905108,104395669,71656509,129792601,139707536],"usage_in_kernelmode":11810000000,"usage_in_usermode":123050000000},"system_cpu_usage":94121369970000000,"online_cpus":128,"throttling_data":{"periods":1526,"throttled_periods":23,"throttled_time":4283501452}},"precpu_stats":{"cpu_usage":{"total_usage":0,"usage_in_kernelmode":0,"usage_in_usermode":0},"throttling_data":{"periods":0,"throttled_periods":0,"throttled_time":0}},"memory_stats":{"usage":336650240,"max_usage":943886336,"stats":{"active_anon":248180736,"active_file":4096,"cache":105598976,"dirty":0,"hierarchical_memory_limit":9223372036854771712,"hierarchical_memsw_limit":0,"inactive_anon":50065408,"inactive_file":8192,"mapped_file":0,"pgfault":2018168,"pgmajfault":0,"pgpgin":1103926,"pgpgout":1031108,"rss":192663552,"rss_huge":0,"total_active_anon":248180736,"total_active_file":4096,"total_cache":105598976,"total_dirty":0,"total_inactive_anon":50065408,"total_inactive_file":8192,"total_mapped_file":0,"total_pgfault":2018168,"total_pgmajfault":0,"total_pgpgin":1103926,"total_pgpgout":1031108,"total_rss":192663552,"total_rss_huge":0,"total_unevictable":0,"total_writeback":0,"unevictable":0,"writeback":0},"limit":540972998656},"name":"/TwoFAST-zZUZlIqp","id":"8d8eac9d364ffe78cb5045c05f64bbc07731ccc452b67da256c8723e948a832c","networks":{"eth0":{"rx_bytes":24965703,"rx_packets":6522,"rx_errors":0,"rx_dropped":5,"tx_bytes":269787,"tx_packets":3676,"tx_errors":0,"tx_dropped":0}}}

