Julia Version 1.6.0-DEV.993
Commit 5a86131b14* (2020-09-21 17:04 UTC)
Platform Info:
  OS: Linux (x86_64-linux-gnu)
  CPU: Intel(R) Xeon(R) Silver 4114 CPU @ 2.20GHz
  WORD_SIZE: 64
  LIBM: libopenlibm
  LLVM: libLLVM-9.0.1 (ORCJIT, skylake-avx512)
Environment:
  JULIA_DEPOT_PATH = ::/usr/local/share/julia
  JULIA_NUM_THREADS = 2

  Resolving package versions...
  Installed CompilerSupportLibraries_jll ─ v0.3.3+0
  Installed FFTW_jll ───────────────────── v3.3.9+5
  Installed Readables ──────────────────── v0.3.3
  Installed MKL_jll ────────────────────── v2020.2.254+0
  Installed OpenSpecFun_jll ────────────── v0.5.3+3
  Installed GenericSVD ─────────────────── v0.3.0
  Installed FFTW ───────────────────────── v1.2.4
  Installed AbstractFFTs ───────────────── v0.5.0
  Installed IntelOpenMP_jll ────────────── v2018.0.3+0
  Installed BinaryProvider ─────────────── v0.5.10
  Installed SpecialFunctions ───────────── v0.10.3
  Installed GenericSchur ───────────────── v0.4.0
  Installed Reexport ───────────────────── v0.2.0
  Installed TwoFAST ────────────────────── v0.1.3
  Installed ArbNumerics ────────────────── v1.2.1
Updating `~/.julia/environments/v1.6/Project.toml`
  [0dd23c3e] + TwoFAST v0.1.3
Updating `~/.julia/environments/v1.6/Manifest.toml`
  [621f4979] + AbstractFFTs v0.5.0
  [7e558dbc] + ArbNumerics v1.2.1
  [b99e7846] + BinaryProvider v0.5.10
  [e66e0078] + CompilerSupportLibraries_jll v0.3.3+0
  [7a1cc6ca] + FFTW v1.2.4
  [f5851436] + FFTW_jll v3.3.9+5
  [01680d73] + GenericSVD v0.3.0
  [c145ed77] + GenericSchur v0.4.0
  [1d5cc7b8] + IntelOpenMP_jll v2018.0.3+0
  [856f044c] + MKL_jll v2020.2.254+0
  [efe28fd5] + OpenSpecFun_jll v0.5.3+3
  [0d4725de] + Readables v0.3.3
  [189a3867] + Reexport v0.2.0
  [276daf66] + SpecialFunctions v0.10.3
  [0dd23c3e] + TwoFAST v0.1.3
  [56f22d72] + Artifacts
  [2a0f44e3] + Base64
  [ade2ca70] + Dates
  [8bb1440f] + DelimitedFiles
  [8ba89e20] + Distributed
  [b77e0a4c] + InteractiveUtils
  [76f85450] + LibGit2
  [8f399da3] + Libdl
  [37e2e46d] + LinearAlgebra
  [56ddb016] + Logging
  [d6f4376e] + Markdown
  [a63ad114] + Mmap
  [44cfe95a] + Pkg
  [de0858da] + Printf
  [3fa0cd96] + REPL
  [9a3f8284] + Random
  [ea8e919c] + SHA
  [9e88b42a] + Serialization
  [6462fe0b] + Sockets
  [fa267f1f] + TOML
  [8dfed614] + Test
  [cf7118a7] + UUIDs
  [4ec0a83e] + Unicode
   Building FFTW ───────→ `~/.julia/packages/FFTW/DMUbN/deps/build.log`
   Building ArbNumerics → `~/.julia/packages/ArbNumerics/joGFm/deps/build.log`
    Testing TwoFAST
Status `/tmp/jl_89oGN8/Project.toml`
  [7e558dbc] ArbNumerics v1.2.1
  [39dd38d3] Dierckx v0.5.0
  [7a1cc6ca] FFTW v1.2.4
  [276daf66] SpecialFunctions v0.10.3
  [0dd23c3e] TwoFAST v0.1.3
  [8bb1440f] DelimitedFiles
  [37e2e46d] LinearAlgebra
  [56ddb016] Logging
  [8dfed614] Test
Status `/tmp/jl_89oGN8/Manifest.toml`
  [621f4979] AbstractFFTs v0.5.0
  [7e558dbc] ArbNumerics v1.2.1
  [b99e7846] BinaryProvider v0.5.10
  [e66e0078] CompilerSupportLibraries_jll v0.3.3+0
  [39dd38d3] Dierckx v0.5.0
  [cd4c43a9] Dierckx_jll v0.0.1+0
  [7a1cc6ca] FFTW v1.2.4
  [f5851436] FFTW_jll v3.3.9+5
  [01680d73] GenericSVD v0.3.0
  [c145ed77] GenericSchur v0.4.0
  [1d5cc7b8] IntelOpenMP_jll v2018.0.3+0
  [856f044c] MKL_jll v2020.2.254+0
  [efe28fd5] OpenSpecFun_jll v0.5.3+3
  [0d4725de] Readables v0.3.3
  [189a3867] Reexport v0.2.0
  [276daf66] SpecialFunctions v0.10.3
  [0dd23c3e] TwoFAST v0.1.3
  [56f22d72] Artifacts
  [2a0f44e3] Base64
  [ade2ca70] Dates
  [8bb1440f] DelimitedFiles
  [8ba89e20] Distributed
  [b77e0a4c] InteractiveUtils
  [76f85450] LibGit2
  [8f399da3] Libdl
  [37e2e46d] LinearAlgebra
  [56ddb016] Logging
  [d6f4376e] Markdown
  [a63ad114] Mmap
  [44cfe95a] Pkg
  [de0858da] Printf
  [3fa0cd96] REPL
  [9a3f8284] Random
  [ea8e919c] SHA
  [9e88b42a] Serialization
  [6462fe0b] Sockets
  [fa267f1f] TOML
  [8dfed614] Test
  [cf7118a7] UUIDs
  [4ec0a83e] Unicode
    Testing Running tests...
WARNING: could not import Printf.ini_hex into ArbNumerics
WARNING: could not import Printf.ini_HEX into ArbNumerics
t = 0.0 sec (0 allocations: 0 byte, 0.0% gc time)
typeof(t) = NamedTuple{(:value, :time, :bytes, :gctime, :gcstats), Tuple{DataType, Float64, Int64, Float64, Base.GC_Diff}}
TwoFAST.PerformanceStats.TimedType = Union{NamedTuple{(:value, :time, :bytes, :gctime, :gcstats), Tuple{T, Float64, Int64, Float64, Base.GC_Diff}}, Tuple{Any, Float64, Int64, Float64, Base.GC_Diff}} where T
t = 1.0e-6 sec (0 allocations: 0 byte, 0.0% gc time)
t: 1.0e-6 sec (0 allocations: 0 byte, 0.0% gc time)
Testing ξ(r), ℓ=0, ν=-1 ... passed
Testing ξ(r), ℓ=0, ν=0 ... passed
Testing ξ(r), ℓ=0, ν=1 ... passed
Testing ξ(r), ℓ=0, ν=2 ... passed
Testing ξ(r), ℓ=0, ν=3 ... passed
Testing ξ(r), ℓ=1, ν=0 ... passed
Testing ξ(r), ℓ=1, ν=1 ... passed
Testing ξ(r), ℓ=1, ν=2 ... passed
Testing ξ(r), ℓ=1, ν=3 ... passed
Testing ξ(r), ℓ=2, ν=-1 ... passed
Testing ξ(r), ℓ=2, ν=0 ... passed
Testing ξ(r), ℓ=2, ν=1 ... passed
Testing ξ(r), ℓ=2, ν=2 ... passed
Testing ξ(r), ℓ=2, ν=3 ... passed
Testing ξ(r), ℓ=3, ν=-1 ... passed
Testing ξ(r), ℓ=3, ν=0 ... passed
Testing ξ(r), ℓ=3, ν=1 ... passed
Testing ξ(r), ℓ=3, ν=2 ... passed
Testing ξ(r), ℓ=3, ν=3 ... passed
Testing ξ(r), ℓ=4, ν=-1 ... passed
Testing ξ(r), ℓ=4, ν=0 ... passed
Testing ξ(r), ℓ=4, ν=1 ... passed
Testing ξ(r), ℓ=4, ν=2 ... passed
Testing ξ(r), ℓ=4, ν=3 ... passed
Testing ξ(r) ... passed
Testing ξ′(r) ... passed
Testing ξ″(r) ... passed
Calculating fmax: 
  dlrec    = 4
  dlrecRg1 = -4
  q=1.1, R=1.1:	  4.253110 seconds (839.17 k allocations: 53.566 MiB, 0.87% gc time)

  4.270208 seconds (851.85 k allocations: 54.355 MiB, 0.87% gc time)
ℓ = 1202
Δℓ = 4
ΔℓRg1 = -4
N = 1600
q = 1.1
kmin = 1.0e-5
kmax = 100000.00000000004
χ0 = 0.023029999999999995
RR = RR.tsv
ℓmax = ℓmax.bin
f21 = f21.bin
kmin = 1.0e-5
kmax = 100000.0
dlrec    = 4
dlrecRg1 = -4
Output size: 5741568 bytes = 0.005347251892089844 GiB
Output size: 51264 bytes = 4.774332046508789e-5 GiB
Reading 'out/F21EllCache'...   0.807879 seconds (396.01 k allocations: 23.245 MiB)
ellmax: 1202
lmaxcache: 1202
fell[:,1,1] = ComplexF64[3.9583795592771634e-52 - 9.695233714158177e-68im, 3.990121772925759e-52 - 9.772979714843386e-68im]
ell 1202, elapsed: 5.4836273193359375e-5
ell 1201, elapsed: 1.3499820232391357
ell 1200, elapsed: 0.0006611347198486328
ell 1199, elapsed: 0.0006539821624755859
ell 1198, elapsed: 0.0005609989166259766
ell 1002, elapsed: 0.010650157928466797
ell 1001, elapsed: 0.0007088184356689453
ell 1000, elapsed: 0.0006530284881591797
ell 999, elapsed: 0.0005748271942138672
ell 998, elapsed: 0.0005788803100585938
ell 902, elapsed: 0.0093231201171875
ell 901, elapsed: 0.0005998611450195312
ell 900, elapsed: 0.0006000995635986328
ell 899, elapsed: 0.0007600784301757812
ell 898, elapsed: 0.0006530284881591797
ell 802, elapsed: 0.006257057189941406
ell 801, elapsed: 0.0006849765777587891
ell 800, elapsed: 0.0007770061492919922
ell 799, elapsed: 0.0007171630859375
ell 798, elapsed: 0.0007870197296142578
ell 702, elapsed: 0.008604049682617188
ell 701, elapsed: 0.0007319450378417969
ell 700, elapsed: 0.0008690357208251953
ell 699, elapsed: 0.0007460117340087891
ell 698, elapsed: 0.0008249282836914062
ell 602, elapsed: 0.0072650909423828125
ell 601, elapsed: 0.0006430149078369141
ell 600, elapsed: 0.0008120536804199219
ell 599, elapsed: 0.0006239414215087891
ell 598, elapsed: 0.0005822181701660156
ell 502, elapsed: 0.00882101058959961
ell 501, elapsed: 0.0006670951843261719
ell 500, elapsed: 0.0006518363952636719
ell 499, elapsed: 0.0006380081176757812
ell 498, elapsed: 0.0006961822509765625
ell 402, elapsed: 0.006075143814086914
ell 401, elapsed: 0.0007538795471191406
ell 400, elapsed: 0.0007700920104980469
ell 399, elapsed: 0.0007319450378417969
ell 398, elapsed: 0.0006549358367919922
ell 302, elapsed: 0.006192922592163086
ell 301, elapsed: 0.0006668567657470703
ell 300, elapsed: 0.0007011890411376953
ell 299, elapsed: 0.0006589889526367188
ell 298, elapsed: 0.0007028579711914062
ell 202, elapsed: 0.0065419673919677734
ell 201, elapsed: 0.0006499290466308594
ell 200, elapsed: 0.0006511211395263672
ell 199, elapsed: 0.0006971359252929688
ell 198, elapsed: 0.0006899833679199219
ell 152, elapsed: 0.0033299922943115234
ell 151, elapsed: 0.0007328987121582031
ell 150, elapsed: 0.0007410049438476562
ell 149, elapsed: 0.0007250308990478516
ell 148, elapsed: 0.0007309913635253906
ell 127, elapsed: 0.0019588470458984375
ell 126, elapsed: 0.0006651878356933594
ell 125, elapsed: 0.0006659030914306641
ell 124, elapsed: 0.000659942626953125
ell 123, elapsed: 0.0006780624389648438
ell 114, elapsed: 0.0011761188507080078
ell 113, elapsed: 0.0007021427154541016
ell 112, elapsed: 0.0007009506225585938
ell 111, elapsed: 0.0006148815155029297
ell 110, elapsed: 0.0006248950958251953
ell 102, elapsed: 0.0011641979217529297
ell 101, elapsed: 0.0007278919219970703
ell 100, elapsed: 0.00067901611328125
ell 99, elapsed: 0.0006089210510253906
ell 98, elapsed: 0.0006301403045654297
ell 97, elapsed: 0.0007448196411132812
ell 96, elapsed: 0.0007281303405761719
ell 95, elapsed: 0.0007121562957763672
ell 94, elapsed: 0.0007040500640869141
ell 93, elapsed: 0.0007319450378417969
ell 92, elapsed: 0.0007460117340087891
ell 91, elapsed: 0.0007350444793701172
ell 90, elapsed: 0.0007548332214355469
ell 89, elapsed: 0.0007388591766357422
ell 88, elapsed: 0.000743865966796875
ell 87, elapsed: 0.0007510185241699219
ell 86, elapsed: 0.0007519721984863281
ell 85, elapsed: 0.0007700920104980469
ell 84, elapsed: 0.0007448196411132812
ell 83, elapsed: 0.0007450580596923828
ell 82, elapsed: 0.0007460117340087891
ell 81, elapsed: 0.0007560253143310547
ell 80, elapsed: 0.0007579326629638672
ell 79, elapsed: 0.0007851123809814453
ell 78, elapsed: 0.0007469654083251953
ell 77, elapsed: 0.0007839202880859375
ell 76, elapsed: 0.0007739067077636719
ell 75, elapsed: 0.0007688999176025391
ell 74, elapsed: 0.0007729530334472656
ell 73, elapsed: 0.0007638931274414062
ell 72, elapsed: 0.0007691383361816406
ell 71, elapsed: 0.0007610321044921875
ell 70, elapsed: 0.0007750988006591797
ell 69, elapsed: 0.0007669925689697266
ell 68, elapsed: 0.0007801055908203125
ell 67, elapsed: 0.0007548332214355469
ell 66, elapsed: 0.0007750988006591797
ell 65, elapsed: 0.0007801055908203125
ell 64, elapsed: 0.0007641315460205078
ell 63, elapsed: 0.0007538795471191406
ell 62, elapsed: 0.0007770061492919922
ell 61, elapsed: 0.0007719993591308594
ell 60, elapsed: 0.0007610321044921875
ell 59, elapsed: 0.0007650852203369141
ell 58, elapsed: 0.0007669925689697266
ell 57, elapsed: 0.000759124755859375
ell 56, elapsed: 0.0007650852203369141
ell 55, elapsed: 0.0007829666137695312
ell 54, elapsed: 0.0007319450378417969
ell 53, elapsed: 0.0007231235504150391
ell 52, elapsed: 0.0007009506225585938
ell 51, elapsed: 0.0007448196411132812
ell 50, elapsed: 0.0007231235504150391
ell 49, elapsed: 0.0007040500640869141
ell 48, elapsed: 0.0007431507110595703
ell 47, elapsed: 0.0007598400115966797
ell 46, elapsed: 0.0007171630859375
ell 45, elapsed: 0.0007441043853759766
ell 44, elapsed: 0.0007460117340087891
ell 43, elapsed: 0.0007619857788085938
ell 42, elapsed: 0.0007410049438476562
ell 41, elapsed: 0.0007369518280029297
ell 40, elapsed: 0.0007450580596923828
ell 39, elapsed: 0.0007619857788085938
ell 38, elapsed: 0.0007510185241699219
ell 37, elapsed: 0.0007460117340087891
ell 36, elapsed: 0.0007510185241699219
ell 35, elapsed: 0.0007719993591308594
ell 34, elapsed: 0.0007457733154296875
ell 33, elapsed: 0.0007600784301757812
ell 32, elapsed: 0.0007481575012207031
ell 31, elapsed: 0.0007321834564208984
ell 30, elapsed: 0.0007760524749755859
ell 29, elapsed: 0.0007691383361816406
ell 28, elapsed: 0.0007600784301757812
ell 27, elapsed: 0.0007700920104980469
ell 26, elapsed: 0.0007688999176025391
ell 25, elapsed: 0.0007469654083251953
ell 24, elapsed: 0.0007519721984863281
ell 23, elapsed: 0.0007250308990478516
ell 22, elapsed: 0.0007200241088867188
ell 21, elapsed: 0.0007278919219970703
ell 20, elapsed: 0.0007319450378417969
ell 19, elapsed: 0.0007839202880859375
ell 18, elapsed: 0.00072479248046875
ell 17, elapsed: 0.0007050037384033203
ell 16, elapsed: 0.0007598400115966797
ell 15, elapsed: 0.0007410049438476562
ell 14, elapsed: 0.0007190704345703125
ell 13, elapsed: 0.0007569789886474609
ell 12, elapsed: 0.0007140636444091797
ell 11, elapsed: 0.0007379055023193359
ell 10, elapsed: 0.000743865966796875
ell 9, elapsed: 0.0007100105285644531
ell 8, elapsed: 0.0007281303405761719
ell 7, elapsed: 0.0007600784301757812
ell 6, elapsed: 0.0007228851318359375
ell 5, elapsed: 0.0007250308990478516
ell 4, elapsed: 0.0007331371307373047
ell 3, elapsed: 0.0007100105285644531
ell 2, elapsed: 0.0007140636444091797
ell 1, elapsed: 0.0007350444793701172
ell 0, elapsed: 0.0007219314575195312
  2.239400 seconds (1.27 M allocations: 69.779 MiB, 3.14% gc time)
elapsed: 0.0015101432800292969
step:          0.377423 sec (307.129 k allocations: 16.679 MB, 6.06% gc time)
swapping:      0.000582 sec (0 allocations: 0 byte, 0.0% gc time)
calc_Mellell!: 0.146528 sec (133.359 k allocations: 7.263 MB, 0.0% gc time)
  t0 :  0.0 sec (0 allocations: 0 byte, 0.0% gc time)
  tm2 : 0.0 sec (0 allocations: 0 byte, 0.0% gc time)
  tm2s: 0.0 sec (0 allocations: 0 byte, 0.0% gc time)
  tm4 : 0.0 sec (0 allocations: 0 byte, 0.0% gc time)
  tp2 : 0.0 sec (0 allocations: 0 byte, 0.0% gc time)
  tp2s: 0.0 sec (0 allocations: 0 byte, 0.0% gc time)
  tp4 : 0.0 sec (0 allocations: 0 byte, 0.0% gc time)
calc_wtdll!:   0.988619 sec (510.258 k allocations: 28.228 MB, 0.0% gc time)
calc_wljj!:    0.00411 sec (6 allocations: 96 byte, 0.0% gc time)
mult_prefac!:  0.0 sec (0 allocations: 0 byte, 0.0% gc time)
convert:       0.0 sec (0 allocations: 0 byte, 0.0% gc time)
write:         0.00429 sec (0 allocations: 0 byte, 0.0% gc time)
test_rand_2f1: 0.0 sec (0 allocations: 0 byte, 0.0% gc time)
Closing outfile out/Ml21-cache.bin...   0.000029 seconds
  1.471281 seconds (346.90 k allocations: 21.112 MiB)
make_phi():   0.014765 seconds (8.18 k allocations: 237.844 KiB)
  0.324647 seconds (87.66 k allocations: 4.754 MiB, 6.37% gc time)
tskip:       2.7e-5 sec (0 allocations: 0 byte, 0.0% gc time)
tread:       0.003243 sec (17 allocations: 2.125 KB, 0.0% gc time)
tmultphi:    0.071621 sec (21.455 k allocations: 1.289 MB, 28.87% gc time)
tbrfft:      0.00538 sec (0 allocations: 0 byte, 0.0% gc time)
tmultprefac: 0.004674 sec (0 allocations: 0 byte, 0.0% gc time)
toutfunc:    0.19147 sec (64.546 k allocations: 3.334 MB, 0.0% gc time)
Testing R=1.1 ... passed
Calculating fmax: 
  dlrec    = 4
  dlrecRg1 = -4
  q=1.1, R=1.0:	  0.001708 seconds (3.20 k allocations: 275.344 KiB)

  0.002857 seconds (3.35 k allocations: 311.750 KiB)
ℓ = 1202
Δℓ = 4
ΔℓRg1 = -4
N = 1600
q = 1.1
kmin = 1.0e-5
kmax = 100000.00000000004
χ0 = 0.023029999999999995
RR = RR.tsv
ℓmax = ℓmax.bin
f21 = f21.bin
kmin = 1.0e-5
kmax = 100000.0
dlrec    = 4
dlrecRg1 = -4
Output size: 61465536 bytes = 0.05724424123764038 GiB
Output size: 51264 bytes = 4.774332046508789e-5 GiB
Reading 'out/F21EllCache'...   0.001170 seconds (197 allocations: 84.203 KiB)
ellmax: 1202
lmaxcache: 1202
fell[:,1,1] = ComplexF64[809.6031528389767 - 1.9829558194077161e-13im, 0.0 + 0.0im]
ell 1202, elapsed: 0.00010204315185546875
ell 1201, elapsed: 0.018039941787719727
ell 1200, elapsed: 0.019466161727905273
ell 1199, elapsed: 0.000514984130859375
ell 1198, elapsed: 0.0005331039428710938
ell 1197, elapsed: 0.0005939006805419922
ell 1196, elapsed: 0.0007729530334472656
ell 1195, elapsed: 0.0005891323089599609
ell 1194, elapsed: 0.0006139278411865234
ell 1193, elapsed: 0.0005931854248046875
ell 1192, elapsed: 0.0006060600280761719
ell 1191, elapsed: 0.0006051063537597656
ell 1190, elapsed: 0.0006210803985595703
ell 1189, elapsed: 0.0006849765777587891
ell 1188, elapsed: 0.0006108283996582031
ell 1187, elapsed: 0.0006198883056640625
ell 1186, elapsed: 0.0006060600280761719
ell 1185, elapsed: 0.0005970001220703125
ell 1184, elapsed: 0.0005970001220703125
ell 1183, elapsed: 0.0007457733154296875
ell 1182, elapsed: 0.0008461475372314453
ell 1181, elapsed: 0.0007750988006591797
ell 1180, elapsed: 0.0007688999176025391
ell 1179, elapsed: 0.0006170272827148438
ell 1178, elapsed: 0.0008921623229980469
ell 1177, elapsed: 0.0006389617919921875
ell 1176, elapsed: 0.0006260871887207031
ell 1175, elapsed: 0.0007410049438476562
ell 1174, elapsed: 0.0006310939788818359
ell 1173, elapsed: 0.0007731914520263672
ell 1172, elapsed: 0.0008320808410644531
ell 1171, elapsed: 0.0005619525909423828
ell 1170, elapsed: 0.0005519390106201172
ell 1169, elapsed: 0.0007901191711425781
ell 1168, elapsed: 0.0006899833679199219
ell 1167, elapsed: 0.0007121562957763672
ell 1166, elapsed: 0.0008299350738525391
ell 1165, elapsed: 0.0007319450378417969
ell 1164, elapsed: 0.00061798095703125
ell 1163, elapsed: 0.0007848739624023438
ell 1162, elapsed: 0.0005800724029541016
ell 1161, elapsed: 0.0005681514739990234
ell 1160, elapsed: 0.0005469322204589844
ell 1159, elapsed: 0.0005600452423095703
ell 1158, elapsed: 0.0005428791046142578
ell 1157, elapsed: 0.0005500316619873047
ell 1156, elapsed: 0.0005548000335693359
ell 1155, elapsed: 0.0005431175231933594
ell 1154, elapsed: 0.0005490779876708984
ell 1153, elapsed: 0.0006139278411865234
ell 1152, elapsed: 0.0006089210510253906
ell 1151, elapsed: 0.0008199214935302734
ell 1150, elapsed: 0.0005719661712646484
ell 1149, elapsed: 0.0007982254028320312
ell 1148, elapsed: 0.0006248950958251953
ell 1147, elapsed: 0.0005960464477539062
ell 1146, elapsed: 0.0006139278411865234
ell 1145, elapsed: 0.0005970001220703125
ell 1144, elapsed: 0.0006060600280761719
ell 1143, elapsed: 0.0007810592651367188
ell 1142, elapsed: 0.0008111000061035156
ell 1141, elapsed: 0.0008141994476318359
ell 1140, elapsed: 0.0006339550018310547
ell 1139, elapsed: 0.0006220340728759766
ell 1138, elapsed: 0.0006060600280761719
ell 1137, elapsed: 0.0006110668182373047
ell 1136, elapsed: 0.0007879734039306641
ell 1135, elapsed: 0.0006120204925537109
ell 1134, elapsed: 0.0005600452423095703
ell 1133, elapsed: 0.0006148815155029297
ell 1132, elapsed: 0.0006070137023925781
ell 1131, elapsed: 0.0005359649658203125
ell 1130, elapsed: 0.0005900859832763672
ell 1129, elapsed: 0.0007169246673583984
ell 1128, elapsed: 0.0005970001220703125
ell 1127, elapsed: 0.0007460117340087891
ell 1126, elapsed: 0.0005888938903808594
ell 1125, elapsed: 0.0005660057067871094
ell 1124, elapsed: 0.0008180141448974609
ell 1123, elapsed: 0.0006310939788818359
ell 1122, elapsed: 0.0005769729614257812
ell 1121, elapsed: 0.0006041526794433594
ell 1120, elapsed: 0.0006041526794433594
ell 1119, elapsed: 0.0008141994476318359
ell 1118, elapsed: 0.0006279945373535156
ell 1117, elapsed: 0.0007550716400146484
ell 1116, elapsed: 0.0006349086761474609
ell 1115, elapsed: 0.0005698204040527344
ell 1114, elapsed: 0.0006070137023925781
ell 1113, elapsed: 0.0007390975952148438
ell 1112, elapsed: 0.0006098747253417969
ell 1111, elapsed: 0.0007040500640869141
ell 1110, elapsed: 0.0006089210510253906
ell 1109, elapsed: 0.0007650852203369141
ell 1108, elapsed: 0.0006389617919921875
ell 1107, elapsed: 0.0007569789886474609
ell 1106, elapsed: 0.0006940364837646484
ell 1105, elapsed: 0.0007851123809814453
ell 1104, elapsed: 0.0007691383361816406
ell 1103, elapsed: 0.0005810260772705078
ell 1102, elapsed: 0.0007181167602539062
ell 1101, elapsed: 0.0008199214935302734
ell 1100, elapsed: 0.0008039474487304688
ell 1099, elapsed: 0.0007650852203369141
ell 1098, elapsed: 0.0007939338684082031
ell 1097, elapsed: 0.0007548332214355469
ell 1096, elapsed: 0.0007281303405761719
ell 1095, elapsed: 0.0007069110870361328
ell 1094, elapsed: 0.0005481243133544922
ell 1093, elapsed: 0.0006411075592041016
ell 1092, elapsed: 0.0006480216979980469
ell 1091, elapsed: 0.0006589889526367188
ell 1090, elapsed: 0.0006489753723144531
ell 1089, elapsed: 0.0005810260772705078
ell 1088, elapsed: 0.0005431175231933594
ell 1087, elapsed: 0.0007009506225585938
ell 1086, elapsed: 0.0005910396575927734
ell 1085, elapsed: 0.0005688667297363281
ell 1084, elapsed: 0.0006220340728759766
ell 1083, elapsed: 0.0006539821624755859
ell 1082, elapsed: 0.0006749629974365234
ell 1081, elapsed: 0.0005571842193603516
ell 1080, elapsed: 0.0005979537963867188
ell 1079, elapsed: 0.000514984130859375
ell 1078, elapsed: 0.0005919933319091797
ell 1077, elapsed: 0.0006160736083984375
ell 1076, elapsed: 0.0005910396575927734
ell 1075, elapsed: 0.0006258487701416016
ell 1074, elapsed: 0.0008070468902587891
ell 1073, elapsed: 0.0005488395690917969
ell 1072, elapsed: 0.00049591064453125
ell 1071, elapsed: 0.0005481243133544922
ell 1070, elapsed: 0.0004851818084716797
ell 1069, elapsed: 0.0006399154663085938
ell 1068, elapsed: 0.0005769729614257812
ell 1067, elapsed: 0.0006151199340820312
ell 1066, elapsed: 0.0005021095275878906
ell 1065, elapsed: 0.0005819797515869141
ell 1064, elapsed: 0.0005650520324707031
ell 1063, elapsed: 0.0007190704345703125
ell 1062, elapsed: 0.0007419586181640625
ell 1061, elapsed: 0.0007309913635253906
ell 1060, elapsed: 0.0007541179656982422
ell 1059, elapsed: 0.0006260871887207031
ell 1058, elapsed: 0.00049591064453125
ell 1057, elapsed: 0.0005280971527099609
ell 1056, elapsed: 0.0004961490631103516
ell 1055, elapsed: 0.0007419586181640625
ell 1054, elapsed: 0.0006020069122314453
ell 1053, elapsed: 0.0005109310150146484
ell 1052, elapsed: 0.0005609989166259766
ell 1051, elapsed: 0.0006089210510253906
ell 1050, elapsed: 0.0006690025329589844
ell 1049, elapsed: 0.0007920265197753906
ell 1048, elapsed: 0.0006039142608642578
ell 1047, elapsed: 0.0007770061492919922
ell 1046, elapsed: 0.0005369186401367188
ell 1045, elapsed: 0.0004999637603759766
ell 1044, elapsed: 0.0006279945373535156
ell 1043, elapsed: 0.0005941390991210938
ell 1042, elapsed: 0.0006229877471923828
ell 1041, elapsed: 0.0007648468017578125
ell 1040, elapsed: 0.0005810260772705078
ell 1039, elapsed: 0.0005860328674316406
ell 1038, elapsed: 0.0007009506225585938
ell 1037, elapsed: 0.0007371902465820312
ell 1036, elapsed: 0.0006220340728759766
ell 1035, elapsed: 0.0007479190826416016
ell 1034, elapsed: 0.0005600452423095703
ell 1033, elapsed: 0.0006418228149414062
ell 1032, elapsed: 0.0007748603820800781
ell 1031, elapsed: 0.0005948543548583984
ell 1030, elapsed: 0.0006999969482421875
ell 1029, elapsed: 0.0007359981536865234
ell 1028, elapsed: 0.0005788803100585938
ell 1027, elapsed: 0.0005929470062255859
ell 1026, elapsed: 0.0006430149078369141
ell 1025, elapsed: 0.0005619525909423828
ell 1024, elapsed: 0.0007100105285644531
ell 1023, elapsed: 0.0006399154663085938
ell 1022, elapsed: 0.0005359649658203125
ell 1021, elapsed: 0.0006208419799804688
ell 1020, elapsed: 0.0006151199340820312
ell 1019, elapsed: 0.0007841587066650391
ell 1018, elapsed: 0.0005738735198974609
ell 1017, elapsed: 0.0007688999176025391
ell 1016, elapsed: 0.0006802082061767578
ell 1015, elapsed: 0.0007688999176025391
ell 1014, elapsed: 0.0005781650543212891
ell 1013, elapsed: 0.0005850791931152344
ell 1012, elapsed: 0.0005431175231933594
ell 1011, elapsed: 0.00048089027404785156
ell 1010, elapsed: 0.0007178783416748047
ell 1009, elapsed: 0.0006749629974365234
ell 1008, elapsed: 0.0007619857788085938
ell 1007, elapsed: 0.0006020069122314453
ell 1006, elapsed: 0.0006129741668701172
ell 1005, elapsed: 0.0006830692291259766
ell 1004, elapsed: 0.0005869865417480469
ell 1003, elapsed: 0.0006890296936035156
ell 1002, elapsed: 0.0006711483001708984
ell 1001, elapsed: 0.0005028247833251953
ell 1000, elapsed: 0.0007021427154541016
ell 999, elapsed: 0.0006930828094482422
ell 998, elapsed: 0.0006539821624755859
ell 997, elapsed: 0.0004889965057373047
ell 996, elapsed: 0.0007708072662353516
ell 995, elapsed: 0.0006098747253417969
ell 994, elapsed: 0.0007429122924804688
ell 993, elapsed: 0.0007081031799316406
ell 992, elapsed: 0.0007989406585693359
ell 991, elapsed: 0.0006508827209472656
ell 990, elapsed: 0.0006210803985595703
ell 989, elapsed: 0.0006120204925537109
ell 988, elapsed: 0.0006480216979980469
ell 987, elapsed: 0.0004899501800537109
ell 986, elapsed: 0.0007159709930419922
ell 985, elapsed: 0.0005309581756591797
ell 984, elapsed: 0.0005881786346435547
ell 983, elapsed: 0.0006659030914306641
ell 982, elapsed: 0.0008389949798583984
ell 981, elapsed: 0.000659942626953125
ell 980, elapsed: 0.0005850791931152344
ell 979, elapsed: 0.0007250308990478516
ell 978, elapsed: 0.0006000995635986328
ell 977, elapsed: 0.0005440711975097656
ell 976, elapsed: 0.0005660057067871094
ell 975, elapsed: 0.0006000995635986328
ell 974, elapsed: 0.0005199909210205078
ell 973, elapsed: 0.0006749629974365234
ell 972, elapsed: 0.0006849765777587891
ell 971, elapsed: 0.0005810260772705078
ell 970, elapsed: 0.0007679462432861328
ell 969, elapsed: 0.0005970001220703125
ell 968, elapsed: 0.0008051395416259766
ell 967, elapsed: 0.0006568431854248047
ell 966, elapsed: 0.0006511211395263672
ell 965, elapsed: 0.0006310939788818359
ell 964, elapsed: 0.0007879734039306641
ell 963, elapsed: 0.0007071495056152344
ell 962, elapsed: 0.0006551742553710938
ell 961, elapsed: 0.0007441043853759766
ell 960, elapsed: 0.0004849433898925781
ell 959, elapsed: 0.0004420280456542969
ell 958, elapsed: 0.0004489421844482422
ell 957, elapsed: 0.0004470348358154297
ell 956, elapsed: 0.0005080699920654297
ell 955, elapsed: 0.0006921291351318359
ell 954, elapsed: 0.0007569789886474609
ell 953, elapsed: 0.0005469322204589844
ell 952, elapsed: 0.0005970001220703125
ell 951, elapsed: 0.0005521774291992188
ell 950, elapsed: 0.0006818771362304688
ell 949, elapsed: 0.0005300045013427734
ell 948, elapsed: 0.00047206878662109375
ell 947, elapsed: 0.0005140304565429688
ell 946, elapsed: 0.00061798095703125
ell 945, elapsed: 0.0006389617919921875
ell 944, elapsed: 0.0004839897155761719
ell 943, elapsed: 0.0004420280456542969
ell 942, elapsed: 0.0005559921264648438
ell 941, elapsed: 0.0006299018859863281
ell 940, elapsed: 0.0006659030914306641
ell 939, elapsed: 0.0006868839263916016
ell 938, elapsed: 0.0007238388061523438
ell 937, elapsed: 0.0006260871887207031
ell 936, elapsed: 0.0007791519165039062
ell 935, elapsed: 0.0005950927734375
ell 934, elapsed: 0.0006091594696044922
ell 933, elapsed: 0.0006120204925537109
ell 932, elapsed: 0.0006721019744873047
ell 931, elapsed: 0.000537872314453125
ell 930, elapsed: 0.0006091594696044922
ell 929, elapsed: 0.0005369186401367188
ell 928, elapsed: 0.0006220340728759766
ell 927, elapsed: 0.000682830810546875
ell 926, elapsed: 0.0006060600280761719
ell 925, elapsed: 0.0005261898040771484
ell 924, elapsed: 0.0007989406585693359
ell 923, elapsed: 0.0006310939788818359
ell 922, elapsed: 0.0005857944488525391
ell 921, elapsed: 0.0006868839263916016
ell 920, elapsed: 0.0006840229034423828
ell 919, elapsed: 0.0007770061492919922
ell 918, elapsed: 0.0004570484161376953
ell 917, elapsed: 0.0005099773406982422
ell 916, elapsed: 0.0006220340728759766
ell 915, elapsed: 0.0005140304565429688
ell 914, elapsed: 0.0006229877471923828
ell 913, elapsed: 0.0004799365997314453
ell 912, elapsed: 0.0006139278411865234
ell 911, elapsed: 0.0005171298980712891
ell 910, elapsed: 0.0004429817199707031
ell 909, elapsed: 0.0004429817199707031
ell 908, elapsed: 0.0006270408630371094
ell 907, elapsed: 0.0006220340728759766
ell 906, elapsed: 0.0007200241088867188
ell 905, elapsed: 0.0006110668182373047
ell 904, elapsed: 0.0006501674652099609
ell 903, elapsed: 0.0006251335144042969
ell 902, elapsed: 0.0004379749298095703
ell 901, elapsed: 0.00044989585876464844
ell 900, elapsed: 0.0006070137023925781
ell 899, elapsed: 0.0004420280456542969
ell 898, elapsed: 0.0005309581756591797
ell 897, elapsed: 0.0005941390991210938
ell 896, elapsed: 0.0005710124969482422
ell 895, elapsed: 0.0005581378936767578
ell 894, elapsed: 0.0005719661712646484
ell 893, elapsed: 0.0005879402160644531
ell 892, elapsed: 0.0005371570587158203
ell 891, elapsed: 0.0005810260772705078
ell 890, elapsed: 0.0004420280456542969
ell 889, elapsed: 0.0004379749298095703
ell 888, elapsed: 0.0005660057067871094
ell 887, elapsed: 0.0006940364837646484
ell 886, elapsed: 0.0006170272827148438
ell 885, elapsed: 0.0005009174346923828
ell 884, elapsed: 0.0004420280456542969
ell 883, elapsed: 0.0004551410675048828
ell 882, elapsed: 0.0005540847778320312
ell 881, elapsed: 0.0005638599395751953
ell 880, elapsed: 0.0006749629974365234
ell 879, elapsed: 0.0006060600280761719
ell 878, elapsed: 0.0005340576171875
ell 877, elapsed: 0.0006220340728759766
ell 876, elapsed: 0.0004971027374267578
ell 875, elapsed: 0.0006051063537597656
ell 874, elapsed: 0.0008609294891357422
ell 873, elapsed: 0.0006380081176757812
ell 872, elapsed: 0.0006310939788818359
ell 871, elapsed: 0.0006921291351318359
ell 870, elapsed: 0.0006928443908691406
ell 869, elapsed: 0.0006899833679199219
ell 868, elapsed: 0.0005850791931152344
ell 867, elapsed: 0.0004429817199707031
ell 866, elapsed: 0.0005660057067871094
ell 865, elapsed: 0.0005650520324707031
ell 864, elapsed: 0.0004451274871826172
ell 863, elapsed: 0.0007421970367431641
ell 862, elapsed: 0.0006389617919921875
ell 861, elapsed: 0.00061798095703125
ell 860, elapsed: 0.00041985511779785156
ell 859, elapsed: 0.0005900859832763672
ell 858, elapsed: 0.0005669593811035156
ell 857, elapsed: 0.0006699562072753906
ell 856, elapsed: 0.0004298686981201172
ell 855, elapsed: 0.00043201446533203125
ell 854, elapsed: 0.00043702125549316406
ell 853, elapsed: 0.0004229545593261719
ell 852, elapsed: 0.00041794776916503906
ell 851, elapsed: 0.00043201446533203125
ell 850, elapsed: 0.0004189014434814453
ell 849, elapsed: 0.0005190372467041016
ell 848, elapsed: 0.00042700767517089844
ell 847, elapsed: 0.0004220008850097656
ell 846, elapsed: 0.00043392181396484375
ell 845, elapsed: 0.0005910396575927734
ell 844, elapsed: 0.0005838871002197266
ell 843, elapsed: 0.00043082237243652344
ell 842, elapsed: 0.0005178451538085938
ell 841, elapsed: 0.0006279945373535156
ell 840, elapsed: 0.00042510032653808594
ell 839, elapsed: 0.0004439353942871094
ell 838, elapsed: 0.0004210472106933594
ell 837, elapsed: 0.0005280971527099609
ell 836, elapsed: 0.0005638599395751953
ell 835, elapsed: 0.0005180835723876953
ell 834, elapsed: 0.0004451274871826172
ell 833, elapsed: 0.0004329681396484375
ell 832, elapsed: 0.0004379749298095703
ell 831, elapsed: 0.0004429817199707031
ell 830, elapsed: 0.0005939006805419922
ell 829, elapsed: 0.0005488395690917969
ell 828, elapsed: 0.0006749629974365234
ell 827, elapsed: 0.0004410743713378906
ell 826, elapsed: 0.00043082237243652344
ell 825, elapsed: 0.0004420280456542969
ell 824, elapsed: 0.00043892860412597656
ell 823, elapsed: 0.00042510032653808594
ell 822, elapsed: 0.0004210472106933594
ell 821, elapsed: 0.0004260540008544922
ell 820, elapsed: 0.0005190372467041016
ell 819, elapsed: 0.00042319297790527344
ell 818, elapsed: 0.0004329681396484375
ell 817, elapsed: 0.0006399154663085938
ell 816, elapsed: 0.0005528926849365234
ell 815, elapsed: 0.0005660057067871094
ell 814, elapsed: 0.0005700588226318359
ell 813, elapsed: 0.0009028911590576172
ell 812, elapsed: 0.0005171298980712891
ell 811, elapsed: 0.00043702125549316406
ell 810, elapsed: 0.0004329681396484375
ell 809, elapsed: 0.00043892860412597656
ell 808, elapsed: 0.00043201446533203125
ell 807, elapsed: 0.00043511390686035156
ell 806, elapsed: 0.0005359649658203125
ell 805, elapsed: 0.0005481243133544922
ell 804, elapsed: 0.0005540847778320312
ell 803, elapsed: 0.00043702125549316406
ell 802, elapsed: 0.00043892860412597656
ell 801, elapsed: 0.0005040168762207031
ell 800, elapsed: 0.0010211467742919922
ell 799, elapsed: 0.00045108795166015625
ell 798, elapsed: 0.0005059242248535156
ell 797, elapsed: 0.0005970001220703125
ell 796, elapsed: 0.00043582916259765625
ell 795, elapsed: 0.00043582916259765625
ell 794, elapsed: 0.0006210803985595703
ell 793, elapsed: 0.0007059574127197266
ell 792, elapsed: 0.0004429817199707031
ell 791, elapsed: 0.0004379749298095703
ell 790, elapsed: 0.000431060791015625
ell 789, elapsed: 0.0004448890686035156
ell 788, elapsed: 0.0004260540008544922
ell 787, elapsed: 0.00043702125549316406
ell 786, elapsed: 0.0006968975067138672
ell 785, elapsed: 0.0005168914794921875
ell 784, elapsed: 0.000431060791015625
ell 783, elapsed: 0.00043511390686035156
ell 782, elapsed: 0.0004329681396484375
ell 781, elapsed: 0.0006339550018310547
ell 780, elapsed: 0.0005121231079101562
ell 779, elapsed: 0.0007460117340087891
ell 778, elapsed: 0.00043582916259765625
ell 777, elapsed: 0.0005850791931152344
ell 776, elapsed: 0.0005080699920654297
ell 775, elapsed: 0.000614166259765625
ell 774, elapsed: 0.0005259513854980469
ell 773, elapsed: 0.0005631446838378906
ell 772, elapsed: 0.0004470348358154297
ell 771, elapsed: 0.00042700767517089844
ell 770, elapsed: 0.0004448890686035156
ell 769, elapsed: 0.0005860328674316406
ell 768, elapsed: 0.0005190372467041016
ell 767, elapsed: 0.00043320655822753906
ell 766, elapsed: 0.0004489421844482422
ell 765, elapsed: 0.0006520748138427734
ell 764, elapsed: 0.0004379749298095703
ell 763, elapsed: 0.00045800209045410156
ell 762, elapsed: 0.00043487548828125
ell 761, elapsed: 0.00042891502380371094
ell 760, elapsed: 0.00044417381286621094
ell 759, elapsed: 0.0005810260772705078
ell 758, elapsed: 0.0006620883941650391
ell 757, elapsed: 0.0005822181701660156
ell 756, elapsed: 0.0005691051483154297
ell 755, elapsed: 0.00045490264892578125
ell 754, elapsed: 0.00045108795166015625
ell 753, elapsed: 0.0005860328674316406
ell 752, elapsed: 0.0006368160247802734
ell 751, elapsed: 0.0004429817199707031
ell 750, elapsed: 0.00045490264892578125
ell 749, elapsed: 0.0006461143493652344
ell 748, elapsed: 0.0005459785461425781
ell 747, elapsed: 0.0004451274871826172
ell 746, elapsed: 0.0004489421844482422
ell 745, elapsed: 0.0005772113800048828
ell 744, elapsed: 0.0006339550018310547
ell 743, elapsed: 0.0005609989166259766
ell 742, elapsed: 0.0004379749298095703
ell 741, elapsed: 0.00043010711669921875
ell 740, elapsed: 0.0004279613494873047
ell 739, elapsed: 0.0004200935363769531
ell 738, elapsed: 0.0004589557647705078
ell 737, elapsed: 0.00045299530029296875
ell 736, elapsed: 0.0006220340728759766
ell 735, elapsed: 0.0006859302520751953
ell 734, elapsed: 0.0006968975067138672
ell 733, elapsed: 0.0006699562072753906
ell 732, elapsed: 0.0009419918060302734
ell 731, elapsed: 0.00044608116149902344
ell 730, elapsed: 0.00043082237243652344
ell 729, elapsed: 0.00043487548828125
ell 728, elapsed: 0.0004379749298095703
ell 727, elapsed: 0.00043487548828125
ell 726, elapsed: 0.00044083595275878906
ell 725, elapsed: 0.000453948974609375
ell 724, elapsed: 0.0004329681396484375
ell 723, elapsed: 0.0004420280456542969
ell 722, elapsed: 0.00043702125549316406
ell 721, elapsed: 0.00044798851013183594
ell 720, elapsed: 0.0004317760467529297
ell 719, elapsed: 0.0004398822784423828
ell 718, elapsed: 0.00043010711669921875
ell 717, elapsed: 0.00045490264892578125
ell 716, elapsed: 0.00045299530029296875
ell 715, elapsed: 0.00043487548828125
ell 714, elapsed: 0.0004360675811767578
ell 713, elapsed: 0.00043487548828125
ell 712, elapsed: 0.00043487548828125
ell 711, elapsed: 0.0005140304565429688
ell 710, elapsed: 0.0006840229034423828
ell 709, elapsed: 0.0005838871002197266
ell 708, elapsed: 0.0006289482116699219
ell 707, elapsed: 0.0006539821624755859
ell 706, elapsed: 0.0006918907165527344
ell 705, elapsed: 0.0005719661712646484
ell 704, elapsed: 0.0009570121765136719
ell 703, elapsed: 0.0005400180816650391
ell 702, elapsed: 0.0006730556488037109
ell 701, elapsed: 0.0007009506225585938
ell 700, elapsed: 0.0005998611450195312
ell 699, elapsed: 0.0006470680236816406
ell 698, elapsed: 0.0006890296936035156
ell 697, elapsed: 0.0005888938903808594
ell 696, elapsed: 0.0006389617919921875
ell 695, elapsed: 0.0006990432739257812
ell 694, elapsed: 0.0009219646453857422
ell 693, elapsed: 0.0005939006805419922
ell 692, elapsed: 0.0005819797515869141
ell 691, elapsed: 0.0005691051483154297
ell 690, elapsed: 0.0005459785461425781
ell 689, elapsed: 0.0004429817199707031
ell 688, elapsed: 0.0005121231079101562
ell 687, elapsed: 0.0005271434783935547
ell 686, elapsed: 0.00045609474182128906
ell 685, elapsed: 0.0004961490631103516
ell 684, elapsed: 0.0006310939788818359
ell 683, elapsed: 0.0004379749298095703
ell 682, elapsed: 0.0004169940948486328
ell 681, elapsed: 0.0004639625549316406
ell 680, elapsed: 0.00047397613525390625
ell 679, elapsed: 0.0005049705505371094
ell 678, elapsed: 0.0006041526794433594
ell 677, elapsed: 0.00043511390686035156
ell 676, elapsed: 0.0005679130554199219
ell 675, elapsed: 0.0005309581756591797
ell 674, elapsed: 0.0008020401000976562
ell 673, elapsed: 0.000576019287109375
ell 672, elapsed: 0.0005600452423095703
ell 671, elapsed: 0.0006101131439208984
ell 670, elapsed: 0.0006959438323974609
ell 669, elapsed: 0.0005860328674316406
ell 668, elapsed: 0.0007078647613525391
ell 667, elapsed: 0.0006279945373535156
ell 666, elapsed: 0.0005638599395751953
ell 665, elapsed: 0.0006148815155029297
ell 664, elapsed: 0.0005359649658203125
ell 663, elapsed: 0.0005888938903808594
ell 662, elapsed: 0.0007739067077636719
ell 661, elapsed: 0.0004699230194091797
ell 660, elapsed: 0.0005450248718261719
ell 659, elapsed: 0.0005791187286376953
ell 658, elapsed: 0.00043702125549316406
ell 657, elapsed: 0.0004489421844482422
ell 656, elapsed: 0.0005741119384765625
ell 655, elapsed: 0.0006010532379150391
ell 654, elapsed: 0.0006430149078369141
ell 653, elapsed: 0.0004439353942871094
ell 652, elapsed: 0.0005979537963867188
ell 651, elapsed: 0.0005259513854980469
ell 650, elapsed: 0.0005090236663818359
ell 649, elapsed: 0.0006129741668701172
ell 648, elapsed: 0.0005381107330322266
ell 647, elapsed: 0.0006000995635986328
ell 646, elapsed: 0.0004379749298095703
ell 645, elapsed: 0.0004520416259765625
ell 644, elapsed: 0.0004398822784423828
ell 643, elapsed: 0.0004398822784423828
ell 642, elapsed: 0.0007979869842529297
ell 641, elapsed: 0.0007109642028808594
ell 640, elapsed: 0.0007290840148925781
ell 639, elapsed: 0.0007109642028808594
ell 638, elapsed: 0.0007319450378417969
ell 637, elapsed: 0.0005087852478027344
ell 636, elapsed: 0.0005991458892822266
ell 635, elapsed: 0.0004909038543701172
ell 634, elapsed: 0.0005059242248535156
ell 633, elapsed: 0.0006010532379150391
ell 632, elapsed: 0.0004451274871826172
ell 631, elapsed: 0.0007948875427246094
ell 630, elapsed: 0.0004439353942871094
ell 629, elapsed: 0.00043201446533203125
ell 628, elapsed: 0.0005650520324707031
ell 627, elapsed: 0.0005340576171875
ell 626, elapsed: 0.0005998611450195312
ell 625, elapsed: 0.0007371902465820312
ell 624, elapsed: 0.0004749298095703125
ell 623, elapsed: 0.00043487548828125
ell 622, elapsed: 0.00043892860412597656
ell 621, elapsed: 0.0004298686981201172
ell 620, elapsed: 0.000576019287109375
ell 619, elapsed: 0.0005359649658203125
ell 618, elapsed: 0.000823974609375
ell 617, elapsed: 0.0004341602325439453
ell 616, elapsed: 0.00043511390686035156
ell 615, elapsed: 0.0005910396575927734
ell 614, elapsed: 0.0005211830139160156
ell 613, elapsed: 0.00043392181396484375
ell 612, elapsed: 0.00043511390686035156
ell 611, elapsed: 0.00045013427734375
ell 610, elapsed: 0.0004420280456542969
ell 609, elapsed: 0.0004360675811767578
ell 608, elapsed: 0.0004410743713378906
ell 607, elapsed: 0.00043702125549316406
ell 606, elapsed: 0.0004901885986328125
ell 605, elapsed: 0.0006191730499267578
ell 604, elapsed: 0.00043892860412597656
ell 603, elapsed: 0.0006029605865478516
ell 602, elapsed: 0.0004417896270751953
ell 601, elapsed: 0.0004379749298095703
ell 600, elapsed: 0.0005497932434082031
ell 599, elapsed: 0.0005459785461425781
ell 598, elapsed: 0.0005838871002197266
ell 597, elapsed: 0.0005078315734863281
ell 596, elapsed: 0.0008230209350585938
ell 595, elapsed: 0.0007159709930419922
ell 594, elapsed: 0.0006461143493652344
ell 593, elapsed: 0.0007040500640869141
ell 592, elapsed: 0.0007030963897705078
ell 591, elapsed: 0.0007350444793701172
ell 590, elapsed: 0.000621795654296875
ell 589, elapsed: 0.0005629062652587891
ell 588, elapsed: 0.0006158351898193359
ell 587, elapsed: 0.0004420280456542969
ell 586, elapsed: 0.0005609989166259766
ell 585, elapsed: 0.0008051395416259766
ell 584, elapsed: 0.0005810260772705078
ell 583, elapsed: 0.00044417381286621094
ell 582, elapsed: 0.0005960464477539062
ell 581, elapsed: 0.0005221366882324219
ell 580, elapsed: 0.0004398822784423828
ell 579, elapsed: 0.0007560253143310547
ell 578, elapsed: 0.0005929470062255859
ell 577, elapsed: 0.0005588531494140625
ell 576, elapsed: 0.0005540847778320312
ell 575, elapsed: 0.00043487548828125
ell 574, elapsed: 0.0006201267242431641
ell 573, elapsed: 0.0009341239929199219
ell 572, elapsed: 0.0004410743713378906
ell 571, elapsed: 0.0006051063537597656
ell 570, elapsed: 0.0005669593811035156
ell 569, elapsed: 0.0006191730499267578
ell 568, elapsed: 0.0005321502685546875
ell 567, elapsed: 0.0008862018585205078
ell 566, elapsed: 0.00044989585876464844
ell 565, elapsed: 0.0004949569702148438
ell 564, elapsed: 0.0006160736083984375
ell 563, elapsed: 0.0005309581756591797
ell 562, elapsed: 0.0005691051483154297
ell 561, elapsed: 0.0006821155548095703
ell 560, elapsed: 0.0005800724029541016
ell 559, elapsed: 0.0005109310150146484
ell 558, elapsed: 0.0004379749298095703
ell 557, elapsed: 0.0006220340728759766
ell 556, elapsed: 0.0006170272827148438
ell 555, elapsed: 0.00043702125549316406
ell 554, elapsed: 0.0006368160247802734
ell 553, elapsed: 0.0006959438323974609
ell 552, elapsed: 0.0007009506225585938
ell 551, elapsed: 0.0006968975067138672
ell 550, elapsed: 0.001123189926147461
ell 549, elapsed: 0.00045800209045410156
ell 548, elapsed: 0.0005431175231933594
ell 547, elapsed: 0.0005669593811035156
ell 546, elapsed: 0.0005757808685302734
ell 545, elapsed: 0.0005381107330322266
ell 544, elapsed: 0.0006830692291259766
ell 543, elapsed: 0.0004558563232421875
ell 542, elapsed: 0.0004401206970214844
ell 541, elapsed: 0.0004410743713378906
ell 540, elapsed: 0.00043487548828125
ell 539, elapsed: 0.0004420280456542969
ell 538, elapsed: 0.00043392181396484375
ell 537, elapsed: 0.0004401206970214844
ell 536, elapsed: 0.0008139610290527344
ell 535, elapsed: 0.00046896934509277344
ell 534, elapsed: 0.00043511390686035156
ell 533, elapsed: 0.0005431175231933594
ell 532, elapsed: 0.0005638599395751953
ell 531, elapsed: 0.000431060791015625
ell 530, elapsed: 0.00043010711669921875
ell 529, elapsed: 0.0005550384521484375
ell 528, elapsed: 0.0006079673767089844
ell 527, elapsed: 0.00043892860412597656
ell 526, elapsed: 0.0005500316619873047
ell 525, elapsed: 0.0005588531494140625
ell 524, elapsed: 0.00043892860412597656
ell 523, elapsed: 0.000598907470703125
ell 522, elapsed: 0.0007498264312744141
ell 521, elapsed: 0.0005929470062255859
ell 520, elapsed: 0.0004239082336425781
ell 519, elapsed: 0.0006501674652099609
ell 518, elapsed: 0.0006902217864990234
ell 517, elapsed: 0.0006430149078369141
ell 516, elapsed: 0.00043892860412597656
ell 515, elapsed: 0.0005619525909423828
ell 514, elapsed: 0.0005311965942382812
ell 513, elapsed: 0.0006000995635986328
ell 512, elapsed: 0.00048804283142089844
ell 511, elapsed: 0.0005099773406982422
ell 510, elapsed: 0.0006029605865478516
ell 509, elapsed: 0.00043702125549316406
ell 508, elapsed: 0.0005488395690917969
ell 507, elapsed: 0.0005428791046142578
ell 506, elapsed: 0.00043392181396484375
ell 505, elapsed: 0.0004298686981201172
ell 504, elapsed: 0.0004417896270751953
ell 503, elapsed: 0.0005140304565429688
ell 502, elapsed: 0.0004439353942871094
ell 501, elapsed: 0.0004341602325439453
ell 500, elapsed: 0.0005881786346435547
ell 499, elapsed: 0.0004968643188476562
ell 498, elapsed: 0.0006079673767089844
ell 497, elapsed: 0.0005600452423095703
ell 496, elapsed: 0.00067901611328125
ell 495, elapsed: 0.0005559921264648438
ell 494, elapsed: 0.0005300045013427734
ell 493, elapsed: 0.0005819797515869141
ell 492, elapsed: 0.0005109310150146484
ell 491, elapsed: 0.00043392181396484375
ell 490, elapsed: 0.0005018711090087891
ell 489, elapsed: 0.0005521774291992188
ell 488, elapsed: 0.00043582916259765625
ell 487, elapsed: 0.00043702125549316406
ell 486, elapsed: 0.0006039142608642578
ell 485, elapsed: 0.0004811286926269531
ell 484, elapsed: 0.00043511390686035156
ell 483, elapsed: 0.0005099773406982422
ell 482, elapsed: 0.0005719661712646484
ell 481, elapsed: 0.0005669593811035156
ell 480, elapsed: 0.0005190372467041016
ell 479, elapsed: 0.0005869865417480469
ell 478, elapsed: 0.0004918575286865234
ell 477, elapsed: 0.0004379749298095703
ell 476, elapsed: 0.0007290840148925781
ell 475, elapsed: 0.0005669593811035156
ell 474, elapsed: 0.0005388259887695312
ell 473, elapsed: 0.0005791187286376953
ell 472, elapsed: 0.0005159378051757812
ell 471, elapsed: 0.0005950927734375
ell 470, elapsed: 0.0005800724029541016
ell 469, elapsed: 0.0004360675811767578
ell 468, elapsed: 0.0005509853363037109
ell 467, elapsed: 0.000537872314453125
ell 466, elapsed: 0.00043201446533203125
ell 465, elapsed: 0.0005948543548583984
ell 464, elapsed: 0.0005137920379638672
ell 463, elapsed: 0.000514984130859375
ell 462, elapsed: 0.00043511390686035156
ell 461, elapsed: 0.00043392181396484375
ell 460, elapsed: 0.00043511390686035156
ell 459, elapsed: 0.0004341602325439453
ell 458, elapsed: 0.0006110668182373047
ell 457, elapsed: 0.0005071163177490234
ell 456, elapsed: 0.0005130767822265625
ell 455, elapsed: 0.0006618499755859375
ell 454, elapsed: 0.0004298686981201172
ell 453, elapsed: 0.00044798851013183594
ell 452, elapsed: 0.000431060791015625
ell 451, elapsed: 0.0004291534423828125
ell 450, elapsed: 0.00043511390686035156
ell 449, elapsed: 0.00043201446533203125
ell 448, elapsed: 0.0006339550018310547
ell 447, elapsed: 0.0005450248718261719
ell 446, elapsed: 0.0005850791931152344
ell 445, elapsed: 0.0004909038543701172
ell 444, elapsed: 0.0004379749298095703
ell 443, elapsed: 0.00043511390686035156
ell 442, elapsed: 0.00043201446533203125
ell 441, elapsed: 0.0005249977111816406
ell 440, elapsed: 0.0005269050598144531
ell 439, elapsed: 0.0005869865417480469
ell 438, elapsed: 0.0004999637603759766
ell 437, elapsed: 0.00043201446533203125
ell 436, elapsed: 0.0004990100860595703
ell 435, elapsed: 0.0006041526794433594
ell 434, elapsed: 0.0006210803985595703
ell 433, elapsed: 0.0005331039428710938
ell 432, elapsed: 0.00043392181396484375
ell 431, elapsed: 0.0004360675811767578
ell 430, elapsed: 0.0004901885986328125
ell 429, elapsed: 0.0006070137023925781
ell 428, elapsed: 0.0004360675811767578
ell 427, elapsed: 0.0005130767822265625
ell 426, elapsed: 0.0004458427429199219
ell 425, elapsed: 0.0005960464477539062
ell 424, elapsed: 0.00048804283142089844
ell 423, elapsed: 0.0005002021789550781
ell 422, elapsed: 0.0006039142608642578
ell 421, elapsed: 0.00043487548828125
ell 420, elapsed: 0.0005159378051757812
ell 419, elapsed: 0.0004379749298095703
ell 418, elapsed: 0.0005040168762207031
ell 417, elapsed: 0.0005960464477539062
ell 416, elapsed: 0.0004329681396484375
ell 415, elapsed: 0.0004360675811767578
ell 414, elapsed: 0.0004291534423828125
ell 413, elapsed: 0.0004379749298095703
ell 412, elapsed: 0.0005831718444824219
ell 411, elapsed: 0.0006070137023925781
ell 410, elapsed: 0.0005278587341308594
ell 409, elapsed: 0.0005679130554199219
ell 408, elapsed: 0.0004298686981201172
ell 407, elapsed: 0.0005640983581542969
ell 406, elapsed: 0.0005209445953369141
ell 405, elapsed: 0.0005118846893310547
ell 404, elapsed: 0.0006020069122314453
ell 403, elapsed: 0.0005218982696533203
ell 402, elapsed: 0.0005700588226318359
ell 401, elapsed: 0.0005519390106201172
ell 400, elapsed: 0.0005469322204589844
ell 399, elapsed: 0.0005230903625488281
ell 398, elapsed: 0.00043392181396484375
ell 397, elapsed: 0.0004329681396484375
ell 396, elapsed: 0.0004379749298095703
ell 395, elapsed: 0.0004341602325439453
ell 394, elapsed: 0.00043511390686035156
ell 393, elapsed: 0.0004329681396484375
ell 392, elapsed: 0.00043201446533203125
ell 391, elapsed: 0.0005209445953369141
ell 390, elapsed: 0.00043392181396484375
ell 389, elapsed: 0.0004410743713378906
ell 388, elapsed: 0.0005681514739990234
ell 387, elapsed: 0.0005168914794921875
ell 386, elapsed: 0.0005998611450195312
ell 385, elapsed: 0.0004868507385253906
ell 384, elapsed: 0.0007200241088867188
ell 383, elapsed: 0.0005469322204589844
ell 382, elapsed: 0.0005550384521484375
ell 381, elapsed: 0.0005669593811035156
ell 380, elapsed: 0.0005180835723876953
ell 379, elapsed: 0.00043511390686035156
ell 378, elapsed: 0.00043392181396484375
ell 377, elapsed: 0.0007190704345703125
ell 376, elapsed: 0.0005609989166259766
ell 375, elapsed: 0.000431060791015625
ell 374, elapsed: 0.0004382133483886719
ell 373, elapsed: 0.000431060791015625
ell 372, elapsed: 0.0006060600280761719
ell 371, elapsed: 0.0005550384521484375
ell 370, elapsed: 0.0006680488586425781
ell 369, elapsed: 0.0005478858947753906
ell 368, elapsed: 0.0005400180816650391
ell 367, elapsed: 0.00043487548828125
ell 366, elapsed: 0.0005948543548583984
ell 365, elapsed: 0.0004839897155761719
ell 364, elapsed: 0.0005049705505371094
ell 363, elapsed: 0.0004360675811767578
ell 362, elapsed: 0.0005638599395751953
ell 361, elapsed: 0.0005280971527099609
ell 360, elapsed: 0.000431060791015625
ell 359, elapsed: 0.0006010532379150391
ell 358, elapsed: 0.00047898292541503906
ell 357, elapsed: 0.0006170272827148438
ell 356, elapsed: 0.0005450248718261719
ell 355, elapsed: 0.0004379749298095703
ell 354, elapsed: 0.000431060791015625
ell 353, elapsed: 0.0004329681396484375
ell 352, elapsed: 0.0004980564117431641
ell 351, elapsed: 0.0006740093231201172
ell 350, elapsed: 0.0006918907165527344
ell 349, elapsed: 0.0004360675811767578
ell 348, elapsed: 0.0005819797515869141
ell 347, elapsed: 0.0005080699920654297
ell 346, elapsed: 0.0004329681396484375
ell 345, elapsed: 0.0004401206970214844
ell 344, elapsed: 0.00043201446533203125
ell 343, elapsed: 0.0006239414215087891
ell 342, elapsed: 0.0005218982696533203
ell 341, elapsed: 0.0004379749298095703
ell 340, elapsed: 0.0004360675811767578
ell 339, elapsed: 0.0006229877471923828
ell 338, elapsed: 0.0006029605865478516
ell 337, elapsed: 0.0004379749298095703
ell 336, elapsed: 0.0006220340728759766
ell 335, elapsed: 0.0005319118499755859
ell 334, elapsed: 0.00043010711669921875
ell 333, elapsed: 0.0006041526794433594
ell 332, elapsed: 0.0006880760192871094
ell 331, elapsed: 0.0006082057952880859
ell 330, elapsed: 0.0005288124084472656
ell 329, elapsed: 0.0005791187286376953
ell 328, elapsed: 0.000431060791015625
ell 327, elapsed: 0.00043892860412597656
ell 326, elapsed: 0.0005860328674316406
ell 325, elapsed: 0.0005009174346923828
ell 324, elapsed: 0.0004341602325439453
ell 323, elapsed: 0.0004949569702148438
ell 322, elapsed: 0.0006229877471923828
ell 321, elapsed: 0.0005309581756591797
ell 320, elapsed: 0.0005819797515869141
ell 319, elapsed: 0.0004360675811767578
ell 318, elapsed: 0.0004432201385498047
ell 317, elapsed: 0.0005948543548583984
ell 316, elapsed: 0.0004849433898925781
ell 315, elapsed: 0.000518798828125
ell 314, elapsed: 0.0005860328674316406
ell 313, elapsed: 0.0005428791046142578
ell 312, elapsed: 0.0005488395690917969
ell 311, elapsed: 0.0005719661712646484
ell 310, elapsed: 0.0005249977111816406
ell 309, elapsed: 0.0004410743713378906
ell 308, elapsed: 0.0005180835723876953
ell 307, elapsed: 0.0006060600280761719
ell 306, elapsed: 0.0004410743713378906
ell 305, elapsed: 0.0004401206970214844
ell 304, elapsed: 0.00055694580078125
ell 303, elapsed: 0.0005290508270263672
ell 302, elapsed: 0.0004329681396484375
ell 301, elapsed: 0.0006220340728759766
ell 300, elapsed: 0.0004949569702148438
ell 299, elapsed: 0.0004329681396484375
ell 298, elapsed: 0.0005419254302978516
ell 297, elapsed: 0.0005540847778320312
ell 296, elapsed: 0.0004329681396484375
ell 295, elapsed: 0.0004379749298095703
ell 294, elapsed: 0.0006079673767089844
ell 293, elapsed: 0.0004909038543701172
ell 292, elapsed: 0.0004930496215820312
ell 291, elapsed: 0.0006101131439208984
ell 290, elapsed: 0.0004291534423828125
ell 289, elapsed: 0.000431060791015625
ell 288, elapsed: 0.0005509853363037109
ell 287, elapsed: 0.0005519390106201172
ell 286, elapsed: 0.00043892860412597656
ell 285, elapsed: 0.00043511390686035156
ell 284, elapsed: 0.00043082237243652344
ell 283, elapsed: 0.0006082057952880859
ell 282, elapsed: 0.0004909038543701172
ell 281, elapsed: 0.00043511390686035156
ell 280, elapsed: 0.0005409717559814453
ell 279, elapsed: 0.0005631446838378906
ell 278, elapsed: 0.00043582916259765625
ell 277, elapsed: 0.0005640983581542969
ell 276, elapsed: 0.0005209445953369141
ell 275, elapsed: 0.00043487548828125
ell 274, elapsed: 0.00043201446533203125
ell 273, elapsed: 0.0006389617919921875
ell 272, elapsed: 0.0005979537963867188
ell 271, elapsed: 0.0004379749298095703
ell 270, elapsed: 0.00043010711669921875
ell 269, elapsed: 0.00055694580078125
ell 268, elapsed: 0.0005300045013427734
ell 267, elapsed: 0.0004329681396484375
ell 266, elapsed: 0.0006239414215087891
ell 265, elapsed: 0.00055694580078125
ell 264, elapsed: 0.0006000995635986328
ell 263, elapsed: 0.0005249977111816406
ell 262, elapsed: 0.0005850791931152344
ell 261, elapsed: 0.00043892860412597656
ell 260, elapsed: 0.0005719661712646484
ell 259, elapsed: 0.0005350112915039062
ell 258, elapsed: 0.00043392181396484375
ell 257, elapsed: 0.0006170272827148438
ell 256, elapsed: 0.0006148815155029297
ell 255, elapsed: 0.0004329681396484375
ell 254, elapsed: 0.0005409717559814453
ell 253, elapsed: 0.0005781650543212891
ell 252, elapsed: 0.0004398822784423828
ell 251, elapsed: 0.000576019287109375
ell 250, elapsed: 0.0005300045013427734
ell 249, elapsed: 0.0006060600280761719
ell 248, elapsed: 0.0005600452423095703
ell 247, elapsed: 0.0006158351898193359
ell 246, elapsed: 0.0004508495330810547
ell 245, elapsed: 0.0004298686981201172
ell 244, elapsed: 0.00043702125549316406
ell 243, elapsed: 0.0005521774291992188
ell 242, elapsed: 0.0005528926849365234
ell 241, elapsed: 0.0004398822784423828
ell 240, elapsed: 0.00043487548828125
ell 239, elapsed: 0.0004909038543701172
ell 238, elapsed: 0.0006887912750244141
ell 237, elapsed: 0.0004849433898925781
ell 236, elapsed: 0.0004439353942871094
ell 235, elapsed: 0.00043392181396484375
ell 234, elapsed: 0.0004420280456542969
ell 233, elapsed: 0.0005731582641601562
ell 232, elapsed: 0.0005140304565429688
ell 231, elapsed: 0.0004489421844482422
ell 230, elapsed: 0.0006198883056640625
ell 229, elapsed: 0.0006058216094970703
ell 228, elapsed: 0.0004379749298095703
ell 227, elapsed: 0.00043892860412597656
ell 226, elapsed: 0.0005519390106201172
ell 225, elapsed: 0.000537872314453125
ell 224, elapsed: 0.00044918060302734375
ell 223, elapsed: 0.0005950927734375
ell 222, elapsed: 0.0005631446838378906
ell 221, elapsed: 0.00067901611328125
ell 220, elapsed: 0.0005900859832763672
ell 219, elapsed: 0.00044083595275878906
ell 218, elapsed: 0.0004520416259765625
ell 217, elapsed: 0.0004391670227050781
ell 216, elapsed: 0.00043010711669921875
ell 215, elapsed: 0.0005939006805419922
ell 214, elapsed: 0.0004870891571044922
ell 213, elapsed: 0.00043082237243652344
ell 212, elapsed: 0.0005121231079101562
ell 211, elapsed: 0.0005891323089599609
ell 210, elapsed: 0.00043582916259765625
ell 209, elapsed: 0.0004420280456542969
ell 208, elapsed: 0.0004329681396484375
ell 207, elapsed: 0.00043892860412597656
ell 206, elapsed: 0.00043511390686035156
ell 205, elapsed: 0.0004930496215820312
ell 204, elapsed: 0.0006132125854492188
ell 203, elapsed: 0.0005331039428710938
ell 202, elapsed: 0.0005710124969482422
ell 201, elapsed: 0.0005500316619873047
ell 200, elapsed: 0.0005519390106201172
ell 199, elapsed: 0.00043511390686035156
ell 198, elapsed: 0.0005841255187988281
ell 197, elapsed: 0.0005311965942382812
ell 196, elapsed: 0.00045108795166015625
ell 195, elapsed: 0.00043892860412597656
ell 194, elapsed: 0.0005369186401367188
ell 193, elapsed: 0.0005710124969482422
ell 192, elapsed: 0.0004398822784423828
ell 191, elapsed: 0.00043392181396484375
ell 190, elapsed: 0.0005939006805419922
ell 189, elapsed: 0.0005340576171875
ell 188, elapsed: 0.0006248950958251953
ell 187, elapsed: 0.0006220340728759766
ell 186, elapsed: 0.0005340576171875
ell 185, elapsed: 0.0005779266357421875
ell 184, elapsed: 0.0004379749298095703
ell 183, elapsed: 0.00043201446533203125
ell 182, elapsed: 0.00045013427734375
ell 181, elapsed: 0.0004889965057373047
ell 180, elapsed: 0.0006780624389648438
ell 179, elapsed: 0.0005919933319091797
ell 178, elapsed: 0.0004329681396484375
ell 177, elapsed: 0.00043582916259765625
ell 176, elapsed: 0.00043702125549316406
ell 175, elapsed: 0.0005931854248046875
ell 174, elapsed: 0.0005130767822265625
ell 173, elapsed: 0.0006098747253417969
ell 172, elapsed: 0.0005700588226318359
ell 171, elapsed: 0.0006079673767089844
ell 170, elapsed: 0.0005500316619873047
ell 169, elapsed: 0.0005738735198974609
ell 168, elapsed: 0.0004401206970214844
ell 167, elapsed: 0.0004391670227050781
ell 166, elapsed: 0.00043511390686035156
ell 165, elapsed: 0.0006160736083984375
ell 164, elapsed: 0.0004899501800537109
ell 163, elapsed: 0.0004999637603759766
ell 162, elapsed: 0.0007009506225585938
ell 161, elapsed: 0.00043702125549316406
ell 160, elapsed: 0.0005631446838378906
ell 159, elapsed: 0.0005249977111816406
ell 158, elapsed: 0.0005960464477539062
ell 157, elapsed: 0.0004870891571044922
ell 156, elapsed: 0.0006189346313476562
ell 155, elapsed: 0.0006749629974365234
ell 154, elapsed: 0.0005490779876708984
ell 153, elapsed: 0.0005481243133544922
ell 152, elapsed: 0.00043010711669921875
ell 151, elapsed: 0.0004329681396484375
ell 150, elapsed: 0.00043511390686035156
ell 149, elapsed: 0.00043487548828125
ell 148, elapsed: 0.0005359649658203125
ell 147, elapsed: 0.0004279613494873047
ell 146, elapsed: 0.00040984153747558594
ell 145, elapsed: 0.0004119873046875
ell 144, elapsed: 0.0004069805145263672
ell 143, elapsed: 0.0004100799560546875
ell 142, elapsed: 0.0004899501800537109
ell 141, elapsed: 0.0006089210510253906
ell 140, elapsed: 0.0005459785461425781
ell 139, elapsed: 0.00043702125549316406
ell 138, elapsed: 0.000492095947265625
ell 137, elapsed: 0.0006029605865478516
ell 136, elapsed: 0.0005230903625488281
ell 135, elapsed: 0.0005710124969482422
ell 134, elapsed: 0.0005400180816650391
ell 133, elapsed: 0.0006229877471923828
ell 132, elapsed: 0.0004329681396484375
ell 131, elapsed: 0.0004968643188476562
ell 130, elapsed: 0.0006010532379150391
ell 129, elapsed: 0.000431060791015625
ell 128, elapsed: 0.0004379749298095703
ell 127, elapsed: 0.0005459785461425781
ell 126, elapsed: 0.000640869140625
ell 125, elapsed: 0.00043010711669921875
ell 124, elapsed: 0.0005278587341308594
ell 123, elapsed: 0.0005860328674316406
ell 122, elapsed: 0.0005490779876708984
ell 121, elapsed: 0.0005650520324707031
ell 120, elapsed: 0.0007021427154541016
ell 119, elapsed: 0.0004820823669433594
ell 118, elapsed: 0.00043487548828125
ell 117, elapsed: 0.0005328655242919922
ell 116, elapsed: 0.0005781650543212891
ell 115, elapsed: 0.00042891502380371094
ell 114, elapsed: 0.0004360675811767578
ell 113, elapsed: 0.00051116943359375
ell 112, elapsed: 0.0005240440368652344
ell 111, elapsed: 0.0005929470062255859
ell 110, elapsed: 0.00043702125549316406
ell 109, elapsed: 0.0005757808685302734
ell 108, elapsed: 0.0005238056182861328
ell 107, elapsed: 0.00043392181396484375
ell 106, elapsed: 0.0005390644073486328
ell 105, elapsed: 0.00043702125549316406
ell 104, elapsed: 0.0005719661712646484
ell 103, elapsed: 0.0005130767822265625
ell 102, elapsed: 0.0004317760467529297
ell 101, elapsed: 0.00043392181396484375
ell 100, elapsed: 0.00061798095703125
ell 99, elapsed: 0.0007538795471191406
ell 98, elapsed: 0.0008471012115478516
ell 97, elapsed: 0.0007109642028808594
ell 96, elapsed: 0.0007090568542480469
ell 95, elapsed: 0.0007140636444091797
ell 94, elapsed: 0.0010008811950683594
ell 93, elapsed: 0.0006899833679199219
ell 92, elapsed: 0.0006198883056640625
ell 91, elapsed: 0.0004420280456542969
ell 90, elapsed: 0.00043702125549316406
ell 89, elapsed: 0.0004448890686035156
ell 88, elapsed: 0.0007839202880859375
ell 87, elapsed: 0.0006229877471923828
ell 86, elapsed: 0.0005741119384765625
ell 85, elapsed: 0.0006918907165527344
ell 84, elapsed: 0.0006911754608154297
ell 83, elapsed: 0.000804901123046875
ell 82, elapsed: 0.0004940032958984375
ell 81, elapsed: 0.0004391670227050781
ell 80, elapsed: 0.0004420280456542969
ell 79, elapsed: 0.0005030632019042969
ell 78, elapsed: 0.0006837844848632812
ell 77, elapsed: 0.0006580352783203125
ell 76, elapsed: 0.0006899833679199219
ell 75, elapsed: 0.00044989585876464844
ell 74, elapsed: 0.0004420280456542969
ell 73, elapsed: 0.0004439353942871094
ell 72, elapsed: 0.00045013427734375
ell 71, elapsed: 0.0006420612335205078
ell 70, elapsed: 0.0007650852203369141
ell 69, elapsed: 0.0006940364837646484
ell 68, elapsed: 0.0006899833679199219
ell 67, elapsed: 0.0006949901580810547
ell 66, elapsed: 0.0006990432739257812
ell 65, elapsed: 0.0006279945373535156
ell 64, elapsed: 0.0007088184356689453
ell 63, elapsed: 0.0005030632019042969
ell 62, elapsed: 0.0004458427429199219
ell 61, elapsed: 0.0004410743713378906
ell 60, elapsed: 0.00044989585876464844
ell 59, elapsed: 0.0006008148193359375
ell 58, elapsed: 0.0007009506225585938
ell 57, elapsed: 0.0004451274871826172
ell 56, elapsed: 0.00044083595275878906
ell 55, elapsed: 0.0004448890686035156
ell 54, elapsed: 0.0004439353942871094
ell 53, elapsed: 0.00044918060302734375
ell 52, elapsed: 0.0006110668182373047
ell 51, elapsed: 0.0008070468902587891
ell 50, elapsed: 0.0008461475372314453
ell 49, elapsed: 0.000823974609375
ell 48, elapsed: 0.00419306755065918
ell 47, elapsed: 0.0006361007690429688
ell 46, elapsed: 0.000514984130859375
ell 45, elapsed: 0.0004668235778808594
ell 44, elapsed: 0.0004470348358154297
ell 43, elapsed: 0.0004589557647705078
ell 42, elapsed: 0.00048804283142089844
ell 41, elapsed: 0.0005729198455810547
ell 40, elapsed: 0.00044798851013183594
ell 39, elapsed: 0.0004439353942871094
ell 38, elapsed: 0.0004420280456542969
ell 37, elapsed: 0.0004458427429199219
ell 36, elapsed: 0.0004489421844482422
ell 35, elapsed: 0.0005860328674316406
ell 34, elapsed: 0.00044989585876464844
ell 33, elapsed: 0.0005538463592529297
ell 32, elapsed: 0.0004448890686035156
ell 31, elapsed: 0.0006389617919921875
ell 30, elapsed: 0.00043892860412597656
ell 29, elapsed: 0.0004439353942871094
ell 28, elapsed: 0.00045299530029296875
ell 27, elapsed: 0.00044608116149902344
ell 26, elapsed: 0.0004420280456542969
ell 25, elapsed: 0.0004417896270751953
ell 24, elapsed: 0.0004439353942871094
ell 23, elapsed: 0.0004410743713378906
ell 22, elapsed: 0.0004429817199707031
ell 21, elapsed: 0.00044083595275878906
ell 20, elapsed: 0.0004999637603759766
ell 19, elapsed: 0.0004489421844482422
ell 18, elapsed: 0.0004401206970214844
ell 17, elapsed: 0.0004470348358154297
ell 16, elapsed: 0.0004420280456542969
ell 15, elapsed: 0.0004429817199707031
ell 14, elapsed: 0.0004448890686035156
ell 13, elapsed: 0.0004410743713378906
ell 12, elapsed: 0.00049591064453125
ell 11, elapsed: 0.0004470348358154297
ell 10, elapsed: 0.0004429817199707031
ell 9, elapsed: 0.0004458427429199219
ell 8, elapsed: 0.0004398822784423828
ell 7, elapsed: 0.00044798851013183594
ell 6, elapsed: 0.0004432201385498047
ell 5, elapsed: 0.00044608116149902344
ell 4, elapsed: 0.0004990100860595703
ell 3, elapsed: 0.00044608116149902344
ell 2, elapsed: 0.0004551410675048828
ell 1, elapsed: 0.00045299530029296875
ell 0, elapsed: 0.000453948974609375
  0.838222 seconds (103.37 k allocations: 3.966 MiB)
elapsed: 0.0005328655242919922
step:          0.080334 sec (0 allocations: 0 byte, 0.0% gc time)
swapping:      0.000859 sec (0 allocations: 0 byte, 0.0% gc time)
calc_Mellell!: 0.015811 sec (0 allocations: 0 byte, 0.0% gc time)
  t0 :  0.003096 sec (0 allocations: 0 byte, 0.0% gc time)
  tm2 : 0.119747 sec (0 allocations: 0 byte, 0.0% gc time)
  tm2s: 0.002205 sec (0 allocations: 0 byte, 0.0% gc time)
  tm4 : 0.301473 sec (0 allocations: 0 byte, 0.0% gc time)
  tp2 : 0.0 sec (0 allocations: 0 byte, 0.0% gc time)
  tp2s: 0.0 sec (0 allocations: 0 byte, 0.0% gc time)
  tp4 : 0.0 sec (0 allocations: 0 byte, 0.0% gc time)
calc_wtdll!:   0.467164 sec (9.9 k allocations: 1.047 MB, 0.0% gc time)
calc_wljj!:    0.052758 sec (689 allocations: 10.766 KB, 0.0% gc time)
mult_prefac!:  0.0 sec (0 allocations: 0 byte, 0.0% gc time)
convert:       0.0 sec (0 allocations: 0 byte, 0.0% gc time)
write:         0.048226 sec (0 allocations: 0 byte, 0.0% gc time)
test_rand_2f1: 0.0 sec (0 allocations: 0 byte, 0.0% gc time)
Closing outfile out/Ml21-cache.bin...   0.000008 seconds
  0.000623 seconds (36 allocations: 27.953 KiB)
make_phi():   0.002590 seconds (8.18 k allocations: 237.844 KiB)
  0.251955 seconds (141.90 k allocations: 3.483 MiB)
tskip:       0.001189 sec (0 allocations: 0 byte, 0.0% gc time)
tread:       0.031315 sec (17 allocations: 10.641 KB, 0.0% gc time)
tmultphi:    0.017763 sec (0 allocations: 0 byte, 0.0% gc time)
tbrfft:      0.054932 sec (0 allocations: 0 byte, 0.0% gc time)
tmultprefac: 0.057568 sec (0 allocations: 0 byte, 0.0% gc time)
toutfunc:    0.084705 sec (127.507 k allocations: 2.312 MB, 0.0% gc time)
Testing R=1.0 ... passed
Calculating fmax: 
  dlrec    = 4
  dlrecRg1 = -4
  q=1.1, R=0.9:	  0.487547 seconds (105.76 k allocations: 15.287 MiB)

  0.488606 seconds (105.99 k allocations: 15.324 MiB)
ℓ = 1202
Δℓ = 4
ΔℓRg1 = -4
N = 1600
q = 1.1
kmin = 1.0e-5
kmax = 100000.00000000004
χ0 = 0.023029999999999995
RR = RR.tsv
ℓmax = ℓmax.bin
f21 = f21.bin
kmin = 1.0e-5
kmax = 100000.0
dlrec    = 4
dlrecRg1 = -4
Output size: 5741568 bytes = 0.005347251892089844 GiB
Output size: 51264 bytes = 4.774332046508789e-5 GiB
Reading 'out/F21EllCache'...   0.001183 seconds (197 allocations: 84.203 KiB)
ellmax: 1202
lmaxcache: 1202
fell[:,1,1] = ComplexF64[1.3482014726274674e-57 - 3.302141236118086e-73im, 1.357860004724329e-57 - 3.3257978169518355e-73im]
ell 1202, elapsed: 2.9087066650390625e-5
ell 1201, elapsed: 0.0005190372467041016
ell 1200, elapsed: 0.0007140636444091797
ell 1199, elapsed: 0.0006830692291259766
ell 1198, elapsed: 0.0006921291351318359
ell 1002, elapsed: 0.011333942413330078
ell 1001, elapsed: 0.0007832050323486328
ell 1000, elapsed: 0.0007641315460205078
ell 999, elapsed: 0.0007560253143310547
ell 998, elapsed: 0.001024007797241211
ell 902, elapsed: 0.006022930145263672
ell 901, elapsed: 0.0008180141448974609
ell 900, elapsed: 0.0007982254028320312
ell 899, elapsed: 0.0007839202880859375
ell 898, elapsed: 0.0008380413055419922
ell 802, elapsed: 0.006453037261962891
ell 801, elapsed: 0.0005671977996826172
ell 800, elapsed: 0.0005428791046142578
ell 799, elapsed: 0.0008008480072021484
ell 798, elapsed: 0.0008151531219482422
ell 702, elapsed: 0.005799055099487305
ell 701, elapsed: 0.0008120536804199219
ell 700, elapsed: 0.0005679130554199219
ell 699, elapsed: 0.0005900859832763672
ell 698, elapsed: 0.0005888938903808594
ell 602, elapsed: 0.006855964660644531
ell 601, elapsed: 0.0006721019744873047
ell 600, elapsed: 0.0009870529174804688
ell 599, elapsed: 0.0005669593811035156
ell 598, elapsed: 0.000514984130859375
ell 502, elapsed: 0.006875038146972656
ell 501, elapsed: 0.0006709098815917969
ell 500, elapsed: 0.0007860660552978516
ell 499, elapsed: 0.0005810260772705078
ell 498, elapsed: 0.0008740425109863281
ell 402, elapsed: 0.005589008331298828
ell 401, elapsed: 0.0006711483001708984
ell 400, elapsed: 0.000637054443359375
ell 399, elapsed: 0.000576019287109375
ell 398, elapsed: 0.0008149147033691406
ell 302, elapsed: 0.0056591033935546875
ell 301, elapsed: 0.0004858970642089844
ell 300, elapsed: 0.0004470348358154297
ell 299, elapsed: 0.0005710124969482422
ell 298, elapsed: 0.00047898292541503906
ell 202, elapsed: 0.005366086959838867
ell 201, elapsed: 0.0005221366882324219
ell 200, elapsed: 0.0006709098815917969
ell 199, elapsed: 0.0007219314575195312
ell 198, elapsed: 0.0005350112915039062
ell 152, elapsed: 0.003165006637573242
ell 151, elapsed: 0.0007538795471191406
ell 150, elapsed: 0.0006718635559082031
ell 149, elapsed: 0.0006501674652099609
ell 148, elapsed: 0.000621795654296875
ell 127, elapsed: 0.0018639564514160156
ell 126, elapsed: 0.00045490264892578125
ell 125, elapsed: 0.00046896934509277344
ell 124, elapsed: 0.0004780292510986328
ell 123, elapsed: 0.0006542205810546875
ell 114, elapsed: 0.0016529560089111328
ell 113, elapsed: 0.00055694580078125
ell 112, elapsed: 0.0005879402160644531
ell 111, elapsed: 0.0004291534423828125
ell 110, elapsed: 0.000598907470703125
ell 102, elapsed: 0.0013241767883300781
ell 101, elapsed: 0.0004489421844482422
ell 100, elapsed: 0.0004570484161376953
ell 99, elapsed: 0.0006170272827148438
ell 98, elapsed: 0.0006239414215087891
ell 97, elapsed: 0.0007331371307373047
ell 96, elapsed: 0.0008189678192138672
ell 95, elapsed: 0.0007309913635253906
ell 94, elapsed: 0.0006999969482421875
ell 93, elapsed: 0.0006990432739257812
ell 92, elapsed: 0.0007879734039306641
ell 91, elapsed: 0.0007169246673583984
ell 90, elapsed: 0.0005400180816650391
ell 89, elapsed: 0.00047397613525390625
ell 88, elapsed: 0.0004439353942871094
ell 87, elapsed: 0.00043511390686035156
ell 86, elapsed: 0.00045299530029296875
ell 85, elapsed: 0.0004448890686035156
ell 84, elapsed: 0.0004429817199707031
ell 83, elapsed: 0.0004458427429199219
ell 82, elapsed: 0.00043702125549316406
ell 81, elapsed: 0.0008890628814697266
ell 80, elapsed: 0.0005509853363037109
ell 79, elapsed: 0.0007369518280029297
ell 78, elapsed: 0.0008218288421630859
ell 77, elapsed: 0.0007948875427246094
ell 76, elapsed: 0.0007679462432861328
ell 75, elapsed: 0.0006837844848632812
ell 74, elapsed: 0.0006840229034423828
ell 73, elapsed: 0.0006861686706542969
ell 72, elapsed: 0.0006799697875976562
ell 71, elapsed: 0.0010039806365966797
ell 70, elapsed: 0.0008339881896972656
ell 69, elapsed: 0.0005638599395751953
ell 68, elapsed: 0.0006868839263916016
ell 67, elapsed: 0.0006761550903320312
ell 66, elapsed: 0.0007679462432861328
ell 65, elapsed: 0.0006380081176757812
ell 64, elapsed: 0.0006899833679199219
ell 63, elapsed: 0.0007030963897705078
ell 62, elapsed: 0.0005681514739990234
ell 61, elapsed: 0.000537872314453125
ell 60, elapsed: 0.0008161067962646484
ell 59, elapsed: 0.0006961822509765625
ell 58, elapsed: 0.0006849765777587891
ell 57, elapsed: 0.0006749629974365234
ell 56, elapsed: 0.0005710124969482422
ell 55, elapsed: 0.0007238388061523438
ell 54, elapsed: 0.0006279945373535156
ell 53, elapsed: 0.0006937980651855469
ell 52, elapsed: 0.0006470680236816406
ell 51, elapsed: 0.0006759166717529297
ell 50, elapsed: 0.0007359981536865234
ell 49, elapsed: 0.0005939006805419922
ell 48, elapsed: 0.0006799697875976562
ell 47, elapsed: 0.0006639957427978516
ell 46, elapsed: 0.0006721019744873047
ell 45, elapsed: 0.0006809234619140625
ell 44, elapsed: 0.0007181167602539062
ell 43, elapsed: 0.0005769729614257812
ell 42, elapsed: 0.0004279613494873047
ell 41, elapsed: 0.0006258487701416016
ell 40, elapsed: 0.0005159378051757812
ell 39, elapsed: 0.00043892860412597656
ell 38, elapsed: 0.0006818771362304688
ell 37, elapsed: 0.0005199909210205078
ell 36, elapsed: 0.00043511390686035156
ell 35, elapsed: 0.00044417381286621094
ell 34, elapsed: 0.0006361007690429688
ell 33, elapsed: 0.000492095947265625
ell 32, elapsed: 0.00043010711669921875
ell 31, elapsed: 0.0004918575286865234
ell 30, elapsed: 0.0006070137023925781
ell 29, elapsed: 0.0005059242248535156
ell 28, elapsed: 0.00044798851013183594
ell 27, elapsed: 0.0005180835723876953
ell 26, elapsed: 0.0006160736083984375
ell 25, elapsed: 0.0004451274871826172
ell 24, elapsed: 0.0005710124969482422
ell 23, elapsed: 0.00044608116149902344
ell 22, elapsed: 0.0004489421844482422
ell 21, elapsed: 0.0004448890686035156
ell 20, elapsed: 0.0004410743713378906
ell 19, elapsed: 0.0004401206970214844
ell 18, elapsed: 0.00045680999755859375
ell 17, elapsed: 0.00043201446533203125
ell 16, elapsed: 0.0005619525909423828
ell 15, elapsed: 0.00045800209045410156
ell 14, elapsed: 0.0004630088806152344
ell 13, elapsed: 0.0004489421844482422
ell 12, elapsed: 0.0004458427429199219
ell 11, elapsed: 0.00044608116149902344
ell 10, elapsed: 0.00044417381286621094
ell 9, elapsed: 0.0004410743713378906
ell 8, elapsed: 0.0005857944488525391
ell 7, elapsed: 0.0004429817199707031
ell 6, elapsed: 0.0004470348358154297
ell 5, elapsed: 0.0004398822784423828
ell 4, elapsed: 0.0004420280456542969
ell 3, elapsed: 0.0004432201385498047
ell 2, elapsed: 0.0004398822784423828
ell 1, elapsed: 0.0004470348358154297
ell 0, elapsed: 0.0005669593811035156
  0.197203 seconds (19.40 k allocations: 842.938 KiB)
elapsed: 0.0005259513854980469
step:          0.067681 sec (0 allocations: 0 byte, 0.0% gc time)
swapping:      0.000571 sec (0 allocations: 0 byte, 0.0% gc time)
calc_Mellell!: 0.002135 sec (0 allocations: 0 byte, 0.0% gc time)
  t0 :  0.000429 sec (0 allocations: 0 byte, 0.0% gc time)
  tm2 : 0.016956 sec (0 allocations: 0 byte, 0.0% gc time)
  tm2s: 0.000339 sec (0 allocations: 0 byte, 0.0% gc time)
  tm4 : 0.047339 sec (0 allocations: 0 byte, 0.0% gc time)
  tp2 : 0.0 sec (0 allocations: 0 byte, 0.0% gc time)
  tp2s: 0.0 sec (0 allocations: 0 byte, 0.0% gc time)
  tp4 : 0.0 sec (0 allocations: 0 byte, 0.0% gc time)
calc_wtdll!:   0.065829 sec (1.344 k allocations: 147.0 KB, 0.0% gc time)
calc_wljj!:    0.004805 sec (6 allocations: 96 byte, 0.0% gc time)
mult_prefac!:  0.0 sec (0 allocations: 0 byte, 0.0% gc time)
convert:       0.0 sec (0 allocations: 0 byte, 0.0% gc time)
write:         0.004647 sec (0 allocations: 0 byte, 0.0% gc time)
test_rand_2f1: 0.0 sec (0 allocations: 0 byte, 0.0% gc time)
Closing outfile out/Ml21-cache.bin...   0.000005 seconds
  0.000342 seconds (36 allocations: 27.953 KiB)
make_phi():   0.008383 seconds (8.18 k allocations: 237.844 KiB)
  0.024083 seconds (11.65 k allocations: 308.688 KiB)
tskip:       3.6e-5 sec (0 allocations: 0 byte, 0.0% gc time)
tread:       0.003069 sec (17 allocations: 2.125 KB, 0.0% gc time)
tmultphi:    0.001845 sec (0 allocations: 0 byte, 0.0% gc time)
tbrfft:      0.005456 sec (0 allocations: 0 byte, 0.0% gc time)
tmultprefac: 0.005486 sec (0 allocations: 0 byte, 0.0% gc time)
toutfunc:    0.007849 sec (10.304 k allocations: 196.0 KB, 0.0% gc time)
Testing R=0.9 ... passed
Calculating fmax: 
  dlrec    = 4
  dlrecRg1 = -4
  q=1.1, R=0.8:	  0.398796 seconds (103.25 k allocations: 14.856 MiB)

  0.399135 seconds (103.48 k allocations: 14.893 MiB)
ℓ = 1202
Δℓ = 4
ΔℓRg1 = -4
N = 1600
q = 1.1
kmin = 1.0e-5
kmax = 100000.00000000004
χ0 = 0.023029999999999995
RR = RR.tsv
ℓmax = ℓmax.bin
f21 = f21.bin
kmin = 1.0e-5
kmax = 100000.0
dlrec    = 4
dlrecRg1 = -4
Output size: 5741568 bytes = 0.005347251892089844 GiB
Output size: 51264 bytes = 4.774332046508789e-5 GiB
Reading 'out/F21EllCache'...   0.001156 seconds (197 allocations: 84.203 KiB)
ellmax: 1202
lmaxcache: 1202
fell[:,1,1] = ComplexF64[7.519068145690986e-120 - 1.8416405474382574e-135im, 7.541664537386155e-120 - 1.847175067190611e-135im]
ell 1202, elapsed: 2.5033950805664062e-5
ell 1201, elapsed: 0.0006010532379150391
ell 1200, elapsed: 0.0005259513854980469
ell 1199, elapsed: 0.0006151199340820312
ell 1198, elapsed: 0.00048804283142089844
ell 1002, elapsed: 0.011484146118164062
ell 1001, elapsed: 0.0003638267517089844
ell 1000, elapsed: 0.00037384033203125
ell 999, elapsed: 0.00044608116149902344
ell 998, elapsed: 0.0005519390106201172
ell 902, elapsed: 0.005429983139038086
ell 901, elapsed: 0.000720977783203125
ell 900, elapsed: 0.0005199909210205078
ell 899, elapsed: 0.0005619525909423828
ell 898, elapsed: 0.00036406517028808594
ell 802, elapsed: 0.005689144134521484
ell 801, elapsed: 0.0005741119384765625
ell 800, elapsed: 0.0006010532379150391
ell 799, elapsed: 0.0005309581756591797
ell 798, elapsed: 0.0003619194030761719
ell 702, elapsed: 0.005944967269897461
ell 701, elapsed: 0.0003859996795654297
ell 700, elapsed: 0.00037407875061035156
ell 699, elapsed: 0.0004642009735107422
ell 698, elapsed: 0.0005350112915039062
ell 602, elapsed: 0.0058019161224365234
ell 601, elapsed: 0.0005309581756591797
ell 600, elapsed: 0.0005888938903808594
ell 599, elapsed: 0.0005898475646972656
ell 598, elapsed: 0.0005910396575927734
ell 502, elapsed: 0.005803108215332031
ell 501, elapsed: 0.0004589557647705078
ell 500, elapsed: 0.0005290508270263672
ell 499, elapsed: 0.00037217140197753906
ell 498, elapsed: 0.0003750324249267578
ell 402, elapsed: 0.005613088607788086
ell 401, elapsed: 0.0003771781921386719
ell 400, elapsed: 0.0003628730773925781
ell 399, elapsed: 0.0004210472106933594
ell 398, elapsed: 0.0005340576171875
ell 302, elapsed: 0.006127119064331055
ell 301, elapsed: 0.0005731582641601562
ell 300, elapsed: 0.00042891502380371094
ell 299, elapsed: 0.0003619194030761719
ell 298, elapsed: 0.0005068778991699219
ell 202, elapsed: 0.0059070587158203125
ell 201, elapsed: 0.0005919933319091797
ell 200, elapsed: 0.0005559921264648438
ell 199, elapsed: 0.0004799365997314453
ell 198, elapsed: 0.0005629062652587891
ell 152, elapsed: 0.003342866897583008
ell 151, elapsed: 0.0004801750183105469
ell 150, elapsed: 0.0004909038543701172
ell 149, elapsed: 0.0003581047058105469
ell 148, elapsed: 0.00040221214294433594
ell 127, elapsed: 0.0018308162689208984
ell 126, elapsed: 0.0004930496215820312
ell 125, elapsed: 0.0005021095275878906
ell 124, elapsed: 0.0005152225494384766
ell 123, elapsed: 0.0005850791931152344
ell 114, elapsed: 0.0011811256408691406
ell 113, elapsed: 0.0003769397735595703
ell 112, elapsed: 0.0003600120544433594
ell 111, elapsed: 0.0005159378051757812
ell 110, elapsed: 0.00045299530029296875
ell 102, elapsed: 0.0008368492126464844
ell 101, elapsed: 0.00047707557678222656
ell 100, elapsed: 0.0005030632019042969
ell 99, elapsed: 0.0003750324249267578
ell 98, elapsed: 0.0003561973571777344
ell 97, elapsed: 0.00042700767517089844
ell 96, elapsed: 0.0004239082336425781
ell 95, elapsed: 0.00041604042053222656
ell 94, elapsed: 0.0006601810455322266
ell 93, elapsed: 0.0005719661712646484
ell 92, elapsed: 0.0006079673767089844
ell 91, elapsed: 0.00043201446533203125
ell 90, elapsed: 0.0005800724029541016
ell 89, elapsed: 0.0006079673767089844
ell 88, elapsed: 0.0005900859832763672
ell 87, elapsed: 0.0005300045013427734
ell 86, elapsed: 0.0005550384521484375
ell 85, elapsed: 0.0005998611450195312
ell 84, elapsed: 0.0006051063537597656
ell 83, elapsed: 0.0004239082336425781
ell 82, elapsed: 0.0004260540008544922
ell 81, elapsed: 0.0005359649658203125
ell 80, elapsed: 0.0006721019744873047
ell 79, elapsed: 0.0006148815155029297
ell 78, elapsed: 0.0006241798400878906
ell 77, elapsed: 0.0006029605865478516
ell 76, elapsed: 0.0005629062652587891
ell 75, elapsed: 0.0004329681396484375
ell 74, elapsed: 0.00043392181396484375
ell 73, elapsed: 0.0004949569702148438
ell 72, elapsed: 0.0006721019744873047
ell 71, elapsed: 0.0006101131439208984
ell 70, elapsed: 0.0004229545593261719
ell 69, elapsed: 0.0005750656127929688
ell 68, elapsed: 0.0005578994750976562
ell 67, elapsed: 0.0005700588226318359
ell 66, elapsed: 0.0006000995635986328
ell 65, elapsed: 0.0004870891571044922
ell 64, elapsed: 0.0005269050598144531
ell 63, elapsed: 0.0005109310150146484
ell 62, elapsed: 0.0005159378051757812
ell 61, elapsed: 0.0005300045013427734
ell 60, elapsed: 0.0005080699920654297
ell 59, elapsed: 0.0005168914794921875
ell 58, elapsed: 0.0005102157592773438
ell 57, elapsed: 0.0005168914794921875
ell 56, elapsed: 0.0005059242248535156
ell 55, elapsed: 0.0005099773406982422
ell 54, elapsed: 0.0005421638488769531
ell 53, elapsed: 0.0005140304565429688
ell 52, elapsed: 0.0005328655242919922
ell 51, elapsed: 0.0006239414215087891
ell 50, elapsed: 0.0006358623504638672
ell 49, elapsed: 0.0005888938903808594
ell 48, elapsed: 0.0007259845733642578
ell 47, elapsed: 0.000762939453125
ell 46, elapsed: 0.0005648136138916016
ell 45, elapsed: 0.0005288124084472656
ell 44, elapsed: 0.0005319118499755859
ell 43, elapsed: 0.0006549358367919922
ell 42, elapsed: 0.000537872314453125
ell 41, elapsed: 0.0004570484161376953
ell 40, elapsed: 0.0004589557647705078
[...]
ell 790, elapsed: 0.0009198188781738281
ell 789, elapsed: 0.0009450912475585938
ell 788, elapsed: 0.0009508132934570312
ell 782, elapsed: 0.0017158985137939453
ell 781, elapsed: 0.0009219646453857422
ell 780, elapsed: 0.0008971691131591797
ell 779, elapsed: 0.0008699893951416016
ell 778, elapsed: 0.0008540153503417969
ell 772, elapsed: 0.001519918441772461
ell 771, elapsed: 0.0008859634399414062
ell 770, elapsed: 0.0008661746978759766
ell 769, elapsed: 0.0008399486541748047
ell 768, elapsed: 0.0008921623229980469
ell 762, elapsed: 0.0015981197357177734
ell 761, elapsed: 0.0008990764617919922
ell 760, elapsed: 0.0008578300476074219
ell 759, elapsed: 0.0009369850158691406
ell 758, elapsed: 0.000946044921875
ell 752, elapsed: 0.0016379356384277344
ell 751, elapsed: 0.0009660720825195312
ell 750, elapsed: 0.0008988380432128906
ell 749, elapsed: 0.0009150505065917969
ell 748, elapsed: 0.0009360313415527344
ell 742, elapsed: 0.0016391277313232422
ell 741, elapsed: 0.0008840560913085938
ell 740, elapsed: 0.0009081363677978516
ell 739, elapsed: 0.0009608268737792969
ell 738, elapsed: 0.0008800029754638672
ell 732, elapsed: 0.0016431808471679688
ell 731, elapsed: 0.0009150505065917969
ell 730, elapsed: 0.0008759498596191406
ell 729, elapsed: 0.0009639263153076172
ell 728, elapsed: 0.0009570121765136719
ell 722, elapsed: 0.001661062240600586
ell 721, elapsed: 0.0009469985961914062
ell 720, elapsed: 0.0009009838104248047
ell 719, elapsed: 0.0008859634399414062
ell 718, elapsed: 0.00090789794921875
ell 712, elapsed: 0.001628875732421875
ell 711, elapsed: 0.0009188652038574219
ell 710, elapsed: 0.0009019374847412109
ell 709, elapsed: 0.0009250640869140625
ell 708, elapsed: 0.0008919239044189453
ell 702, elapsed: 0.0015990734100341797
ell 701, elapsed: 0.0009019374847412109
ell 700, elapsed: 0.0008699893951416016
ell 699, elapsed: 0.0008680820465087891
ell 698, elapsed: 0.00086212158203125
ell 692, elapsed: 0.0017600059509277344
ell 691, elapsed: 0.0008199214935302734
ell 690, elapsed: 0.0008759498596191406
ell 689, elapsed: 0.0008909702301025391
ell 688, elapsed: 0.0008771419525146484
ell 682, elapsed: 0.0015590190887451172
ell 681, elapsed: 0.0009059906005859375
ell 680, elapsed: 0.0009388923645019531
ell 679, elapsed: 0.0009388923645019531
ell 678, elapsed: 0.0008740425109863281
ell 672, elapsed: 0.0015799999237060547
ell 671, elapsed: 0.0008831024169921875
ell 670, elapsed: 0.0009059906005859375
ell 669, elapsed: 0.0008909702301025391
ell 668, elapsed: 0.0008859634399414062
ell 662, elapsed: 0.0015330314636230469
ell 661, elapsed: 0.0008640289306640625
ell 660, elapsed: 0.0008740425109863281
ell 659, elapsed: 0.0008599758148193359
ell 658, elapsed: 0.0008759498596191406
ell 652, elapsed: 0.0015528202056884766
ell 651, elapsed: 0.0008640289306640625
ell 650, elapsed: 0.0008959770202636719
ell 649, elapsed: 0.0008590221405029297
ell 648, elapsed: 0.0008769035339355469
ell 642, elapsed: 0.0015680789947509766
ell 641, elapsed: 0.0008790493011474609
ell 640, elapsed: 0.0009090900421142578
ell 639, elapsed: 0.0008709430694580078
ell 638, elapsed: 0.0009009838104248047
ell 632, elapsed: 0.0015571117401123047
ell 631, elapsed: 0.0008840560913085938
ell 630, elapsed: 0.0009038448333740234
ell 629, elapsed: 0.0008840560913085938
ell 628, elapsed: 0.0008790493011474609
ell 622, elapsed: 0.0016369819641113281
ell 621, elapsed: 0.000885009765625
ell 620, elapsed: 0.0008900165557861328
ell 619, elapsed: 0.0008878707885742188
ell 618, elapsed: 0.0009088516235351562
ell 612, elapsed: 0.0016138553619384766
ell 611, elapsed: 0.0008981227874755859
ell 610, elapsed: 0.0008349418640136719
ell 609, elapsed: 0.0008490085601806641
ell 608, elapsed: 0.0008690357208251953
ell 602, elapsed: 0.0017199516296386719
ell 601, elapsed: 0.0009000301361083984
ell 600, elapsed: 0.0009560585021972656
ell 599, elapsed: 0.0009338855743408203
ell 598, elapsed: 0.0008687973022460938
ell 592, elapsed: 0.0015709400177001953
ell 591, elapsed: 0.0009219646453857422
ell 590, elapsed: 0.0008890628814697266
ell 589, elapsed: 0.00092315673828125
ell 588, elapsed: 0.0009419918060302734
ell 582, elapsed: 0.0015931129455566406
ell 581, elapsed: 0.000942230224609375
ell 580, elapsed: 0.0009489059448242188
ell 579, elapsed: 0.0009438991546630859
ell 578, elapsed: 0.0009360313415527344
ell 572, elapsed: 0.0016548633575439453
ell 571, elapsed: 0.0009529590606689453
ell 570, elapsed: 0.0009288787841796875
ell 569, elapsed: 0.0009620189666748047
ell 568, elapsed: 0.0009338855743408203
ell 562, elapsed: 0.0016088485717773438
ell 561, elapsed: 0.0009307861328125
ell 560, elapsed: 0.0008938312530517578
ell 559, elapsed: 0.0009000301361083984
ell 558, elapsed: 0.000946044921875
ell 552, elapsed: 0.001577138900756836
ell 551, elapsed: 0.0008819103240966797
ell 550, elapsed: 0.000827789306640625
ell 549, elapsed: 0.0008919239044189453
ell 548, elapsed: 0.0011589527130126953
ell 542, elapsed: 0.0014939308166503906
ell 541, elapsed: 0.0009069442749023438
ell 540, elapsed: 0.0009310245513916016
ell 539, elapsed: 0.0009019374847412109
ell 538, elapsed: 0.000965118408203125
ell 532, elapsed: 0.0025370121002197266
ell 531, elapsed: 0.0009479522705078125
ell 530, elapsed: 0.0009300708770751953
ell 529, elapsed: 0.0009369850158691406
ell 528, elapsed: 0.0009438991546630859
ell 522, elapsed: 0.0016360282897949219
ell 521, elapsed: 0.000823974609375
ell 520, elapsed: 0.0008590221405029297
ell 519, elapsed: 0.0008480548858642578
ell 518, elapsed: 0.0008389949798583984
ell 512, elapsed: 0.009751081466674805
ell 511, elapsed: 0.0008759498596191406
ell 510, elapsed: 0.0009307861328125
ell 509, elapsed: 0.0019960403442382812
ell 508, elapsed: 0.0008668899536132812
ell 502, elapsed: 0.0016510486602783203
ell 501, elapsed: 0.0009160041809082031
ell 500, elapsed: 0.0009148120880126953
ell 499, elapsed: 0.0009109973907470703
ell 498, elapsed: 0.0009009838104248047
ell 492, elapsed: 0.0017268657684326172
ell 491, elapsed: 0.0008509159088134766
ell 490, elapsed: 0.0009109973907470703
ell 489, elapsed: 0.0009028911590576172
ell 488, elapsed: 0.0009331703186035156
ell 482, elapsed: 0.0022819042205810547
ell 481, elapsed: 0.00096893310546875
ell 480, elapsed: 0.0009570121765136719
ell 479, elapsed: 0.0009510517120361328
ell 478, elapsed: 0.0009219646453857422
ell 472, elapsed: 0.0017650127410888672
ell 471, elapsed: 0.0008599758148193359
ell 470, elapsed: 0.0009210109710693359
ell 469, elapsed: 0.0009419918060302734
ell 468, elapsed: 0.000946044921875
ell 462, elapsed: 0.0018639564514160156
ell 461, elapsed: 0.0008871555328369141
ell 460, elapsed: 0.0009379386901855469
ell 459, elapsed: 0.0009288787841796875
ell 458, elapsed: 0.0009670257568359375
ell 452, elapsed: 0.0016429424285888672
ell 451, elapsed: 0.0009479522705078125
ell 450, elapsed: 0.0009081363677978516
ell 449, elapsed: 0.0008590221405029297
ell 448, elapsed: 0.0008878707885742188
ell 442, elapsed: 0.0016319751739501953
ell 441, elapsed: 0.0009250640869140625
ell 440, elapsed: 0.0009219646453857422
ell 439, elapsed: 0.0009200572967529297
ell 438, elapsed: 0.0009191036224365234
ell 432, elapsed: 0.01628398895263672
ell 431, elapsed: 0.0008668899536132812
ell 430, elapsed: 0.0008862018585205078
ell 429, elapsed: 0.0008440017700195312
ell 428, elapsed: 0.0008389949798583984
ell 422, elapsed: 0.0015339851379394531
ell 421, elapsed: 0.0008530616760253906
ell 420, elapsed: 0.0008339881896972656
ell 419, elapsed: 0.0011069774627685547
ell 418, elapsed: 0.0008499622344970703
ell 412, elapsed: 0.0017740726470947266
ell 411, elapsed: 0.0008399486541748047
ell 410, elapsed: 0.0008358955383300781
ell 409, elapsed: 0.01689004898071289
ell 408, elapsed: 0.0007789134979248047
ell 402, elapsed: 0.0014791488647460938
ell 401, elapsed: 0.0008680820465087891
ell 400, elapsed: 0.0008580684661865234
ell 399, elapsed: 0.0008399486541748047
ell 398, elapsed: 0.0008521080017089844
ell 392, elapsed: 0.0015988349914550781
ell 391, elapsed: 0.0008518695831298828
ell 390, elapsed: 0.0008471012115478516
ell 389, elapsed: 0.0008449554443359375
ell 388, elapsed: 0.0008661746978759766
ell 382, elapsed: 0.0018439292907714844
ell 381, elapsed: 0.0008080005645751953
ell 380, elapsed: 0.004927873611450195
ell 379, elapsed: 0.0009138584136962891
ell 378, elapsed: 0.0009307861328125
ell 372, elapsed: 0.0016210079193115234
ell 371, elapsed: 0.0009009838104248047
ell 370, elapsed: 0.00092315673828125
ell 369, elapsed: 0.0009319782257080078
ell 368, elapsed: 0.000949859619140625
ell 362, elapsed: 0.0015790462493896484
ell 361, elapsed: 0.0008900165557861328
ell 360, elapsed: 0.0009238719940185547
ell 359, elapsed: 0.0008900165557861328
ell 358, elapsed: 0.0009088516235351562
ell 352, elapsed: 0.0017580986022949219
ell 351, elapsed: 0.0008461475372314453
ell 350, elapsed: 0.0009219646453857422
ell 349, elapsed: 0.0009400844573974609
ell 348, elapsed: 0.0009479522705078125
ell 342, elapsed: 0.0016198158264160156
ell 341, elapsed: 0.000926971435546875
ell 340, elapsed: 0.0009450912475585938
ell 339, elapsed: 0.0009260177612304688
ell 338, elapsed: 0.0009491443634033203
ell 332, elapsed: 0.001683950424194336
ell 331, elapsed: 0.0009508132934570312
ell 330, elapsed: 0.0009219646453857422
ell 329, elapsed: 0.0009198188781738281
ell 328, elapsed: 0.0009191036224365234
ell 322, elapsed: 0.0016858577728271484
ell 321, elapsed: 0.0008511543273925781
ell 320, elapsed: 0.0008509159088134766
ell 319, elapsed: 0.0008640289306640625
ell 318, elapsed: 0.0008540153503417969
ell 312, elapsed: 0.001550912857055664
ell 311, elapsed: 0.0008490085601806641
ell 310, elapsed: 0.0008578300476074219
ell 309, elapsed: 0.000843048095703125
ell 308, elapsed: 0.0008528232574462891
ell 302, elapsed: 0.0015680789947509766
ell 301, elapsed: 0.0008499622344970703
ell 300, elapsed: 0.0008459091186523438
ell 299, elapsed: 0.0008499622344970703
ell 298, elapsed: 0.0008070468902587891
ell 292, elapsed: 0.0014948844909667969
ell 291, elapsed: 0.0008249282836914062
ell 290, elapsed: 0.0009658336639404297
ell 289, elapsed: 0.0010311603546142578
ell 288, elapsed: 0.0010089874267578125
ell 282, elapsed: 0.001703023910522461
ell 281, elapsed: 0.0009338855743408203
ell 280, elapsed: 0.0010159015655517578
ell 279, elapsed: 0.0009100437164306641
ell 278, elapsed: 0.0008780956268310547
ell 272, elapsed: 0.0015938282012939453
ell 271, elapsed: 0.0009381771087646484
ell 270, elapsed: 0.0010061264038085938
ell 269, elapsed: 0.0010020732879638672
ell 268, elapsed: 0.0010371208190917969
ell 262, elapsed: 0.0017039775848388672
ell 261, elapsed: 0.0009160041809082031
ell 260, elapsed: 0.000926971435546875
ell 259, elapsed: 0.0009150505065917969
ell 258, elapsed: 0.0009160041809082031
ell 252, elapsed: 0.0016908645629882812
ell 251, elapsed: 0.0009419918060302734
ell 250, elapsed: 0.0009331703186035156
ell 249, elapsed: 0.0009300708770751953
ell 248, elapsed: 0.0009191036224365234
ell 242, elapsed: 0.001898050308227539
ell 241, elapsed: 0.0009181499481201172
ell 240, elapsed: 0.0009469985961914062
ell 239, elapsed: 0.0009219646453857422
ell 238, elapsed: 0.0009219646453857422
ell 232, elapsed: 0.0016031265258789062
ell 231, elapsed: 0.0008559226989746094
ell 230, elapsed: 0.0009229183197021484
ell 229, elapsed: 0.0008499622344970703
ell 228, elapsed: 0.0008549690246582031
ell 222, elapsed: 0.0015838146209716797
ell 221, elapsed: 0.0008559226989746094
ell 220, elapsed: 0.000843048095703125
ell 219, elapsed: 0.0008769035339355469
ell 218, elapsed: 0.0008859634399414062
ell 212, elapsed: 0.0015549659729003906
ell 211, elapsed: 0.000885009765625
ell 210, elapsed: 0.0008718967437744141
ell 209, elapsed: 0.0008759498596191406
ell 208, elapsed: 0.0008800029754638672
ell 202, elapsed: 0.0015919208526611328
ell 201, elapsed: 0.0008389949798583984
ell 200, elapsed: 0.0008189678192138672
ell 199, elapsed: 0.0007770061492919922
ell 198, elapsed: 0.0008499622344970703
ell 192, elapsed: 0.00152587890625
ell 191, elapsed: 0.000804901123046875
ell 190, elapsed: 0.0008218288421630859
ell 189, elapsed: 0.0008311271667480469
ell 188, elapsed: 0.0008471012115478516
ell 182, elapsed: 0.0018749237060546875
ell 181, elapsed: 0.000881195068359375
ell 180, elapsed: 0.00086212158203125
ell 179, elapsed: 0.0009160041809082031
ell 178, elapsed: 0.0009050369262695312
ell 172, elapsed: 0.0016078948974609375
ell 171, elapsed: 0.0009281635284423828
ell 170, elapsed: 0.0009551048278808594
ell 169, elapsed: 0.0009388923645019531
ell 168, elapsed: 0.000885009765625
ell 162, elapsed: 0.0016047954559326172
ell 161, elapsed: 0.0009350776672363281
ell 160, elapsed: 0.0009341239929199219
ell 159, elapsed: 0.0009589195251464844
ell 158, elapsed: 0.0009560585021972656
ell 152, elapsed: 0.0016021728515625
ell 151, elapsed: 0.0009169578552246094
ell 150, elapsed: 0.0008819103240966797
ell 149, elapsed: 0.0008618831634521484
ell 148, elapsed: 0.0008561611175537109
ell 142, elapsed: 0.0018198490142822266
ell 141, elapsed: 0.0010161399841308594
ell 140, elapsed: 0.0008709430694580078
ell 139, elapsed: 0.0009520053863525391
ell 138, elapsed: 0.0009398460388183594
ell 132, elapsed: 0.001817941665649414
ell 131, elapsed: 0.0009601116180419922
ell 130, elapsed: 0.0009169578552246094
ell 129, elapsed: 0.0009541511535644531
ell 128, elapsed: 0.0009391307830810547
ell 122, elapsed: 0.0018870830535888672
ell 121, elapsed: 0.0008981227874755859
ell 120, elapsed: 0.0009407997131347656
ell 119, elapsed: 0.0009469985961914062
ell 118, elapsed: 0.0009431838989257812
ell 112, elapsed: 0.0019330978393554688
ell 111, elapsed: 0.0009560585021972656
ell 110, elapsed: 0.0009779930114746094
ell 109, elapsed: 0.0009579658508300781
ell 108, elapsed: 0.0012280941009521484
ell 102, elapsed: 0.0019800662994384766
ell 101, elapsed: 0.00391387939453125
ell 100, elapsed: 0.003720998764038086
ell 99, elapsed: 0.0039768218994140625
ell 98, elapsed: 0.0035190582275390625
ell 92, elapsed: 0.006371021270751953
ell 91, elapsed: 0.0037419795989990234
ell 90, elapsed: 0.0039141178131103516
ell 89, elapsed: 0.0038509368896484375
ell 88, elapsed: 0.0037720203399658203
ell 82, elapsed: 0.0071868896484375
ell 81, elapsed: 0.004856109619140625
ell 80, elapsed: 0.004660129547119141
ell 79, elapsed: 0.0034821033477783203
ell 78, elapsed: 0.003459930419921875
ell 72, elapsed: 0.006490945816040039
ell 71, elapsed: 0.0034689903259277344
ell 70, elapsed: 0.0034499168395996094
ell 69, elapsed: 0.0034821033477783203
ell 68, elapsed: 0.003942966461181641
ell 62, elapsed: 0.006278038024902344
ell 61, elapsed: 0.003429889678955078
ell 60, elapsed: 0.003927946090698242
ell 59, elapsed: 0.003743886947631836
ell 58, elapsed: 0.0034608840942382812
ell 52, elapsed: 0.007927894592285156
ell 51, elapsed: 0.0037970542907714844
ell 50, elapsed: 0.0035009384155273438
ell 49, elapsed: 0.003679037094116211
ell 48, elapsed: 0.004427909851074219
ell 42, elapsed: 0.0077800750732421875
ell 41, elapsed: 0.005020856857299805
ell 40, elapsed: 0.0035200119018554688
ell 39, elapsed: 0.0038759708404541016
ell 38, elapsed: 0.0044710636138916016
ell 32, elapsed: 0.007455110549926758
ell 31, elapsed: 0.003345012664794922
ell 30, elapsed: 0.003278970718383789
ell 29, elapsed: 0.00362396240234375
ell 28, elapsed: 0.0033919811248779297
ell 22, elapsed: 0.006320953369140625
ell 21, elapsed: 0.003662109375
ell 20, elapsed: 0.003968954086303711
ell 19, elapsed: 0.0038700103759765625
ell 18, elapsed: 0.0033469200134277344
ell 12, elapsed: 0.006475925445556641
ell 11, elapsed: 0.003679990768432617
ell 10, elapsed: 0.0034530162811279297
ell 9, elapsed: 0.003990888595581055
ell 8, elapsed: 0.0034470558166503906
  0.998975 seconds (97.62 k allocations: 12.619 MiB)
elapsed: 0.004560947418212891
step:          0.080825 sec (0 allocations: 0 byte, 0.0% gc time)
swapping:      0.000766 sec (0 allocations: 0 byte, 0.0% gc time)
calc_Mellell!: 0.063918 sec (0 allocations: 0 byte, 0.0% gc time)
  t0 :  0.010363 sec (0 allocations: 0 byte, 0.0% gc time)
  tm2 : 0.078726 sec (0 allocations: 0 byte, 0.0% gc time)
  tm2s: 0.009177 sec (0 allocations: 0 byte, 0.0% gc time)
  tm4 : 0.194036 sec (0 allocations: 0 byte, 0.0% gc time)
  tp2 : 0.0 sec (0 allocations: 0 byte, 0.0% gc time)
  tp2s: 0.0 sec (0 allocations: 0 byte, 0.0% gc time)
  tp4 : 0.0 sec (0 allocations: 0 byte, 0.0% gc time)
calc_wtdll!:   0.56356 sec (48.6 k allocations: 11.096 MB, 0.0% gc time)
calc_wljj!:    0.039335 sec (69 allocations: 1.078 KB, 0.0% gc time)
mult_prefac!:  0.0 sec (0 allocations: 0 byte, 0.0% gc time)
convert:       0.0 sec (0 allocations: 0 byte, 0.0% gc time)
write:         0.035994 sec (0 allocations: 0 byte, 0.0% gc time)
test_rand_2f1: 0.0 sec (0 allocations: 0 byte, 0.0% gc time)
Closing outfile out/MlCache/MlCache.bin...   0.000008 seconds
xi, l=0, nu=0:   0.437154 seconds (602.83 k allocations: 32.924 MiB, 6.84% gc time)
xi, l=0, nu=-2:  0.002498 seconds (114 allocations: 148.969 KiB)
Created 'out/xi.tsv'.
  q=1.1, R=0.6:	  0.781150 seconds (264.52 k allocations: 38.099 MiB, 2.32% gc time)
  q=1.1, R=0.7:	  0.762391 seconds (276.46 k allocations: 40.114 MiB)
  q=1.1, R=0.8:	  0.900876 seconds (271.68 k allocations: 39.302 MiB, 1.35% gc time)
  q=1.1, R=0.9:	  1.205959 seconds (266.62 k allocations: 38.459 MiB, 0.79% gc time)
  q=1.1, R=0.998:	 22.438682 seconds (114.96 k allocations: 7.588 MiB)
  q=1.1, R=1.0:	  0.004691 seconds (8.20 k allocations: 704.344 KiB)

ℓ = 1000
Δℓ = 4
ΔℓRg1 = -4
N = 4096
q = 1.1
kmin = 1.0e-5
kmax = 1000.0
χ0 = 0.001
RR = RR.tsv
ℓmax = ℓmax.bin
f21 = f21.bin
kmin = 1.0e-5
kmax = 1000.0
dlrec    = 4
dlrecRg1 = -4
Output size: 1573632 bytes = 0.0014655590057373047 GiB
Output size: 786816 bytes = 0.0007327795028686523 GiB
Reading 'out/F21EllCache'...   0.001512 seconds (198 allocations: 533.078 KiB)
ellmax: 1002
lmaxcache: 1000
fell[:,1,1] = ComplexF64[1.7262928128202118e-224 - 4.2281979352226944e-240im, 1.7282693092099662e-224 - 4.233038955177176e-240im]
ell 1002, elapsed: 5.1021575927734375e-5
ell 1001, elapsed: 0.0009222030639648438
ell 1000, elapsed: 0.0008609294891357422
ell 999, elapsed: 0.006808042526245117
ell 998, elapsed: 0.00669097900390625
ell 44, elapsed: 0.7787630558013916
ell 43, elapsed: 0.008263826370239258
ell 42, elapsed: 0.008589029312133789
ell 41, elapsed: 0.006671905517578125
ell 40, elapsed: 0.009102821350097656
  0.836940 seconds (5.06 k allocations: 329.516 KiB)
elapsed: 0.00931692123413086
step:          0.775541 sec (0 allocations: 0 byte, 0.0% gc time)
swapping:      0.000525 sec (0 allocations: 0 byte, 0.0% gc time)
calc_Mellell!: 0.001513 sec (0 allocations: 0 byte, 0.0% gc time)
  t0 :  0.000453 sec (0 allocations: 0 byte, 0.0% gc time)
  tm2 : 0.013726 sec (0 allocations: 0 byte, 0.0% gc time)
  tm2s: 0.000351 sec (0 allocations: 0 byte, 0.0% gc time)
  tm4 : 0.038173 sec (0 allocations: 0 byte, 0.0% gc time)
  tp2 : 0.0 sec (0 allocations: 0 byte, 0.0% gc time)
  tp2s: 0.0 sec (0 allocations: 0 byte, 0.0% gc time)
  tp4 : 0.0 sec (0 allocations: 0 byte, 0.0% gc time)
calc_wtdll!:   0.052953 sec (480 allocations: 52.5 KB, 0.0% gc time)
calc_wljj!:    0.001796 sec (1 allocations: 16 byte, 0.0% gc time)
mult_prefac!:  0.0 sec (0 allocations: 0 byte, 0.0% gc time)
convert:       0.0 sec (0 allocations: 0 byte, 0.0% gc time)
write:         0.00092 sec (0 allocations: 0 byte, 0.0% gc time)
test_rand_2f1: 0.0 sec (0 allocations: 0 byte, 0.0% gc time)
Closing outfile out/MlCache/MlCache.bin...   0.000007 seconds
  0.519163 seconds (38 allocations: 66.859 KiB)
make_phi():   0.010195 seconds (65 allocations: 275.984 KiB)
  0.051029 seconds (11.44 k allocations: 712.460 KiB)
tskip:       1.0e-6 sec (0 allocations: 0 byte, 0.0% gc time)
tread:       0.000778 sec (17 allocations: 1.266 KB, 0.0% gc time)
tmultphi:    0.000353 sec (0 allocations: 0 byte, 0.0% gc time)
tbrfft:      0.00127 sec (0 allocations: 0 byte, 0.0% gc time)
tmultprefac: 0.000956 sec (0 allocations: 0 byte, 0.0% gc time)
toutfunc:    0.00018 sec (0 allocations: 0 byte, 0.0% gc time)
Created 'out/wl42_jj00.tsv'.
Created 'out/wl42_jj02.tsv'.
    Testing TwoFAST tests passed 
