Julia Version 1.6.0-DEV.1007
Commit f6a8dcbbd3* (2020-09-22 17:36 UTC)
Platform Info:
  OS: Linux (x86_64-linux-gnu)
  CPU: Intel(R) Xeon(R) Silver 4114 CPU @ 2.20GHz
  WORD_SIZE: 64
  LIBM: libopenlibm
  LLVM: libLLVM-9.0.1 (ORCJIT, skylake-avx512)
Environment:
  JULIA_DEPOT_PATH = ::/usr/local/share/julia
  JULIA_NUM_THREADS = 2

  Resolving package versions...
  Installed FFTW_jll ───────────────────── v3.3.9+5
  Installed Reexport ───────────────────── v0.2.0
  Installed IntelOpenMP_jll ────────────── v2018.0.3+0
  Installed OpenSpecFun_jll ────────────── v0.5.3+3
  Installed GenericSVD ─────────────────── v0.3.0
  Installed GenericSchur ───────────────── v0.4.0
  Installed ArbNumerics ────────────────── v1.2.1
  Installed FFTW ───────────────────────── v1.2.4
  Installed AbstractFFTs ───────────────── v0.5.0
  Installed MKL_jll ────────────────────── v2020.2.254+0
  Installed SpecialFunctions ───────────── v0.10.3
  Installed CompilerSupportLibraries_jll ─ v0.3.3+0
  Installed Readables ──────────────────── v0.3.3
  Installed BinaryProvider ─────────────── v0.5.10
  Installed TwoFAST ────────────────────── v0.1.3
Updating `~/.julia/environments/v1.6/Project.toml`
  [0dd23c3e] + TwoFAST v0.1.3
Updating `~/.julia/environments/v1.6/Manifest.toml`
  [621f4979] + AbstractFFTs v0.5.0
  [7e558dbc] + ArbNumerics v1.2.1
  [b99e7846] + BinaryProvider v0.5.10
  [e66e0078] + CompilerSupportLibraries_jll v0.3.3+0
  [7a1cc6ca] + FFTW v1.2.4
  [f5851436] + FFTW_jll v3.3.9+5
  [01680d73] + GenericSVD v0.3.0
  [c145ed77] + GenericSchur v0.4.0
  [1d5cc7b8] + IntelOpenMP_jll v2018.0.3+0
  [856f044c] + MKL_jll v2020.2.254+0
  [efe28fd5] + OpenSpecFun_jll v0.5.3+3
  [0d4725de] + Readables v0.3.3
  [189a3867] + Reexport v0.2.0
  [276daf66] + SpecialFunctions v0.10.3
  [0dd23c3e] + TwoFAST v0.1.3
  [56f22d72] + Artifacts
  [2a0f44e3] + Base64
  [ade2ca70] + Dates
  [8bb1440f] + DelimitedFiles
  [8ba89e20] + Distributed
  [b77e0a4c] + InteractiveUtils
  [76f85450] + LibGit2
  [8f399da3] + Libdl
  [37e2e46d] + LinearAlgebra
  [56ddb016] + Logging
  [d6f4376e] + Markdown
  [a63ad114] + Mmap
  [44cfe95a] + Pkg
  [de0858da] + Printf
  [3fa0cd96] + REPL
  [9a3f8284] + Random
  [ea8e919c] + SHA
  [9e88b42a] + Serialization
  [6462fe0b] + Sockets
  [fa267f1f] + TOML
  [8dfed614] + Test
  [cf7118a7] + UUIDs
  [4ec0a83e] + Unicode
   Building ArbNumerics → `~/.julia/packages/ArbNumerics/joGFm/deps/build.log`
   Building FFTW ───────→ `~/.julia/packages/FFTW/DMUbN/deps/build.log`
    Testing TwoFAST
Status `/tmp/jl_nM84Tx/Project.toml`
  [7e558dbc] ArbNumerics v1.2.1
  [39dd38d3] Dierckx v0.5.0
  [7a1cc6ca] FFTW v1.2.4
  [276daf66] SpecialFunctions v0.10.3
  [0dd23c3e] TwoFAST v0.1.3
  [8bb1440f] DelimitedFiles
  [37e2e46d] LinearAlgebra
  [56ddb016] Logging
  [8dfed614] Test
Status `/tmp/jl_nM84Tx/Manifest.toml`
  [621f4979] AbstractFFTs v0.5.0
  [7e558dbc] ArbNumerics v1.2.1
  [b99e7846] BinaryProvider v0.5.10
  [e66e0078] CompilerSupportLibraries_jll v0.3.3+0
  [39dd38d3] Dierckx v0.5.0
  [cd4c43a9] Dierckx_jll v0.0.1+0
  [7a1cc6ca] FFTW v1.2.4
  [f5851436] FFTW_jll v3.3.9+5
  [01680d73] GenericSVD v0.3.0
  [c145ed77] GenericSchur v0.4.0
  [1d5cc7b8] IntelOpenMP_jll v2018.0.3+0
  [856f044c] MKL_jll v2020.2.254+0
  [efe28fd5] OpenSpecFun_jll v0.5.3+3
  [0d4725de] Readables v0.3.3
  [189a3867] Reexport v0.2.0
  [276daf66] SpecialFunctions v0.10.3
  [0dd23c3e] TwoFAST v0.1.3
  [56f22d72] Artifacts
  [2a0f44e3] Base64
  [ade2ca70] Dates
  [8bb1440f] DelimitedFiles
  [8ba89e20] Distributed
  [b77e0a4c] InteractiveUtils
  [76f85450] LibGit2
  [8f399da3] Libdl
  [37e2e46d] LinearAlgebra
  [56ddb016] Logging
  [d6f4376e] Markdown
  [a63ad114] Mmap
  [44cfe95a] Pkg
  [de0858da] Printf
  [3fa0cd96] REPL
  [9a3f8284] Random
  [ea8e919c] SHA
  [9e88b42a] Serialization
  [6462fe0b] Sockets
  [fa267f1f] TOML
  [8dfed614] Test
  [cf7118a7] UUIDs
  [4ec0a83e] Unicode
    Testing Running tests...
WARNING: could not import Printf.ini_hex into ArbNumerics
WARNING: could not import Printf.ini_HEX into ArbNumerics
t = 0.0 sec (0 allocations: 0 byte, 0.0% gc time)
typeof(t) = NamedTuple{(:value, :time, :bytes, :gctime, :gcstats), Tuple{DataType, Float64, Int64, Float64, Base.GC_Diff}}
TwoFAST.PerformanceStats.TimedType = Union{NamedTuple{(:value, :time, :bytes, :gctime, :gcstats), Tuple{T, Float64, Int64, Float64, Base.GC_Diff}}, Tuple{Any, Float64, Int64, Float64, Base.GC_Diff}} where T
t = 0.0 sec (0 allocations: 0 byte, 0.0% gc time)
t: 0.0 sec (0 allocations: 0 byte, 0.0% gc time)
Testing ξ(r), ℓ=0, ν=-1 ... passed
Testing ξ(r), ℓ=0, ν=0 ... passed
Testing ξ(r), ℓ=0, ν=1 ... passed
Testing ξ(r), ℓ=0, ν=2 ... passed
Testing ξ(r), ℓ=0, ν=3 ... passed
Testing ξ(r), ℓ=1, ν=0 ... passed
Testing ξ(r), ℓ=1, ν=1 ... passed
Testing ξ(r), ℓ=1, ν=2 ... passed
Testing ξ(r), ℓ=1, ν=3 ... passed
Testing ξ(r), ℓ=2, ν=-1 ... passed
Testing ξ(r), ℓ=2, ν=0 ... passed
Testing ξ(r), ℓ=2, ν=1 ... passed
Testing ξ(r), ℓ=2, ν=2 ... passed
Testing ξ(r), ℓ=2, ν=3 ... passed
Testing ξ(r), ℓ=3, ν=-1 ... passed
Testing ξ(r), ℓ=3, ν=0 ... passed
Testing ξ(r), ℓ=3, ν=1 ... passed
Testing ξ(r), ℓ=3, ν=2 ... passed
Testing ξ(r), ℓ=3, ν=3 ... passed
Testing ξ(r), ℓ=4, ν=-1 ... passed
Testing ξ(r), ℓ=4, ν=0 ... passed
Testing ξ(r), ℓ=4, ν=1 ... passed
Testing ξ(r), ℓ=4, ν=2 ... passed
Testing ξ(r), ℓ=4, ν=3 ... passed
Testing ξ(r) ... passed
Testing ξ′(r) ... passed
Testing ξ″(r) ... passed
Calculating fmax: 
  dlrec    = 4
  dlrecRg1 = -4
  q=1.1, R=1.1:	  4.859893 seconds (839.84 k allocations: 53.576 MiB)

  4.875194 seconds (852.50 k allocations: 54.365 MiB)
ℓ = 1202
Δℓ = 4
ΔℓRg1 = -4
N = 1600
q = 1.1
kmin = 1.0e-5
kmax = 100000.00000000004
χ0 = 0.023029999999999995
RR = RR.tsv
ℓmax = ℓmax.bin
f21 = f21.bin
kmin = 1.0e-5
kmax = 100000.0
dlrec    = 4
dlrecRg1 = -4
Output size: 5741568 bytes = 0.005347251892089844 GiB
Output size: 51264 bytes = 4.774332046508789e-5 GiB
Reading 'out/F21EllCache'...   0.652533 seconds (395.13 k allocations: 23.203 MiB, 3.09% gc time)
ellmax: 1202
lmaxcache: 1202
fell[:,1,1] = ComplexF64[3.9583795592771634e-52 - 9.695233714158177e-68im, 3.990121772925759e-52 - 9.772979714843386e-68im]
ell 1202, elapsed: 3.1948089599609375e-5
ell 1201, elapsed: 1.050158977508545
ell 1200, elapsed: 0.0006260871887207031
ell 1199, elapsed: 0.0005490779876708984
ell 1198, elapsed: 0.0005710124969482422
ell 1002, elapsed: 0.010733842849731445
ell 1001, elapsed: 0.0009889602661132812
ell 1000, elapsed: 0.0005269050598144531
ell 999, elapsed: 0.0005638599395751953
ell 998, elapsed: 0.0005781650543212891
ell 902, elapsed: 0.005597829818725586
ell 901, elapsed: 0.0005028247833251953
ell 900, elapsed: 0.0005109310150146484
ell 899, elapsed: 0.0005879402160644531
ell 898, elapsed: 0.0005781650543212891
ell 802, elapsed: 0.005125999450683594
ell 801, elapsed: 0.0004909038543701172
ell 800, elapsed: 0.0004849433898925781
ell 799, elapsed: 0.016571044921875
ell 798, elapsed: 0.0005528926849365234
ell 702, elapsed: 0.005564212799072266
ell 701, elapsed: 0.0005080699920654297
ell 700, elapsed: 0.0005390644073486328
ell 699, elapsed: 0.0004940032958984375
ell 698, elapsed: 0.0005438327789306641
ell 602, elapsed: 0.00624394416809082
ell 601, elapsed: 0.000720977783203125
ell 600, elapsed: 0.0005390644073486328
ell 599, elapsed: 0.0005331039428710938
ell 598, elapsed: 0.0005199909210205078
ell 502, elapsed: 0.008456945419311523
ell 501, elapsed: 0.0005900859832763672
ell 500, elapsed: 0.0005180835723876953
ell 499, elapsed: 0.0005300045013427734
ell 498, elapsed: 0.0005948543548583984
ell 402, elapsed: 0.005629062652587891
ell 401, elapsed: 0.0005810260772705078
ell 400, elapsed: 0.0005459785461425781
ell 399, elapsed: 0.0005099773406982422
ell 398, elapsed: 0.0006089210510253906
ell 302, elapsed: 0.005479097366333008
ell 301, elapsed: 0.00061798095703125
ell 300, elapsed: 0.0005621910095214844
ell 299, elapsed: 0.0005900859832763672
ell 298, elapsed: 0.0005300045013427734
ell 202, elapsed: 0.005026102066040039
ell 201, elapsed: 0.0004980564117431641
ell 200, elapsed: 0.0004999637603759766
ell 199, elapsed: 0.0006070137023925781
ell 198, elapsed: 0.0005538463592529297
ell 152, elapsed: 0.002875089645385742
ell 151, elapsed: 0.0006051063537597656
ell 150, elapsed: 0.0005588531494140625
ell 149, elapsed: 0.0006000995635986328
ell 148, elapsed: 0.0005700588226318359
ell 127, elapsed: 0.0018129348754882812
ell 126, elapsed: 0.0006270408630371094
ell 125, elapsed: 0.0006439685821533203
ell 124, elapsed: 0.0006399154663085938
ell 123, elapsed: 0.0006079673767089844
ell 114, elapsed: 0.002346038818359375
ell 113, elapsed: 0.0006210803985595703
ell 112, elapsed: 0.0005769729614257812
ell 111, elapsed: 0.0004839897155761719
ell 110, elapsed: 0.0004849433898925781
ell 102, elapsed: 0.0009081363677978516
ell 101, elapsed: 0.00067901611328125
ell 100, elapsed: 0.0005919933319091797
ell 99, elapsed: 0.0004990100860595703
ell 98, elapsed: 0.0005078315734863281
ell 97, elapsed: 0.0005731582641601562
ell 96, elapsed: 0.0005629062652587891
ell 95, elapsed: 0.0006949901580810547
ell 94, elapsed: 0.0005941390991210938
ell 93, elapsed: 0.0006480216979980469
ell 92, elapsed: 0.0006520748138427734
ell 91, elapsed: 0.0006129741668701172
ell 90, elapsed: 0.0007419586181640625
ell 89, elapsed: 0.0007071495056152344
ell 88, elapsed: 0.0005099773406982422
ell 87, elapsed: 0.0005011558532714844
ell 86, elapsed: 0.0005159378051757812
ell 85, elapsed: 0.0005049705505371094
ell 84, elapsed: 0.0005021095275878906
ell 83, elapsed: 0.0005099773406982422
ell 82, elapsed: 0.0046291351318359375
ell 81, elapsed: 0.0005619525909423828
ell 80, elapsed: 0.0005509853363037109
ell 79, elapsed: 0.0005419254302978516
ell 78, elapsed: 0.0005509853363037109
ell 77, elapsed: 0.0005400180816650391
ell 76, elapsed: 0.0006999969482421875
ell 75, elapsed: 0.0005688667297363281
ell 74, elapsed: 0.0005888938903808594
ell 73, elapsed: 0.0006480216979980469
ell 72, elapsed: 0.0006310939788818359
ell 71, elapsed: 0.0006041526794433594
ell 70, elapsed: 0.0007638931274414062
ell 69, elapsed: 0.0005710124969482422
ell 68, elapsed: 0.000576019287109375
ell 67, elapsed: 0.0005528926849365234
ell 66, elapsed: 0.0005669593811035156
ell 65, elapsed: 0.0005609989166259766
ell 64, elapsed: 0.0007190704345703125
ell 63, elapsed: 0.0005629062652587891
ell 62, elapsed: 0.0005638599395751953
ell 61, elapsed: 0.0006060600280761719
ell 60, elapsed: 0.0006082057952880859
ell 59, elapsed: 0.0006358623504638672
ell 58, elapsed: 0.0007610321044921875
ell 57, elapsed: 0.0005660057067871094
ell 56, elapsed: 0.0006110668182373047
ell 55, elapsed: 0.0006120204925537109
ell 54, elapsed: 0.0006129741668701172
ell 53, elapsed: 0.0006139278411865234
ell 52, elapsed: 0.0006070137023925781
ell 51, elapsed: 0.0005600452423095703
ell 50, elapsed: 0.0005509853363037109
ell 49, elapsed: 0.0005490779876708984
ell 48, elapsed: 0.0006148815155029297
ell 47, elapsed: 0.0006301403045654297
ell 46, elapsed: 0.0006229877471923828
ell 45, elapsed: 0.0007410049438476562
ell 44, elapsed: 0.0006060600280761719
ell 43, elapsed: 0.0006129741668701172
ell 42, elapsed: 0.0006201267242431641
ell 41, elapsed: 0.00061798095703125
ell 40, elapsed: 0.0006639957427978516
ell 39, elapsed: 0.0005748271942138672
ell 38, elapsed: 0.0005590915679931641
ell 37, elapsed: 0.00055694580078125
ell 36, elapsed: 0.0005571842193603516
ell 35, elapsed: 0.0005431175231933594
ell 34, elapsed: 0.0005280971527099609
ell 33, elapsed: 0.0005590915679931641
ell 32, elapsed: 0.0005059242248535156
ell 31, elapsed: 0.0005140304565429688
ell 30, elapsed: 0.0005090236663818359
ell 29, elapsed: 0.0005071163177490234
ell 28, elapsed: 0.0005130767822265625
ell 27, elapsed: 0.0005030632019042969
ell 26, elapsed: 0.0005590915679931641
ell 25, elapsed: 0.0005028247833251953
ell 24, elapsed: 0.0005049705505371094
ell 23, elapsed: 0.0005080699920654297
ell 22, elapsed: 0.0005021095275878906
ell 21, elapsed: 0.0005080699920654297
ell 20, elapsed: 0.0005049705505371094
ell 19, elapsed: 0.0005140304565429688
ell 18, elapsed: 0.0005660057067871094
ell 17, elapsed: 0.0005052089691162109
ell 16, elapsed: 0.0005140304565429688
ell 15, elapsed: 0.0005049705505371094
ell 14, elapsed: 0.0005049705505371094
ell 13, elapsed: 0.0005080699920654297
ell 12, elapsed: 0.0005030632019042969
ell 11, elapsed: 0.0005500316619873047
ell 10, elapsed: 0.0005030632019042969
ell 9, elapsed: 0.0005040168762207031
ell 8, elapsed: 0.0005180835723876953
ell 7, elapsed: 0.0005040168762207031
ell 6, elapsed: 0.0005059242248535156
ell 5, elapsed: 0.0005030632019042969
ell 4, elapsed: 0.0005590915679931641
ell 3, elapsed: 0.0005109310150146484
ell 2, elapsed: 0.0005059242248535156
ell 1, elapsed: 0.0005128383636474609
ell 0, elapsed: 0.0005059242248535156
  1.854015 seconds (1.29 M allocations: 70.490 MiB, 2.30% gc time)
elapsed: 0.0005970001220703125
step:          0.310427 sec (306.811 k allocations: 16.665 MB, 6.54% gc time)
swapping:      0.000506 sec (0 allocations: 0 byte, 0.0% gc time)
calc_Mellell!: 0.127802 sec (133.213 k allocations: 7.256 MB, 0.0% gc time)
  t0 :  0.0 sec (0 allocations: 0 byte, 0.0% gc time)
  tm2 : 0.0 sec (0 allocations: 0 byte, 0.0% gc time)
  tm2s: 0.0 sec (0 allocations: 0 byte, 0.0% gc time)
  tm4 : 0.0 sec (0 allocations: 0 byte, 0.0% gc time)
  tp2 : 0.0 sec (0 allocations: 0 byte, 0.0% gc time)
  tp2s: 0.0 sec (0 allocations: 0 byte, 0.0% gc time)
  tp4 : 0.0 sec (0 allocations: 0 byte, 0.0% gc time)
calc_wtdll!:   0.764169 sec (509.615 k allocations: 28.195 MB, 0.0% gc time)
calc_wljj!:    0.002972 sec (6 allocations: 96 byte, 0.0% gc time)
mult_prefac!:  0.0 sec (0 allocations: 0 byte, 0.0% gc time)
convert:       0.0 sec (0 allocations: 0 byte, 0.0% gc time)
write:         0.003943 sec (0 allocations: 0 byte, 0.0% gc time)
test_rand_2f1: 0.0 sec (0 allocations: 0 byte, 0.0% gc time)
Closing outfile out/Ml21-cache.bin...   0.000007 seconds
  1.213774 seconds (246.35 k allocations: 14.222 MiB)
make_phi():   0.014092 seconds (8.18 k allocations: 237.844 KiB)
  0.267603 seconds (87.57 k allocations: 4.748 MiB)
tskip:       2.6e-5 sec (0 allocations: 0 byte, 0.0% gc time)
tread:       0.003233 sec (17 allocations: 2.125 KB, 0.0% gc time)
tmultphi:    0.040985 sec (21.425 k allocations: 1.287 MB, 0.0% gc time)
tbrfft:      0.005844 sec (0 allocations: 0 byte, 0.0% gc time)
tmultprefac: 0.003852 sec (0 allocations: 0 byte, 0.0% gc time)
toutfunc:    0.176585 sec (64.485 k allocations: 3.33 MB, 0.0% gc time)
Testing R=1.1 ... passed
Calculating fmax: 
  dlrec    = 4
  dlrecRg1 = -4
  q=1.1, R=1.0:	  0.001402 seconds (3.20 k allocations: 275.344 KiB)

  0.001629 seconds (3.35 k allocations: 311.750 KiB)
ℓ = 1202
Δℓ = 4
ΔℓRg1 = -4
N = 1600
q = 1.1
kmin = 1.0e-5
kmax = 100000.00000000004
χ0 = 0.023029999999999995
RR = RR.tsv
ℓmax = ℓmax.bin
f21 = f21.bin
kmin = 1.0e-5
kmax = 100000.0
dlrec    = 4
dlrecRg1 = -4
Output size: 61465536 bytes = 0.05724424123764038 GiB
Output size: 51264 bytes = 4.774332046508789e-5 GiB
Reading 'out/F21EllCache'...   0.001224 seconds (197 allocations: 84.203 KiB)
ellmax: 1202
lmaxcache: 1202
fell[:,1,1] = ComplexF64[809.6031528389767 - 1.9829558194077161e-13im, 0.0 + 0.0im]
ell 1202, elapsed: 3.218650817871094e-5
ell 1201, elapsed: 0.009917974472045898
ell 1200, elapsed: 0.015720129013061523
ell 1199, elapsed: 0.0006439685821533203
ell 1198, elapsed: 0.0006480216979980469
ell 1197, elapsed: 0.0007789134979248047
ell 1196, elapsed: 0.0007429122924804688
ell 1195, elapsed: 0.0007359981536865234
ell 1194, elapsed: 0.0007660388946533203
ell 1193, elapsed: 0.0007419586181640625
ell 1192, elapsed: 0.0007359981536865234
ell 1191, elapsed: 0.0007309913635253906
ell 1190, elapsed: 0.0007340908050537109
ell 1189, elapsed: 0.0008440017700195312
ell 1188, elapsed: 0.0007388591766357422
ell 1187, elapsed: 0.0007369518280029297
ell 1186, elapsed: 0.0007338523864746094
ell 1185, elapsed: 0.0007419586181640625
ell 1184, elapsed: 0.0008370876312255859
ell 1183, elapsed: 0.0007259845733642578
ell 1182, elapsed: 0.0007309913635253906
ell 1181, elapsed: 0.0007269382476806641
ell 1180, elapsed: 0.0007319450378417969
ell 1179, elapsed: 0.0008611679077148438
ell 1178, elapsed: 0.0007398128509521484
ell 1177, elapsed: 0.0007221698760986328
ell 1176, elapsed: 0.0005769729614257812
ell 1175, elapsed: 0.00045800209045410156
ell 1174, elapsed: 0.0004467964172363281
ell 1173, elapsed: 0.0004589557647705078
ell 1172, elapsed: 0.0006060600280761719
ell 1171, elapsed: 0.0005249977111816406
ell 1170, elapsed: 0.00045800209045410156
ell 1169, elapsed: 0.00045800209045410156
ell 1168, elapsed: 0.000453948974609375
ell 1167, elapsed: 0.00046515464782714844
ell 1166, elapsed: 0.0005290508270263672
ell 1165, elapsed: 0.0004630088806152344
ell 1164, elapsed: 0.000453948974609375
ell 1163, elapsed: 0.0005719661712646484
ell 1162, elapsed: 0.0005750656127929688
ell 1161, elapsed: 0.00045609474182128906
ell 1160, elapsed: 0.00045990943908691406
ell 1159, elapsed: 0.0004730224609375
ell 1158, elapsed: 0.000453948974609375
ell 1157, elapsed: 0.0004611015319824219
ell 1156, elapsed: 0.0005831718444824219
ell 1155, elapsed: 0.0005459785461425781
ell 1154, elapsed: 0.0004551410675048828
ell 1153, elapsed: 0.0004470348358154297
ell 1152, elapsed: 0.0008590221405029297
ell 1151, elapsed: 0.0004668235778808594
ell 1150, elapsed: 0.0004601478576660156
ell 1149, elapsed: 0.00045418739318847656
ell 1148, elapsed: 0.0004558563232421875
ell 1147, elapsed: 0.0004620552062988281
ell 1146, elapsed: 0.0006339550018310547
ell 1145, elapsed: 0.0007309913635253906
ell 1144, elapsed: 0.0005300045013427734
ell 1143, elapsed: 0.00045418739318847656
ell 1142, elapsed: 0.0004608631134033203
ell 1141, elapsed: 0.0004570484161376953
ell 1140, elapsed: 0.00046181678771972656
ell 1139, elapsed: 0.0005369186401367188
ell 1138, elapsed: 0.0009329319000244141
ell 1137, elapsed: 0.0004591941833496094
ell 1136, elapsed: 0.0004558563232421875
ell 1135, elapsed: 0.0004570484161376953
ell 1134, elapsed: 0.0004520416259765625
ell 1133, elapsed: 0.0004451274871826172
ell 1132, elapsed: 0.0005581378936767578
ell 1131, elapsed: 0.0006809234619140625
ell 1130, elapsed: 0.0006010532379150391
ell 1129, elapsed: 0.0005340576171875
ell 1128, elapsed: 0.0006129741668701172
ell 1127, elapsed: 0.000514984130859375
ell 1126, elapsed: 0.0005331039428710938
ell 1125, elapsed: 0.0008800029754638672
ell 1124, elapsed: 0.0006530284881591797
ell 1123, elapsed: 0.0005168914794921875
ell 1122, elapsed: 0.00045609474182128906
ell 1121, elapsed: 0.0005578994750976562
ell 1120, elapsed: 0.0005939006805419922
ell 1119, elapsed: 0.0005807876586914062
ell 1118, elapsed: 0.0005919933319091797
ell 1117, elapsed: 0.0005698204040527344
ell 1116, elapsed: 0.0005300045013427734
ell 1115, elapsed: 0.0006279945373535156
ell 1114, elapsed: 0.0006189346313476562
ell 1113, elapsed: 0.0006971359252929688
ell 1112, elapsed: 0.0006530284881591797
ell 1111, elapsed: 0.0006818771362304688
ell 1110, elapsed: 0.0005850791931152344
ell 1109, elapsed: 0.0006079673767089844
ell 1108, elapsed: 0.00045013427734375
ell 1107, elapsed: 0.0005650520324707031
ell 1106, elapsed: 0.00045800209045410156
ell 1105, elapsed: 0.0004589557647705078
ell 1104, elapsed: 0.00044989585876464844
ell 1103, elapsed: 0.0004520416259765625
ell 1102, elapsed: 0.0005979537963867188
ell 1101, elapsed: 0.0007221698760986328
ell 1100, elapsed: 0.0008947849273681641
ell 1099, elapsed: 0.0007138252258300781
ell 1098, elapsed: 0.0004940032958984375
ell 1097, elapsed: 0.000453948974609375
ell 1096, elapsed: 0.0004508495330810547
ell 1095, elapsed: 0.000453948974609375
ell 1094, elapsed: 0.00044608116149902344
ell 1093, elapsed: 0.0005738735198974609
ell 1092, elapsed: 0.0004551410675048828
ell 1091, elapsed: 0.00044989585876464844
ell 1090, elapsed: 0.00045490264892578125
ell 1089, elapsed: 0.0006020069122314453
ell 1088, elapsed: 0.0005140304565429688
ell 1087, elapsed: 0.0006310939788818359
ell 1086, elapsed: 0.0006849765777587891
ell 1085, elapsed: 0.0006928443908691406
ell 1084, elapsed: 0.0006899833679199219
ell 1083, elapsed: 0.0006959438323974609
ell 1082, elapsed: 0.0006880760192871094
ell 1081, elapsed: 0.00084686279296875
ell 1080, elapsed: 0.0006759166717529297
ell 1079, elapsed: 0.0006711483001708984
ell 1078, elapsed: 0.0005409717559814453
ell 1077, elapsed: 0.0004181861877441406
ell 1076, elapsed: 0.0007691383361816406
ell 1075, elapsed: 0.0006439685821533203
ell 1074, elapsed: 0.0006761550903320312
ell 1073, elapsed: 0.0005898475646972656
ell 1072, elapsed: 0.0004489421844482422
ell 1071, elapsed: 0.00045609474182128906
ell 1070, elapsed: 0.00044798851013183594
ell 1069, elapsed: 0.0007569789886474609
ell 1068, elapsed: 0.0006728172302246094
ell 1067, elapsed: 0.00055694580078125
ell 1066, elapsed: 0.0005240440368652344
ell 1065, elapsed: 0.0006949901580810547
ell 1064, elapsed: 0.0005180835723876953
ell 1063, elapsed: 0.0005979537963867188
ell 1062, elapsed: 0.0005071163177490234
ell 1061, elapsed: 0.0006210803985595703
ell 1060, elapsed: 0.0006380081176757812
ell 1059, elapsed: 0.0005221366882324219
ell 1058, elapsed: 0.00043082237243652344
ell 1057, elapsed: 0.0006971359252929688
ell 1056, elapsed: 0.0006740093231201172
ell 1055, elapsed: 0.0005109310150146484
ell 1054, elapsed: 0.0005578994750976562
ell 1053, elapsed: 0.0005509853363037109
ell 1052, elapsed: 0.0006039142608642578
ell 1051, elapsed: 0.0005941390991210938
ell 1050, elapsed: 0.0005650520324707031
ell 1049, elapsed: 0.0006029605865478516
ell 1048, elapsed: 0.0006728172302246094
ell 1047, elapsed: 0.0005619525909423828
ell 1046, elapsed: 0.0006210803985595703
ell 1045, elapsed: 0.0007498264312744141
ell 1044, elapsed: 0.0007081031799316406
ell 1043, elapsed: 0.0006902217864990234
ell 1042, elapsed: 0.0005128383636474609
ell 1041, elapsed: 0.0006210803985595703
ell 1040, elapsed: 0.0007448196411132812
ell 1039, elapsed: 0.0005540847778320312
ell 1038, elapsed: 0.0005660057067871094
ell 1037, elapsed: 0.0006711483001708984
ell 1036, elapsed: 0.0006802082061767578
ell 1035, elapsed: 0.00061798095703125
ell 1034, elapsed: 0.00049591064453125
ell 1033, elapsed: 0.0004260540008544922
ell 1032, elapsed: 0.00041103363037109375
ell 1031, elapsed: 0.0004119873046875
ell 1030, elapsed: 0.0004150867462158203
ell 1029, elapsed: 0.0004119873046875
ell 1028, elapsed: 0.0004150867462158203
ell 1027, elapsed: 0.0004119873046875
ell 1026, elapsed: 0.0004131793975830078
ell 1025, elapsed: 0.0005719661712646484
ell 1024, elapsed: 0.0006899833679199219
ell 1023, elapsed: 0.0006690025329589844
ell 1022, elapsed: 0.00067901611328125
ell 1021, elapsed: 0.0005371570587158203
ell 1020, elapsed: 0.0005838871002197266
ell 1019, elapsed: 0.0006959438323974609
ell 1018, elapsed: 0.00067901611328125
ell 1017, elapsed: 0.0006551742553710938
ell 1016, elapsed: 0.0006728172302246094
ell 1015, elapsed: 0.0005269050598144531
ell 1014, elapsed: 0.0005869865417480469
ell 1013, elapsed: 0.0006830692291259766
ell 1012, elapsed: 0.0006740093231201172
ell 1011, elapsed: 0.0006718635559082031
ell 1010, elapsed: 0.0005879402160644531
ell 1009, elapsed: 0.0005171298980712891
ell 1008, elapsed: 0.0006182193756103516
ell 1007, elapsed: 0.0005090236663818359
ell 1006, elapsed: 0.0005979537963867188
ell 1005, elapsed: 0.0005109310150146484
ell 1004, elapsed: 0.0006680488586425781
ell 1003, elapsed: 0.0006749629974365234
ell 1002, elapsed: 0.0007090568542480469
ell 1001, elapsed: 0.0005450248718261719
ell 1000, elapsed: 0.000637054443359375
ell 999, elapsed: 0.0005650520324707031
ell 998, elapsed: 0.0005462169647216797
ell 997, elapsed: 0.0006699562072753906
ell 996, elapsed: 0.0007081031799316406
ell 995, elapsed: 0.0005810260772705078
ell 994, elapsed: 0.0005340576171875
ell 993, elapsed: 0.0006849765777587891
ell 992, elapsed: 0.0005350112915039062
ell 991, elapsed: 0.0006241798400878906
ell 990, elapsed: 0.0006589889526367188
ell 989, elapsed: 0.0005409717559814453
ell 988, elapsed: 0.0005319118499755859
ell 987, elapsed: 0.0006740093231201172
ell 986, elapsed: 0.0006830692291259766
ell 985, elapsed: 0.0005931854248046875
ell 984, elapsed: 0.0007560253143310547
ell 983, elapsed: 0.0006489753723144531
ell 982, elapsed: 0.0006630420684814453
ell 981, elapsed: 0.0006380081176757812
ell 980, elapsed: 0.0006079673767089844
ell 979, elapsed: 0.0007369518280029297
ell 978, elapsed: 0.0005609989166259766
ell 977, elapsed: 0.00044798851013183594
ell 976, elapsed: 0.0006279945373535156
ell 975, elapsed: 0.0006501674652099609
ell 974, elapsed: 0.0006849765777587891
ell 973, elapsed: 0.0006818771362304688
ell 972, elapsed: 0.00039696693420410156
ell 971, elapsed: 0.0004000663757324219
ell 970, elapsed: 0.00039505958557128906
ell 969, elapsed: 0.0003941059112548828
ell 968, elapsed: 0.0004069805145263672
ell 967, elapsed: 0.0004410743713378906
ell 966, elapsed: 0.0006098747253417969
ell 965, elapsed: 0.0006020069122314453
ell 964, elapsed: 0.00045013427734375
ell 963, elapsed: 0.0004429817199707031
ell 962, elapsed: 0.0005898475646972656
ell 961, elapsed: 0.0005099773406982422
ell 960, elapsed: 0.0005350112915039062
ell 959, elapsed: 0.0005578994750976562
ell 958, elapsed: 0.0005099773406982422
ell 957, elapsed: 0.0003981590270996094
ell 956, elapsed: 0.0004010200500488281
ell 955, elapsed: 0.0003960132598876953
ell 954, elapsed: 0.0003948211669921875
ell 953, elapsed: 0.0004069805145263672
ell 952, elapsed: 0.0004429817199707031
ell 951, elapsed: 0.0004451274871826172
ell 950, elapsed: 0.0009229183197021484
ell 949, elapsed: 0.0006928443908691406
ell 948, elapsed: 0.0006968975067138672
ell 947, elapsed: 0.0005421638488769531
ell 946, elapsed: 0.0004429817199707031
ell 945, elapsed: 0.0005719661712646484
ell 944, elapsed: 0.0007579326629638672
ell 943, elapsed: 0.0006198883056640625
ell 942, elapsed: 0.0006220340728759766
ell 941, elapsed: 0.0006480216979980469
ell 940, elapsed: 0.0006721019744873047
ell 939, elapsed: 0.0007829666137695312
ell 938, elapsed: 0.0006780624389648438
ell 937, elapsed: 0.0006778240203857422
ell 936, elapsed: 0.0006110668182373047
ell 935, elapsed: 0.0004410743713378906
ell 934, elapsed: 0.0005879402160644531
ell 933, elapsed: 0.0007719993591308594
ell 932, elapsed: 0.00041413307189941406
ell 931, elapsed: 0.0003981590270996094
ell 930, elapsed: 0.0003948211669921875
ell 929, elapsed: 0.0003979206085205078
ell 928, elapsed: 0.0004248619079589844
ell 927, elapsed: 0.0004279613494873047
ell 926, elapsed: 0.0004239082336425781
ell 925, elapsed: 0.0005121231079101562
ell 924, elapsed: 0.00043702125549316406
ell 923, elapsed: 0.0006420612335205078
ell 922, elapsed: 0.0007112026214599609
ell 921, elapsed: 0.0007159709930419922
ell 920, elapsed: 0.0006430149078369141
ell 919, elapsed: 0.0006020069122314453
ell 918, elapsed: 0.0004138946533203125
ell 917, elapsed: 0.0004088878631591797
ell 916, elapsed: 0.00041985511779785156
ell 915, elapsed: 0.00041103363037109375
ell 914, elapsed: 0.0004131793975830078
ell 913, elapsed: 0.0004088878631591797
ell 912, elapsed: 0.0004069805145263672
ell 911, elapsed: 0.0005159378051757812
ell 910, elapsed: 0.00047087669372558594
ell 909, elapsed: 0.0004849433898925781
ell 908, elapsed: 0.00047206878662109375
ell 907, elapsed: 0.00047087669372558594
ell 906, elapsed: 0.0004818439483642578
ell 905, elapsed: 0.00047397613525390625
ell 904, elapsed: 0.0004820823669433594
ell 903, elapsed: 0.00047898292541503906
ell 902, elapsed: 0.0004711151123046875
ell 901, elapsed: 0.00048804283142089844
ell 900, elapsed: 0.00047397613525390625
ell 899, elapsed: 0.0004801750183105469
ell 898, elapsed: 0.00046896934509277344
ell 897, elapsed: 0.00042510032653808594
ell 896, elapsed: 0.0006320476531982422
ell 895, elapsed: 0.0005218982696533203
ell 894, elapsed: 0.00043582916259765625
ell 893, elapsed: 0.0004279613494873047
ell 892, elapsed: 0.0004398822784423828
ell 891, elapsed: 0.0004279613494873047
ell 890, elapsed: 0.0004379749298095703
ell 889, elapsed: 0.0004398822784423828
ell 888, elapsed: 0.0005559921264648438
ell 887, elapsed: 0.0004749298095703125
ell 886, elapsed: 0.0004730224609375
ell 885, elapsed: 0.00046896934509277344
ell 884, elapsed: 0.0004839897155761719
ell 883, elapsed: 0.00046896934509277344
ell 882, elapsed: 0.0004818439483642578
ell 881, elapsed: 0.0005350112915039062
ell 880, elapsed: 0.000476837158203125
ell 879, elapsed: 0.0004839897155761719
ell 878, elapsed: 0.00047707557678222656
ell 877, elapsed: 0.00048089027404785156
ell 876, elapsed: 0.0004780292510986328
ell 875, elapsed: 0.0004749298095703125
ell 874, elapsed: 0.0005428791046142578
ell 873, elapsed: 0.00039315223693847656
ell 872, elapsed: 0.0003910064697265625
ell 871, elapsed: 0.00038909912109375
ell 870, elapsed: 0.00039196014404296875
ell 869, elapsed: 0.00039196014404296875
ell 868, elapsed: 0.0003879070281982422
ell 867, elapsed: 0.00039505958557128906
ell 866, elapsed: 0.0003859996795654297
ell 865, elapsed: 0.00039196014404296875
ell 864, elapsed: 0.0005540847778320312
ell 863, elapsed: 0.00047588348388671875
ell 862, elapsed: 0.00048089027404785156
ell 861, elapsed: 0.0004749298095703125
ell 860, elapsed: 0.0004780292510986328
ell 859, elapsed: 0.000476837158203125
ell 858, elapsed: 0.0004711151123046875
ell 857, elapsed: 0.0005497932434082031
ell 856, elapsed: 0.00047087669372558594
ell 855, elapsed: 0.00048089027404785156
ell 854, elapsed: 0.00047588348388671875
ell 853, elapsed: 0.00047206878662109375
ell 852, elapsed: 0.0004849433898925781
ell 851, elapsed: 0.000476837158203125
ell 850, elapsed: 0.0005459785461425781
ell 849, elapsed: 0.00047397613525390625
ell 848, elapsed: 0.00047087669372558594
ell 847, elapsed: 0.0004761219024658203
ell 846, elapsed: 0.0004680156707763672
ell 845, elapsed: 0.0004839897155761719
ell 844, elapsed: 0.00047087669372558594
ell 843, elapsed: 0.0004749298095703125
ell 842, elapsed: 0.0005540847778320312
ell 841, elapsed: 0.00047898292541503906
ell 840, elapsed: 0.0004801750183105469
ell 839, elapsed: 0.00043320655822753906
ell 838, elapsed: 0.0005002021789550781
ell 837, elapsed: 0.0006041526794433594
ell 836, elapsed: 0.0005979537963867188
ell 835, elapsed: 0.0007770061492919922
ell 834, elapsed: 0.0005807876586914062
ell 833, elapsed: 0.0005869865417480469
ell 832, elapsed: 0.0006771087646484375
ell 831, elapsed: 0.0005939006805419922
ell 830, elapsed: 0.0006060600280761719
ell 829, elapsed: 0.0005800724029541016
ell 828, elapsed: 0.0004761219024658203
ell 827, elapsed: 0.00046896934509277344
ell 826, elapsed: 0.00047707557678222656
ell 825, elapsed: 0.00047516822814941406
ell 824, elapsed: 0.0004718303680419922
ell 823, elapsed: 0.0004820823669433594
ell 822, elapsed: 0.00047779083251953125
ell 821, elapsed: 0.000476837158203125
ell 820, elapsed: 0.00047898292541503906
ell 819, elapsed: 0.0004749298095703125
ell 818, elapsed: 0.00047898292541503906
ell 817, elapsed: 0.0004730224609375
ell 816, elapsed: 0.0004749298095703125
ell 815, elapsed: 0.0005490779876708984
ell 814, elapsed: 0.0004730224609375
ell 813, elapsed: 0.0004811286926269531
ell 812, elapsed: 0.00047016143798828125
ell 811, elapsed: 0.00047278404235839844
ell 810, elapsed: 0.0004799365997314453
ell 809, elapsed: 0.0004749298095703125
ell 808, elapsed: 0.0005230903625488281
ell 807, elapsed: 0.0006241798400878906
ell 806, elapsed: 0.0006520748138427734
ell 805, elapsed: 0.0005490779876708984
ell 804, elapsed: 0.0006229877471923828
ell 803, elapsed: 0.0006399154663085938
ell 802, elapsed: 0.0006101131439208984
ell 801, elapsed: 0.0003910064697265625
ell 800, elapsed: 0.00038695335388183594
ell 799, elapsed: 0.0003941059112548828
ell 798, elapsed: 0.0003840923309326172
ell 797, elapsed: 0.00038909912109375
ell 796, elapsed: 0.00038695335388183594
ell 795, elapsed: 0.0003910064697265625
ell 794, elapsed: 0.0003848075866699219
ell 793, elapsed: 0.000431060791015625
ell 792, elapsed: 0.0004329681396484375
ell 791, elapsed: 0.00043487548828125
ell 790, elapsed: 0.00043392181396484375
ell 789, elapsed: 0.0005011558532714844
ell 788, elapsed: 0.0006198883056640625
ell 787, elapsed: 0.0005009174346923828
ell 786, elapsed: 0.0006361007690429688
ell 785, elapsed: 0.0005991458892822266
ell 784, elapsed: 0.0005049705505371094
ell 783, elapsed: 0.0004391670227050781
ell 782, elapsed: 0.0006129741668701172
ell 781, elapsed: 0.0006799697875976562
ell 780, elapsed: 0.0006389617919921875
ell 779, elapsed: 0.0004839897155761719
ell 778, elapsed: 0.00038909912109375
ell 777, elapsed: 0.0003910064697265625
ell 776, elapsed: 0.00038504600524902344
ell 775, elapsed: 0.00039196014404296875
ell 774, elapsed: 0.00038504600524902344
ell 773, elapsed: 0.0003859996795654297
ell 772, elapsed: 0.00038909912109375
ell 771, elapsed: 0.0003840923309326172
ell 770, elapsed: 0.0004680156707763672
ell 769, elapsed: 0.0005879402160644531
ell 768, elapsed: 0.0005090236663818359
ell 767, elapsed: 0.00043702125549316406
ell 766, elapsed: 0.0006010532379150391
ell 765, elapsed: 0.0005838871002197266
ell 764, elapsed: 0.0031800270080566406
ell 763, elapsed: 0.0004630088806152344
ell 762, elapsed: 0.0004382133483886719
ell 761, elapsed: 0.00044989585876464844
ell 760, elapsed: 0.00039196014404296875
ell 759, elapsed: 0.00038504600524902344
ell 758, elapsed: 0.00038909912109375
ell 757, elapsed: 0.0003840923309326172
ell 756, elapsed: 0.0003859996795654297
ell 755, elapsed: 0.00039005279541015625
ell 754, elapsed: 0.00038886070251464844
ell 753, elapsed: 0.00038909912109375
ell 752, elapsed: 0.00040793418884277344
ell 751, elapsed: 0.0006470680236816406
ell 750, elapsed: 0.0004961490631103516
ell 749, elapsed: 0.0004417896270751953
ell 748, elapsed: 0.0005939006805419922
ell 747, elapsed: 0.0006830692291259766
ell 746, elapsed: 0.0005869865417480469
ell 745, elapsed: 0.0056819915771484375
ell 744, elapsed: 0.0004341602325439453
ell 743, elapsed: 0.0006201267242431641
ell 742, elapsed: 0.0005970001220703125
ell 741, elapsed: 0.0006339550018310547
ell 740, elapsed: 0.0005428791046142578
ell 739, elapsed: 0.0005288124084472656
ell 738, elapsed: 0.0005807876586914062
ell 737, elapsed: 0.0006098747253417969
ell 736, elapsed: 0.0006868839263916016
ell 735, elapsed: 0.004619121551513672
ell 734, elapsed: 0.0006299018859863281
ell 733, elapsed: 0.0005638599395751953
ell 732, elapsed: 0.0006129741668701172
ell 731, elapsed: 0.0005209445953369141
ell 730, elapsed: 0.0005919933319091797
ell 729, elapsed: 0.0005929470062255859
ell 728, elapsed: 0.0005269050598144531
ell 727, elapsed: 0.0006241798400878906
ell 726, elapsed: 0.0005328655242919922
ell 725, elapsed: 0.0005900859832763672
ell 724, elapsed: 0.0005948543548583984
ell 723, elapsed: 0.0005228519439697266
ell 722, elapsed: 0.005246162414550781
ell 721, elapsed: 0.0006170272827148438
ell 720, elapsed: 0.0005021095275878906
ell 719, elapsed: 0.0006189346313476562
ell 718, elapsed: 0.0005559921264648438
ell 717, elapsed: 0.0007159709930419922
ell 716, elapsed: 0.00048613548278808594
ell 715, elapsed: 0.0004620552062988281
ell 714, elapsed: 0.0004589557647705078
ell 713, elapsed: 0.0005738735198974609
ell 712, elapsed: 0.0005731582641601562
ell 711, elapsed: 0.0006561279296875
ell 710, elapsed: 0.00047898292541503906
ell 709, elapsed: 0.0004420280456542969
ell 708, elapsed: 0.0005908012390136719
ell 707, elapsed: 0.0005030632019042969
ell 706, elapsed: 0.000537872314453125
ell 705, elapsed: 0.0006809234619140625
ell 704, elapsed: 0.0007109642028808594
ell 703, elapsed: 0.0005290508270263672
ell 702, elapsed: 0.0005590915679931641
ell 701, elapsed: 0.0006799697875976562
ell 700, elapsed: 0.0006787776947021484
ell 699, elapsed: 0.0005981922149658203
ell 698, elapsed: 0.0006589889526367188
ell 697, elapsed: 0.0004658699035644531
ell 696, elapsed: 0.0004410743713378906
ell 695, elapsed: 0.00043392181396484375
ell 694, elapsed: 0.0004401206970214844
ell 693, elapsed: 0.0006079673767089844
ell 692, elapsed: 0.0006501674652099609
ell 691, elapsed: 0.0006067752838134766
ell 690, elapsed: 0.0006098747253417969
ell 689, elapsed: 0.0005071163177490234
ell 688, elapsed: 0.0004918575286865234
ell 687, elapsed: 0.0006749629974365234
ell 686, elapsed: 0.0005538463592529297
ell 685, elapsed: 0.00045680999755859375
ell 684, elapsed: 0.0004420280456542969
ell 683, elapsed: 0.0004379749298095703
ell 682, elapsed: 0.00043702125549316406
ell 681, elapsed: 0.0005068778991699219
ell 680, elapsed: 0.0006721019744873047
ell 679, elapsed: 0.0006239414215087891
ell 678, elapsed: 0.0005629062652587891
ell 677, elapsed: 0.0006649494171142578
ell 676, elapsed: 0.0006301403045654297
ell 675, elapsed: 0.0005950927734375
ell 674, elapsed: 0.0006079673767089844
ell 673, elapsed: 0.0004379749298095703
ell 672, elapsed: 0.008642911911010742
ell 671, elapsed: 0.0005278587341308594
ell 670, elapsed: 0.0004439353942871094
ell 669, elapsed: 0.0004470348358154297
ell 668, elapsed: 0.0004940032958984375
ell 667, elapsed: 0.0006239414215087891
ell 666, elapsed: 0.0005040168762207031
ell 665, elapsed: 0.0006549358367919922
ell 664, elapsed: 0.0006618499755859375
ell 663, elapsed: 0.0005340576171875
ell 662, elapsed: 0.0005960464477539062
ell 661, elapsed: 0.0005550384521484375
ell 660, elapsed: 0.0006170272827148438
ell 659, elapsed: 0.0006830692291259766
ell 658, elapsed: 0.0005271434783935547
ell 657, elapsed: 0.0006289482116699219
ell 656, elapsed: 0.0006089210510253906
ell 655, elapsed: 0.0005800724029541016
ell 654, elapsed: 0.0005078315734863281
ell 653, elapsed: 0.0005359649658203125
ell 652, elapsed: 0.0005829334259033203
ell 651, elapsed: 0.0005769729614257812
ell 650, elapsed: 0.0005941390991210938
ell 649, elapsed: 0.0006091594696044922
ell 648, elapsed: 0.0005581378936767578
ell 647, elapsed: 0.0006589889526367188
ell 646, elapsed: 0.0004398822784423828
ell 645, elapsed: 0.0004410743713378906
ell 644, elapsed: 0.0004439353942871094
ell 643, elapsed: 0.00043702125549316406
ell 642, elapsed: 0.00044417381286621094
ell 641, elapsed: 0.0004360675811767578
ell 640, elapsed: 0.0006420612335205078
ell 639, elapsed: 0.0005829334259033203
ell 638, elapsed: 0.0006110668182373047
ell 637, elapsed: 0.0005779266357421875
ell 636, elapsed: 0.0007150173187255859
ell 635, elapsed: 0.0007131099700927734
ell 634, elapsed: 0.0007789134979248047
ell 633, elapsed: 0.0006837844848632812
ell 632, elapsed: 0.0005128383636474609
ell 631, elapsed: 0.0005459785461425781
ell 630, elapsed: 0.000579833984375
ell 629, elapsed: 0.0004360675811767578
ell 628, elapsed: 0.0006759166717529297
ell 627, elapsed: 0.0006651878356933594
ell 626, elapsed: 0.0005209445953369141
ell 625, elapsed: 0.0005700588226318359
ell 624, elapsed: 0.0007071495056152344
ell 623, elapsed: 0.0007169246673583984
ell 622, elapsed: 0.0006880760192871094
ell 621, elapsed: 0.0006310939788818359
ell 620, elapsed: 0.0005559921264648438
ell 619, elapsed: 0.0005559921264648438
ell 618, elapsed: 0.0004990100860595703
ell 617, elapsed: 0.0007069110870361328
ell 616, elapsed: 0.0005981922149658203
ell 615, elapsed: 0.0004630088806152344
ell 614, elapsed: 0.0006279945373535156
ell 613, elapsed: 0.0004940032958984375
ell 612, elapsed: 0.0005359649658203125
ell 611, elapsed: 0.0006089210510253906
ell 610, elapsed: 0.0012848377227783203
ell 609, elapsed: 0.0005819797515869141
ell 608, elapsed: 0.00045990943908691406
ell 607, elapsed: 0.00045609474182128906
ell 606, elapsed: 0.0006461143493652344
ell 605, elapsed: 0.0012400150299072266
ell 604, elapsed: 0.0005998611450195312
ell 603, elapsed: 0.0004429817199707031
ell 602, elapsed: 0.00043487548828125
ell 601, elapsed: 0.0004379749298095703
ell 600, elapsed: 0.00043702125549316406
ell 599, elapsed: 0.0011489391326904297
ell 598, elapsed: 0.0004432201385498047
ell 597, elapsed: 0.00043582916259765625
ell 596, elapsed: 0.00043582916259765625
ell 595, elapsed: 0.0004391670227050781
ell 594, elapsed: 0.0004360675811767578
ell 593, elapsed: 0.00043702125549316406
ell 592, elapsed: 0.0011398792266845703
ell 591, elapsed: 0.0005650520324707031
ell 590, elapsed: 0.0005872249603271484
ell 589, elapsed: 0.0004608631134033203
ell 588, elapsed: 0.00046181678771972656
ell 587, elapsed: 0.000457763671875
ell 586, elapsed: 0.001119852066040039
ell 585, elapsed: 0.0004420280456542969
ell 584, elapsed: 0.0004391670227050781
ell 583, elapsed: 0.0004401206970214844
ell 582, elapsed: 0.0006089210510253906
ell 581, elapsed: 0.0005130767822265625
ell 580, elapsed: 0.0011358261108398438
ell 579, elapsed: 0.0005729198455810547
ell 578, elapsed: 0.0005910396575927734
ell 577, elapsed: 0.0005879402160644531
ell 576, elapsed: 0.0005650520324707031
ell 575, elapsed: 0.0012898445129394531
ell 574, elapsed: 0.00045609474182128906
ell 573, elapsed: 0.00044083595275878906
ell 572, elapsed: 0.0006020069122314453
ell 571, elapsed: 0.0005841255187988281
ell 570, elapsed: 0.0006830692291259766
ell 569, elapsed: 0.0012462139129638672
ell 568, elapsed: 0.0006291866302490234
ell 567, elapsed: 0.0005500316619873047
ell 566, elapsed: 0.0005910396575927734
ell 565, elapsed: 0.0005421638488769531
ell 564, elapsed: 0.0011298656463623047
ell 563, elapsed: 0.0004439353942871094
ell 562, elapsed: 0.0004458427429199219
ell 561, elapsed: 0.0005669593811035156
ell 560, elapsed: 0.0005350112915039062
ell 559, elapsed: 0.00043201446533203125
ell 558, elapsed: 0.0004398822784423828
ell 557, elapsed: 0.0011298656463623047
ell 556, elapsed: 0.0004410743713378906
ell 555, elapsed: 0.0004990100860595703
ell 554, elapsed: 0.0006859302520751953
ell 553, elapsed: 0.0006189346313476562
ell 552, elapsed: 0.0011889934539794922
ell 551, elapsed: 0.0005290508270263672
ell 550, elapsed: 0.00067901611328125
ell 549, elapsed: 0.0005240440368652344
ell 548, elapsed: 0.0004382133483886719
ell 547, elapsed: 0.00043487548828125
ell 546, elapsed: 0.0012159347534179688
ell 545, elapsed: 0.0005559921264648438
ell 544, elapsed: 0.0005869865417480469
ell 543, elapsed: 0.0006320476531982422
ell 542, elapsed: 0.0005650520324707031
ell 541, elapsed: 0.0013051033020019531
ell 540, elapsed: 0.00044798851013183594
ell 539, elapsed: 0.0004410743713378906
ell 538, elapsed: 0.0004379749298095703
ell 537, elapsed: 0.0004379749298095703
ell 536, elapsed: 0.0004451274871826172
ell 535, elapsed: 0.0004401206970214844
ell 534, elapsed: 0.001177072525024414
ell 533, elapsed: 0.0005919933319091797
ell 532, elapsed: 0.0006811618804931641
ell 531, elapsed: 0.0004930496215820312
ell 530, elapsed: 0.0005800724029541016
ell 529, elapsed: 0.0012891292572021484
ell 528, elapsed: 0.0006260871887207031
ell 527, elapsed: 0.0006139278411865234
ell 526, elapsed: 0.0004470348358154297
ell 525, elapsed: 0.0006101131439208984
ell 524, elapsed: 0.0006940364837646484
ell 523, elapsed: 0.0004429817199707031
ell 522, elapsed: 0.0005180835723876953
ell 521, elapsed: 0.0006060600280761719
ell 520, elapsed: 0.0005888938903808594
ell 519, elapsed: 0.0006010532379150391
ell 518, elapsed: 0.0006189346313476562
ell 517, elapsed: 0.0005161762237548828
ell 516, elapsed: 0.0005819797515869141
ell 515, elapsed: 0.0005209445953369141
ell 514, elapsed: 0.0004420280456542969
ell 513, elapsed: 0.0006198883056640625
ell 512, elapsed: 0.0005500316619873047
ell 511, elapsed: 0.0004379749298095703
ell 510, elapsed: 0.0007050037384033203
ell 509, elapsed: 0.0006148815155029297
ell 508, elapsed: 0.0006160736083984375
ell 507, elapsed: 0.0005130767822265625
ell 506, elapsed: 0.0004410743713378906
ell 505, elapsed: 0.0006039142608642578
ell 504, elapsed: 0.0005848407745361328
ell 503, elapsed: 0.0005030632019042969
ell 502, elapsed: 0.0006110668182373047
ell 501, elapsed: 0.0006291866302490234
ell 500, elapsed: 0.0004889965057373047
ell 499, elapsed: 0.00043892860412597656
ell 498, elapsed: 0.0004360675811767578
ell 497, elapsed: 0.0006117820739746094
ell 496, elapsed: 0.0005240440368652344
ell 495, elapsed: 0.00044417381286621094
ell 494, elapsed: 0.0004467964172363281
ell 493, elapsed: 0.0004420280456542969
ell 492, elapsed: 0.0004467964172363281
ell 491, elapsed: 0.0005970001220703125
ell 490, elapsed: 0.0005412101745605469
ell 489, elapsed: 0.0004379749298095703
ell 488, elapsed: 0.0006351470947265625
ell 487, elapsed: 0.0004930496215820312
ell 486, elapsed: 0.0005421638488769531
ell 485, elapsed: 0.0005929470062255859
ell 484, elapsed: 0.0005991458892822266
ell 483, elapsed: 0.0005490779876708984
ell 482, elapsed: 0.00044798851013183594
ell 481, elapsed: 0.0006160736083984375
ell 480, elapsed: 0.0006392002105712891
ell 479, elapsed: 0.0005590915679931641
ell 478, elapsed: 0.0004429817199707031
ell 477, elapsed: 0.00045418739318847656
ell 476, elapsed: 0.0005280971527099609
ell 475, elapsed: 0.0006890296936035156
ell 474, elapsed: 0.0004830360412597656
ell 473, elapsed: 0.0004401206970214844
ell 472, elapsed: 0.0005700588226318359
ell 471, elapsed: 0.0006549358367919922
ell 470, elapsed: 0.0007028579711914062
ell 469, elapsed: 0.0006120204925537109
ell 468, elapsed: 0.0005350112915039062
ell 467, elapsed: 0.0005681514739990234
ell 466, elapsed: 0.0004429817199707031
ell 465, elapsed: 0.0006029605865478516
ell 464, elapsed: 0.0005018711090087891
ell 463, elapsed: 0.0004520416259765625
ell 462, elapsed: 0.0004398822784423828
ell 461, elapsed: 0.0004429817199707031
ell 460, elapsed: 0.0004458427429199219
ell 459, elapsed: 0.00044608116149902344
ell 458, elapsed: 0.00044608116149902344
ell 457, elapsed: 0.0004429817199707031
ell 456, elapsed: 0.0004470348358154297
ell 455, elapsed: 0.0004341602325439453
ell 454, elapsed: 0.0005140304565429688
ell 453, elapsed: 0.0006821155548095703
ell 452, elapsed: 0.0006930828094482422
ell 451, elapsed: 0.0006930828094482422
ell 450, elapsed: 0.0006859302520751953
ell 449, elapsed: 0.0007028579711914062
ell 448, elapsed: 0.0005810260772705078
ell 447, elapsed: 0.0006079673767089844
ell 446, elapsed: 0.0005860328674316406
ell 445, elapsed: 0.0005118846893310547
ell 444, elapsed: 0.0007190704345703125
ell 443, elapsed: 0.0006871223449707031
ell 442, elapsed: 0.0005230903625488281
ell 441, elapsed: 0.0005328655242919922
ell 440, elapsed: 0.0005819797515869141
ell 439, elapsed: 0.0005731582641601562
ell 438, elapsed: 0.0005609989166259766
ell 437, elapsed: 0.0005750656127929688
ell 436, elapsed: 0.0006060600280761719
ell 435, elapsed: 0.0006070137023925781
ell 434, elapsed: 0.0005559921264648438
ell 433, elapsed: 0.0005521774291992188
ell 432, elapsed: 0.0006239414215087891
ell 431, elapsed: 0.0005838871002197266
ell 430, elapsed: 0.0006070137023925781
ell 429, elapsed: 0.00043487548828125
ell 428, elapsed: 0.0006279945373535156
ell 427, elapsed: 0.0005528926849365234
ell 426, elapsed: 0.0004401206970214844
ell 425, elapsed: 0.00045800209045410156
ell 424, elapsed: 0.0004429817199707031
ell 423, elapsed: 0.0005707740783691406
ell 422, elapsed: 0.0005412101745605469
ell 421, elapsed: 0.0004451274871826172
ell 420, elapsed: 0.0005640983581542969
ell 419, elapsed: 0.0006930828094482422
ell 418, elapsed: 0.0006799697875976562
ell 417, elapsed: 0.0006771087646484375
ell 416, elapsed: 0.0006978511810302734
ell 415, elapsed: 0.0006191730499267578
ell 414, elapsed: 0.0006778240203857422
ell 413, elapsed: 0.0005800724029541016
ell 412, elapsed: 0.0004329681396484375
ell 411, elapsed: 0.00043511390686035156
ell 410, elapsed: 0.0005390644073486328
ell 409, elapsed: 0.0005719661712646484
ell 408, elapsed: 0.00043010711669921875
ell 407, elapsed: 0.0005190372467041016
ell 406, elapsed: 0.0006079673767089844
ell 405, elapsed: 0.0005261898040771484
ell 404, elapsed: 0.0006730556488037109
ell 403, elapsed: 0.0006101131439208984
ell 402, elapsed: 0.0006258487701416016
ell 401, elapsed: 0.0005629062652587891
ell 400, elapsed: 0.0007071495056152344
ell 399, elapsed: 0.000640869140625
ell 398, elapsed: 0.0005321502685546875
ell 397, elapsed: 0.0004391670227050781
ell 396, elapsed: 0.0006060600280761719
ell 395, elapsed: 0.0005958080291748047
ell 394, elapsed: 0.0004410743713378906
ell 393, elapsed: 0.0004489421844482422
ell 392, elapsed: 0.0006060600280761719
ell 391, elapsed: 0.0006079673767089844
ell 390, elapsed: 0.0005970001220703125
ell 389, elapsed: 0.0005269050598144531
ell 388, elapsed: 0.0005950927734375
ell 387, elapsed: 0.0007200241088867188
ell 386, elapsed: 0.0005369186401367188
ell 385, elapsed: 0.0004391670227050781
ell 384, elapsed: 0.0004439353942871094
ell 383, elapsed: 0.0006248950958251953
ell 382, elapsed: 0.0006630420684814453
ell 381, elapsed: 0.0006101131439208984
ell 380, elapsed: 0.0005040168762207031
ell 379, elapsed: 0.0006210803985595703
ell 378, elapsed: 0.0004420280456542969
ell 377, elapsed: 0.0005168914794921875
ell 376, elapsed: 0.0006699562072753906
ell 375, elapsed: 0.0006248950958251953
ell 374, elapsed: 0.0006051063537597656
ell 373, elapsed: 0.0005319118499755859
ell 372, elapsed: 0.0004451274871826172
ell 371, elapsed: 0.0006058216094970703
ell 370, elapsed: 0.0005290508270263672
ell 369, elapsed: 0.0005991458892822266
ell 368, elapsed: 0.0006289482116699219
ell 367, elapsed: 0.00045299530029296875
ell 366, elapsed: 0.00043702125549316406
ell 365, elapsed: 0.0004279613494873047
ell 364, elapsed: 0.00043392181396484375
ell 363, elapsed: 0.0006000995635986328
ell 362, elapsed: 0.0005159378051757812
ell 361, elapsed: 0.0005140304565429688
ell 360, elapsed: 0.0004971027374267578
ell 359, elapsed: 0.0006880760192871094
ell 358, elapsed: 0.0006101131439208984
ell 357, elapsed: 0.0006229877471923828
ell 356, elapsed: 0.0005240440368652344
ell 355, elapsed: 0.0008141994476318359
ell 354, elapsed: 0.0006380081176757812
ell 353, elapsed: 0.0005409717559814453
ell 352, elapsed: 0.000431060791015625
ell 351, elapsed: 0.00043487548828125
ell 350, elapsed: 0.0006039142608642578
ell 349, elapsed: 0.0005419254302978516
ell 348, elapsed: 0.0005168914794921875
ell 347, elapsed: 0.0004458427429199219
ell 346, elapsed: 0.0006258487701416016
ell 345, elapsed: 0.0006949901580810547
ell 344, elapsed: 0.0005199909210205078
ell 343, elapsed: 0.000614166259765625
ell 342, elapsed: 0.0006148815155029297
ell 341, elapsed: 0.00044608116149902344
ell 340, elapsed: 0.0005021095275878906
ell 339, elapsed: 0.0006818771362304688
ell 338, elapsed: 0.0006210803985595703
ell 337, elapsed: 0.0005578994750976562
ell 336, elapsed: 0.0006780624389648438
ell 335, elapsed: 0.00048804283142089844
ell 334, elapsed: 0.0006349086761474609
ell 333, elapsed: 0.0006740093231201172
ell 332, elapsed: 0.0004961490631103516
ell 331, elapsed: 0.0004940032958984375
ell 330, elapsed: 0.0007081031799316406
ell 329, elapsed: 0.0006158351898193359
ell 328, elapsed: 0.0005328655242919922
ell 327, elapsed: 0.0005800724029541016
ell 326, elapsed: 0.00043702125549316406
ell 325, elapsed: 0.0006051063537597656
ell 324, elapsed: 0.0005970001220703125
ell 323, elapsed: 0.0005970001220703125
ell 322, elapsed: 0.0005347728729248047
ell 321, elapsed: 0.0005888938903808594
ell 320, elapsed: 0.0006060600280761719
ell 319, elapsed: 0.0005807876586914062
ell 318, elapsed: 0.0006289482116699219
ell 317, elapsed: 0.0006499290466308594
ell 316, elapsed: 0.0005350112915039062
ell 315, elapsed: 0.0004291534423828125
ell 314, elapsed: 0.00043201446533203125
ell 313, elapsed: 0.0005748271942138672
ell 312, elapsed: 0.0005528926849365234
ell 311, elapsed: 0.00042510032653808594
ell 310, elapsed: 0.0006768703460693359
ell 309, elapsed: 0.0005319118499755859
ell 308, elapsed: 0.0006089210510253906
ell 307, elapsed: 0.0005080699920654297
ell 306, elapsed: 0.0005588531494140625
ell 305, elapsed: 0.0005419254302978516
ell 304, elapsed: 0.0004391670227050781
ell 303, elapsed: 0.0005121231079101562
ell 302, elapsed: 0.0006148815155029297
ell 301, elapsed: 0.0004379749298095703
ell 300, elapsed: 0.0004439353942871094
ell 299, elapsed: 0.00043892860412597656
ell 298, elapsed: 0.0006451606750488281
ell 297, elapsed: 0.0007028579711914062
ell 296, elapsed: 0.0005700588226318359
ell 295, elapsed: 0.0006248950958251953
ell 294, elapsed: 0.0004410743713378906
ell 293, elapsed: 0.0006079673767089844
ell 292, elapsed: 0.0006020069122314453
ell 291, elapsed: 0.0004451274871826172
ell 290, elapsed: 0.0005321502685546875
ell 289, elapsed: 0.0006859302520751953
ell 288, elapsed: 0.0006279945373535156
ell 287, elapsed: 0.00044083595275878906
ell 286, elapsed: 0.0005240440368652344
ell 285, elapsed: 0.0006659030914306641
ell 284, elapsed: 0.000637054443359375
ell 283, elapsed: 0.0004410743713378906
ell 282, elapsed: 0.0004429817199707031
ell 281, elapsed: 0.0004451274871826172
ell 280, elapsed: 0.00043702125549316406
ell 279, elapsed: 0.0004401206970214844
ell 278, elapsed: 0.0004398822784423828
ell 277, elapsed: 0.0004420280456542969
ell 276, elapsed: 0.00047588348388671875
ell 275, elapsed: 0.0004470348358154297
ell 274, elapsed: 0.0004410743713378906
ell 273, elapsed: 0.00044798851013183594
ell 272, elapsed: 0.0004420280456542969
ell 271, elapsed: 0.0004401206970214844
ell 270, elapsed: 0.0004379749298095703
ell 269, elapsed: 0.00044083595275878906
ell 268, elapsed: 0.0004589557647705078
ell 267, elapsed: 0.0004420280456542969
ell 266, elapsed: 0.0004379749298095703
ell 265, elapsed: 0.0004451274871826172
ell 264, elapsed: 0.00044083595275878906
ell 263, elapsed: 0.0004410743713378906
ell 262, elapsed: 0.00043702125549316406
ell 261, elapsed: 0.00044798851013183594
ell 260, elapsed: 0.00046896934509277344
ell 259, elapsed: 0.00044608116149902344
ell 258, elapsed: 0.0004420280456542969
ell 257, elapsed: 0.0005459785461425781
ell 256, elapsed: 0.0005590915679931641
ell 255, elapsed: 0.0004367828369140625
ell 254, elapsed: 0.00044083595275878906
ell 253, elapsed: 0.0004379749298095703
ell 252, elapsed: 0.00047707557678222656
ell 251, elapsed: 0.0004420280456542969
ell 250, elapsed: 0.0004398822784423828
ell 249, elapsed: 0.00043892860412597656
ell 248, elapsed: 0.00043892860412597656
ell 247, elapsed: 0.0006210803985595703
ell 246, elapsed: 0.0005068778991699219
ell 245, elapsed: 0.00043511390686035156
ell 244, elapsed: 0.0004749298095703125
ell 243, elapsed: 0.0004379749298095703
ell 242, elapsed: 0.00043702125549316406
ell 241, elapsed: 0.00043892860412597656
ell 240, elapsed: 0.0004382133483886719
ell 239, elapsed: 0.0004420280456542969
ell 238, elapsed: 0.00043582916259765625
ell 237, elapsed: 0.0006201267242431641
ell 236, elapsed: 0.0004858970642089844
ell 235, elapsed: 0.00049591064453125
ell 234, elapsed: 0.0006129741668701172
ell 233, elapsed: 0.00043487548828125
ell 232, elapsed: 0.00044417381286621094
ell 231, elapsed: 0.0006232261657714844
ell 230, elapsed: 0.0005171298980712891
ell 229, elapsed: 0.0004470348358154297
ell 228, elapsed: 0.0004470348358154297
ell 227, elapsed: 0.0004420280456542969
ell 226, elapsed: 0.0006399154663085938
ell 225, elapsed: 0.00048089027404785156
ell 224, elapsed: 0.0004420280456542969
ell 223, elapsed: 0.0004451274871826172
ell 222, elapsed: 0.00047516822814941406
ell 221, elapsed: 0.0004420280456542969
ell 220, elapsed: 0.00043702125549316406
ell 219, elapsed: 0.0004439353942871094
ell 218, elapsed: 0.00043702125549316406
ell 217, elapsed: 0.00045013427734375
ell 216, elapsed: 0.0004379749298095703
ell 215, elapsed: 0.0004401206970214844
ell 214, elapsed: 0.0004699230194091797
ell 213, elapsed: 0.00061798095703125
ell 212, elapsed: 0.0005068778991699219
ell 211, elapsed: 0.0006430149078369141
ell 210, elapsed: 0.0004870891571044922
ell 209, elapsed: 0.0006401538848876953
ell 208, elapsed: 0.0005049705505371094
ell 207, elapsed: 0.00045990943908691406
ell 206, elapsed: 0.0004410743713378906
ell 205, elapsed: 0.0005590915679931641
ell 204, elapsed: 0.0005428791046142578
ell 203, elapsed: 0.0004410743713378906
ell 202, elapsed: 0.0004401206970214844
ell 201, elapsed: 0.0004382133483886719
ell 200, elapsed: 0.0005271434783935547
ell 199, elapsed: 0.0006120204925537109
ell 198, elapsed: 0.0004429817199707031
ell 197, elapsed: 0.0004398822784423828
ell 196, elapsed: 0.00043702125549316406
ell 195, elapsed: 0.00044798851013183594
ell 194, elapsed: 0.0004398822784423828
ell 193, elapsed: 0.0004420280456542969
ell 192, elapsed: 0.0004668235778808594
ell 191, elapsed: 0.00044608116149902344
ell 190, elapsed: 0.0005769729614257812
ell 189, elapsed: 0.0005381107330322266
ell 188, elapsed: 0.0004398822784423828
ell 187, elapsed: 0.0004439353942871094
ell 186, elapsed: 0.0004398822784423828
ell 185, elapsed: 0.0004661083221435547
ell 184, elapsed: 0.00044608116149902344
ell 183, elapsed: 0.0004398822784423828
ell 182, elapsed: 0.0004451274871826172
ell 181, elapsed: 0.0004420280456542969
ell 180, elapsed: 0.0004570484161376953
ell 179, elapsed: 0.0004448890686035156
ell 178, elapsed: 0.0004458427429199219
ell 177, elapsed: 0.00043702125549316406
ell 176, elapsed: 0.00045800209045410156
ell 175, elapsed: 0.0005240440368652344
ell 174, elapsed: 0.0006020069122314453
ell 173, elapsed: 0.0004420280456542969
ell 172, elapsed: 0.0004391670227050781
ell 171, elapsed: 0.00043702125549316406
ell 170, elapsed: 0.0004448890686035156
ell 169, elapsed: 0.0005300045013427734
ell 168, elapsed: 0.0006170272827148438
ell 167, elapsed: 0.0004379749298095703
ell 166, elapsed: 0.0004429817199707031
ell 165, elapsed: 0.0004489421844482422
ell 164, elapsed: 0.00044083595275878906
ell 163, elapsed: 0.0004439353942871094
ell 162, elapsed: 0.00043487548828125
ell 161, elapsed: 0.00047206878662109375
ell 160, elapsed: 0.0004451274871826172
ell 159, elapsed: 0.0004410743713378906
ell 158, elapsed: 0.0004401206970214844
ell 157, elapsed: 0.0004379749298095703
ell 156, elapsed: 0.00043702125549316406
ell 155, elapsed: 0.0004448890686035156
ell 154, elapsed: 0.00043702125549316406
ell 153, elapsed: 0.0004718303680419922
ell 152, elapsed: 0.0004439353942871094
ell 151, elapsed: 0.0004410743713378906
ell 150, elapsed: 0.0004420280456542969
ell 149, elapsed: 0.0004429817199707031
ell 148, elapsed: 0.0004410743713378906
ell 147, elapsed: 0.0004379749298095703
ell 146, elapsed: 0.0004448890686035156
ell 145, elapsed: 0.0004699230194091797
ell 144, elapsed: 0.00043487548828125
ell 143, elapsed: 0.0004420280456542969
ell 142, elapsed: 0.0004360675811767578
ell 141, elapsed: 0.0004439353942871094
ell 140, elapsed: 0.0004341602325439453
ell 139, elapsed: 0.0004391670227050781
ell 138, elapsed: 0.0004401206970214844
ell 137, elapsed: 0.00045990943908691406
ell 136, elapsed: 0.0004451274871826172
ell 135, elapsed: 0.00043892860412597656
ell 134, elapsed: 0.00043582916259765625
ell 133, elapsed: 0.0004429817199707031
ell 132, elapsed: 0.0004329681396484375
ell 131, elapsed: 0.0004451274871826172
ell 130, elapsed: 0.0004401206970214844
ell 129, elapsed: 0.0004520416259765625
ell 128, elapsed: 0.00046706199645996094
ell 127, elapsed: 0.0004439353942871094
ell 126, elapsed: 0.0004410743713378906
ell 125, elapsed: 0.00043392181396484375
ell 124, elapsed: 0.00043892860412597656
ell 123, elapsed: 0.0004420280456542969
ell 122, elapsed: 0.00043702125549316406
ell 121, elapsed: 0.00044417381286621094
ell 120, elapsed: 0.0006620883941650391
ell 119, elapsed: 0.0005271434783935547
ell 118, elapsed: 0.0004470348358154297
ell 117, elapsed: 0.0004379749298095703
ell 116, elapsed: 0.00043892860412597656
ell 115, elapsed: 0.00043582916259765625
ell 114, elapsed: 0.0004398822784423828
ell 113, elapsed: 0.0006210803985595703
ell 112, elapsed: 0.000553131103515625
ell 111, elapsed: 0.0005421638488769531
ell 110, elapsed: 0.0005450248718261719
ell 109, elapsed: 0.0004429817199707031
ell 108, elapsed: 0.0004439353942871094
ell 107, elapsed: 0.0004367828369140625
ell 106, elapsed: 0.0005269050598144531
ell 105, elapsed: 0.00044608116149902344
ell 104, elapsed: 0.0004470348358154297
ell 103, elapsed: 0.0004401206970214844
ell 102, elapsed: 0.0006151199340820312
ell 101, elapsed: 0.0004968643188476562
ell 100, elapsed: 0.0004401206970214844
ell 99, elapsed: 0.00043201446533203125
ell 98, elapsed: 0.0005230903625488281
ell 97, elapsed: 0.0004379749298095703
ell 96, elapsed: 0.00043892860412597656
ell 95, elapsed: 0.0005948543548583984
ell 94, elapsed: 0.0005829334259033203
ell 93, elapsed: 0.0004410743713378906
ell 92, elapsed: 0.0005490779876708984
ell 91, elapsed: 0.0006330013275146484
ell 90, elapsed: 0.0005679130554199219
ell 89, elapsed: 0.0006010532379150391
ell 88, elapsed: 0.000614166259765625
ell 87, elapsed: 0.0006041526794433594
ell 86, elapsed: 0.0004940032958984375
ell 85, elapsed: 0.0005109310150146484
ell 84, elapsed: 0.0004448890686035156
ell 83, elapsed: 0.0006308555603027344
ell 82, elapsed: 0.0005481243133544922
ell 81, elapsed: 0.0006101131439208984
ell 80, elapsed: 0.0005130767822265625
ell 79, elapsed: 0.0006690025329589844
ell 78, elapsed: 0.0005857944488525391
ell 77, elapsed: 0.0005350112915039062
ell 76, elapsed: 0.00042891502380371094
ell 75, elapsed: 0.0005140304565429688
ell 74, elapsed: 0.0005910396575927734
ell 73, elapsed: 0.0004329681396484375
ell 72, elapsed: 0.0005259513854980469
ell 71, elapsed: 0.0006148815155029297
ell 70, elapsed: 0.0005068778991699219
ell 69, elapsed: 0.00043702125549316406
ell 68, elapsed: 0.0004451274871826172
ell 67, elapsed: 0.0004432201385498047
ell 66, elapsed: 0.0004298686981201172
ell 65, elapsed: 0.00043201446533203125
ell 64, elapsed: 0.0004589557647705078
ell 63, elapsed: 0.0004360675811767578
ell 62, elapsed: 0.0004470348358154297
ell 61, elapsed: 0.0004391670227050781
ell 60, elapsed: 0.00044798851013183594
ell 59, elapsed: 0.0004420280456542969
ell 58, elapsed: 0.00043892860412597656
ell 57, elapsed: 0.0004620552062988281
ell 56, elapsed: 0.0004429817199707031
ell 55, elapsed: 0.0004470348358154297
ell 54, elapsed: 0.00044608116149902344
ell 53, elapsed: 0.0004391670227050781
ell 52, elapsed: 0.00044798851013183594
ell 51, elapsed: 0.00044083595275878906
ell 50, elapsed: 0.0004439353942871094
ell 49, elapsed: 0.0004642009735107422
ell 48, elapsed: 0.0004429817199707031
ell 47, elapsed: 0.00044417381286621094
ell 46, elapsed: 0.00042700767517089844
ell 45, elapsed: 0.00043582916259765625
ell 44, elapsed: 0.0004401206970214844
ell 43, elapsed: 0.0006160736083984375
ell 42, elapsed: 0.0004949569702148438
ell 41, elapsed: 0.0004570484161376953
ell 40, elapsed: 0.0004420280456542969
ell 39, elapsed: 0.0005052089691162109
ell 38, elapsed: 0.0006070137023925781
ell 37, elapsed: 0.0004570484161376953
ell 36, elapsed: 0.0004432201385498047
ell 35, elapsed: 0.0004451274871826172
ell 34, elapsed: 0.00045299530029296875
ell 33, elapsed: 0.0004448890686035156
ell 32, elapsed: 0.0004429817199707031
ell 31, elapsed: 0.0004420280456542969
ell 30, elapsed: 0.00044608116149902344
ell 29, elapsed: 0.0004448890686035156
ell 28, elapsed: 0.0004999637603759766
ell 27, elapsed: 0.000701904296875
ell 26, elapsed: 0.0005300045013427734
ell 25, elapsed: 0.00044608116149902344
ell 24, elapsed: 0.0004410743713378906
ell 23, elapsed: 0.0004448890686035156
ell 22, elapsed: 0.0004401206970214844
ell 21, elapsed: 0.0004417896270751953
ell 20, elapsed: 0.0004410743713378906
ell 19, elapsed: 0.0004420280456542969
ell 18, elapsed: 0.0004570484161376953
ell 17, elapsed: 0.0004420280456542969
ell 16, elapsed: 0.0004420280456542969
ell 15, elapsed: 0.0004448890686035156
ell 14, elapsed: 0.0004401206970214844
ell 13, elapsed: 0.0004520416259765625
ell 12, elapsed: 0.0005559921264648438
ell 11, elapsed: 0.00055694580078125
ell 10, elapsed: 0.000453948974609375
ell 9, elapsed: 0.00044417381286621094
ell 8, elapsed: 0.0004451274871826172
ell 7, elapsed: 0.0004398822784423828
ell 6, elapsed: 0.0004420280456542969
ell 5, elapsed: 0.00044417381286621094
ell 4, elapsed: 0.0004398822784423828
ell 3, elapsed: 0.0004448890686035156
ell 2, elapsed: 0.00045609474182128906
ell 1, elapsed: 0.0004439353942871094
ell 0, elapsed: 0.0004520416259765625
  0.772524 seconds (103.70 k allocations: 3.971 MiB)
elapsed: 0.0005400180816650391
step:          0.081056 sec (0 allocations: 0 byte, 0.0% gc time)
swapping:      0.000777 sec (0 allocations: 0 byte, 0.0% gc time)
calc_Mellell!: 0.013473 sec (0 allocations: 0 byte, 0.0% gc time)
  t0 :  0.002413 sec (0 allocations: 0 byte, 0.0% gc time)
  tm2 : 0.114406 sec (0 allocations: 0 byte, 0.0% gc time)
  tm2s: 0.001746 sec (0 allocations: 0 byte, 0.0% gc time)
  tm4 : 0.323726 sec (0 allocations: 0 byte, 0.0% gc time)
  tp2 : 0.0 sec (0 allocations: 0 byte, 0.0% gc time)
  tp2s: 0.0 sec (0 allocations: 0 byte, 0.0% gc time)
  tp4 : 0.0 sec (0 allocations: 0 byte, 0.0% gc time)
calc_wtdll!:   0.470969 sec (9.9 k allocations: 1.047 MB, 0.0% gc time)
calc_wljj!:    0.050075 sec (689 allocations: 10.766 KB, 0.0% gc time)
mult_prefac!:  0.0 sec (0 allocations: 0 byte, 0.0% gc time)
convert:       0.0 sec (0 allocations: 0 byte, 0.0% gc time)
write:         0.052571 sec (0 allocations: 0 byte, 0.0% gc time)
test_rand_2f1: 0.0 sec (0 allocations: 0 byte, 0.0% gc time)
Closing outfile out/Ml21-cache.bin...   0.000006 seconds
  0.000653 seconds (36 allocations: 27.953 KiB)
make_phi():   0.002682 seconds (8.18 k allocations: 237.844 KiB)
  0.267148 seconds (141.90 k allocations: 3.483 MiB)
tskip:       0.00133 sec (0 allocations: 0 byte, 0.0% gc time)
tread:       0.034632 sec (17 allocations: 10.641 KB, 0.0% gc time)
tmultphi:    0.019685 sec (0 allocations: 0 byte, 0.0% gc time)
tbrfft:      0.064797 sec (0 allocations: 0 byte, 0.0% gc time)
tmultprefac: 0.04797 sec (0 allocations: 0 byte, 0.0% gc time)
toutfunc:    0.092521 sec (127.507 k allocations: 2.312 MB, 0.0% gc time)
Testing R=1.0 ... passed
Calculating fmax: 
  dlrec    = 4
  dlrecRg1 = -4
  q=1.1, R=0.9:	  0.515332 seconds (105.76 k allocations: 15.287 MiB, 3.62% gc time)

  0.515750 seconds (105.99 k allocations: 15.324 MiB, 3.62% gc time)
ℓ = 1202
Δℓ = 4
ΔℓRg1 = -4
N = 1600
q = 1.1
kmin = 1.0e-5
kmax = 100000.00000000004
χ0 = 0.023029999999999995
RR = RR.tsv
ℓmax = ℓmax.bin
f21 = f21.bin
kmin = 1.0e-5
kmax = 100000.0
dlrec    = 4
dlrecRg1 = -4
Output size: 5741568 bytes = 0.005347251892089844 GiB
Output size: 51264 bytes = 4.774332046508789e-5 GiB
Reading 'out/F21EllCache'...   0.001106 seconds (197 allocations: 84.203 KiB)
ellmax: 1202
lmaxcache: 1202
fell[:,1,1] = ComplexF64[1.3482014726274674e-57 - 3.302141236118086e-73im, 1.357860004724329e-57 - 3.3257978169518355e-73im]
ell 1202, elapsed: 2.9087066650390625e-5
ell 1201, elapsed: 0.0004239082336425781
ell 1200, elapsed: 0.0003790855407714844
ell 1199, elapsed: 0.0003790855407714844
ell 1198, elapsed: 0.00037789344787597656
ell 1002, elapsed: 0.011174201965332031
ell 1001, elapsed: 0.0004010200500488281
ell 1000, elapsed: 0.0003731250762939453
ell 999, elapsed: 0.0003750324249267578
ell 998, elapsed: 0.0003800392150878906
ell 902, elapsed: 0.005344867706298828
ell 901, elapsed: 0.0004010200500488281
ell 900, elapsed: 0.0003838539123535156
ell 899, elapsed: 0.0003800392150878906
ell 898, elapsed: 0.00038504600524902344
ell 802, elapsed: 0.005483865737915039
ell 801, elapsed: 0.0005350112915039062
ell 800, elapsed: 0.0004649162292480469
ell 799, elapsed: 0.0004971027374267578
ell 798, elapsed: 0.0004918575286865234
ell 702, elapsed: 0.009733915328979492
ell 701, elapsed: 0.0004000663757324219
ell 700, elapsed: 0.00038504600524902344
ell 699, elapsed: 0.0003819465637207031
ell 698, elapsed: 0.0003819465637207031
ell 602, elapsed: 0.005280017852783203
ell 601, elapsed: 0.0005090236663818359
ell 600, elapsed: 0.0004830360412597656
ell 599, elapsed: 0.00044798851013183594
ell 598, elapsed: 0.00044989585876464844
ell 502, elapsed: 0.005800962448120117
ell 501, elapsed: 0.00047707557678222656
ell 500, elapsed: 0.00047397613525390625
ell 499, elapsed: 0.0006561279296875
ell 498, elapsed: 0.0004711151123046875
ell 402, elapsed: 0.0053980350494384766
ell 401, elapsed: 0.0004918575286865234
ell 400, elapsed: 0.00047206878662109375
ell 399, elapsed: 0.000476837158203125
ell 398, elapsed: 0.00046515464782714844
ell 302, elapsed: 0.005437135696411133
ell 301, elapsed: 0.0004470348358154297
ell 300, elapsed: 0.0005350112915039062
ell 299, elapsed: 0.0004029273986816406
ell 298, elapsed: 0.0004038810729980469
ell 202, elapsed: 0.0057108402252197266
ell 201, elapsed: 0.0005819797515869141
ell 200, elapsed: 0.00040078163146972656
ell 199, elapsed: 0.0004019737243652344
ell 198, elapsed: 0.0003809928894042969
ell 152, elapsed: 0.0029420852661132812
ell 151, elapsed: 0.0004470348358154297
ell 150, elapsed: 0.0004088878631591797
ell 149, elapsed: 0.0004360675811767578
ell 148, elapsed: 0.0003819465637207031
ell 127, elapsed: 0.0015690326690673828
ell 126, elapsed: 0.0003829002380371094
ell 125, elapsed: 0.0003800392150878906
ell 124, elapsed: 0.0003781318664550781
ell 123, elapsed: 0.0003769397735595703
ell 114, elapsed: 0.0009260177612304688
ell 113, elapsed: 0.0003809928894042969
ell 112, elapsed: 0.00037598609924316406
ell 111, elapsed: 0.00037384033203125
ell 110, elapsed: 0.0003790855407714844
ell 102, elapsed: 0.0008521080017089844
ell 101, elapsed: 0.00037789344787597656
ell 100, elapsed: 0.0003941059112548828
ell 99, elapsed: 0.0003819465637207031
ell 98, elapsed: 0.0003800392150878906
ell 97, elapsed: 0.00046706199645996094
ell 96, elapsed: 0.00045800209045410156
ell 95, elapsed: 0.00045609474182128906
ell 94, elapsed: 0.0004551410675048828
ell 93, elapsed: 0.00045490264892578125
ell 92, elapsed: 0.0004639625549316406
ell 91, elapsed: 0.0004611015319824219
ell 90, elapsed: 0.0004429817199707031
ell 89, elapsed: 0.00044798851013183594
ell 88, elapsed: 0.0004489421844482422
ell 87, elapsed: 0.0005350112915039062
ell 86, elapsed: 0.00061798095703125
ell 85, elapsed: 0.00045990943908691406
ell 84, elapsed: 0.0004448890686035156
ell 83, elapsed: 0.0004451274871826172
ell 82, elapsed: 0.00044608116149902344
ell 81, elapsed: 0.00044608116149902344
ell 80, elapsed: 0.0004489421844482422
ell 79, elapsed: 0.0004470348358154297
ell 78, elapsed: 0.00043511390686035156
ell 77, elapsed: 0.0006110668182373047
ell 76, elapsed: 0.0005228519439697266
ell 75, elapsed: 0.0004429817199707031
ell 74, elapsed: 0.000453948974609375
ell 73, elapsed: 0.0004410743713378906
ell 72, elapsed: 0.0004489421844482422
ell 71, elapsed: 0.0004467964172363281
ell 70, elapsed: 0.00047516822814941406
ell 69, elapsed: 0.00045800209045410156
ell 68, elapsed: 0.0006060600280761719
ell 67, elapsed: 0.0005228519439697266
ell 66, elapsed: 0.00045013427734375
ell 65, elapsed: 0.00045013427734375
ell 64, elapsed: 0.00045299530029296875
ell 63, elapsed: 0.0004470348358154297
ell 62, elapsed: 0.004500150680541992
ell 61, elapsed: 0.0004570484161376953
ell 60, elapsed: 0.0004489421844482422
ell 59, elapsed: 0.00045299530029296875
ell 58, elapsed: 0.0004429817199707031
ell 57, elapsed: 0.000453948974609375
ell 56, elapsed: 0.0004458427429199219
ell 55, elapsed: 0.00046706199645996094
ell 54, elapsed: 0.0004489421844482422
ell 53, elapsed: 0.00044798851013183594
ell 52, elapsed: 0.0005660057067871094
ell 51, elapsed: 0.0005288124084472656
ell 50, elapsed: 0.00044608116149902344
ell 49, elapsed: 0.0004520416259765625
ell 48, elapsed: 0.0004439353942871094
ell 47, elapsed: 0.0004749298095703125
ell 46, elapsed: 0.0004429817199707031
ell 45, elapsed: 0.0004520416259765625
ell 44, elapsed: 0.00045108795166015625
ell 43, elapsed: 0.0004482269287109375
ell 42, elapsed: 0.0004520416259765625
ell 41, elapsed: 0.00045609474182128906
ell 40, elapsed: 0.00044083595275878906
ell 39, elapsed: 0.0004601478576660156
ell 38, elapsed: 0.0004439353942871094
ell 37, elapsed: 0.00044798851013183594
ell 36, elapsed: 0.0004451274871826172
ell 35, elapsed: 0.0004429817199707031
ell 34, elapsed: 0.0004489421844482422
ell 33, elapsed: 0.0004489421844482422
ell 32, elapsed: 0.0005600452423095703
ell 31, elapsed: 0.0005719661712646484
ell 30, elapsed: 0.0005581378936767578
ell 29, elapsed: 0.0005719661712646484
ell 28, elapsed: 0.0004470348358154297
ell 27, elapsed: 0.00045800209045410156
ell 26, elapsed: 0.0004451274871826172
ell 25, elapsed: 0.00046706199645996094
ell 24, elapsed: 0.0005438327789306641
ell 23, elapsed: 0.0005848407745361328
ell 22, elapsed: 0.00045609474182128906
ell 21, elapsed: 0.0004451274871826172
ell 20, elapsed: 0.0004470348358154297
ell 19, elapsed: 0.00045108795166015625
ell 18, elapsed: 0.00045013427734375
ell 17, elapsed: 0.00046896934509277344
ell 16, elapsed: 0.00045108795166015625
ell 15, elapsed: 0.00043702125549316406
ell 14, elapsed: 0.00045108795166015625
ell 13, elapsed: 0.00045013427734375
ell 12, elapsed: 0.0004570484161376953
ell 11, elapsed: 0.0004439353942871094
ell 10, elapsed: 0.0004558563232421875
ell 9, elapsed: 0.0004658699035644531
ell 8, elapsed: 0.00045108795166015625
ell 7, elapsed: 0.000453948974609375
ell 6, elapsed: 0.0004489421844482422
ell 5, elapsed: 0.0004448890686035156
ell 4, elapsed: 0.00045013427734375
ell 3, elapsed: 0.0004398822784423828
ell 2, elapsed: 0.0004439353942871094
ell 1, elapsed: 0.0004470348358154297
ell 0, elapsed: 0.0004489421844482422
  0.156977 seconds (19.62 k allocations: 846.344 KiB)
elapsed: 0.0005230903625488281
step:          0.066154 sec (0 allocations: 0 byte, 0.0% gc time)
swapping:      0.000526 sec (0 allocations: 0 byte, 0.0% gc time)
calc_Mellell!: 0.001852 sec (0 allocations: 0 byte, 0.0% gc time)
  t0 :  0.000336 sec (0 allocations: 0 byte, 0.0% gc time)
  tm2 : 0.017757 sec (0 allocations: 0 byte, 0.0% gc time)
  tm2s: 0.000265 sec (0 allocations: 0 byte, 0.0% gc time)
  tm4 : 0.035461 sec (0 allocations: 0 byte, 0.0% gc time)
  tp2 : 0.0 sec (0 allocations: 0 byte, 0.0% gc time)
  tp2s: 0.0 sec (0 allocations: 0 byte, 0.0% gc time)
  tp4 : 0.0 sec (0 allocations: 0 byte, 0.0% gc time)
calc_wtdll!:   0.054568 sec (1.344 k allocations: 147.0 KB, 0.0% gc time)
calc_wljj!:    0.003585 sec (6 allocations: 96 byte, 0.0% gc time)
mult_prefac!:  0.0 sec (0 allocations: 0 byte, 0.0% gc time)
convert:       0.0 sec (0 allocations: 0 byte, 0.0% gc time)
write:         0.004489 sec (0 allocations: 0 byte, 0.0% gc time)
test_rand_2f1: 0.0 sec (0 allocations: 0 byte, 0.0% gc time)
Closing outfile out/Ml21-cache.bin...   0.000007 seconds
  0.000596 seconds (36 allocations: 27.953 KiB)
make_phi():   0.002804 seconds (8.18 k allocations: 237.844 KiB)
  0.023822 seconds (11.65 k allocations: 308.688 KiB)
tskip:       2.7e-5 sec (0 allocations: 0 byte, 0.0% gc time)
tread:       0.003438 sec (17 allocations: 2.125 KB, 0.0% gc time)
tmultphi:    0.001696 sec (0 allocations: 0 byte, 0.0% gc time)
tbrfft:      0.005984 sec (0 allocations: 0 byte, 0.0% gc time)
tmultprefac: 0.003958 sec (0 allocations: 0 byte, 0.0% gc time)
toutfunc:    0.008168 sec (10.304 k allocations: 196.0 KB, 0.0% gc time)
Testing R=0.9 ... passed
Calculating fmax: 
  dlrec    = 4
  dlrecRg1 = -4
  q=1.1, R=0.8:	  0.391163 seconds (103.25 k allocations: 14.856 MiB)

  0.393790 seconds (103.48 k allocations: 14.893 MiB)
ℓ = 1202
Δℓ = 4
ΔℓRg1 = -4
N = 1600
q = 1.1
kmin = 1.0e-5
kmax = 100000.00000000004
χ0 = 0.023029999999999995
RR = RR.tsv
ℓmax = ℓmax.bin
f21 = f21.bin
kmin = 1.0e-5
kmax = 100000.0
dlrec    = 4
dlrecRg1 = -4
Output size: 5741568 bytes = 0.005347251892089844 GiB
Output size: 51264 bytes = 4.774332046508789e-5 GiB
Reading 'out/F21EllCache'...   0.001295 seconds (197 allocations: 84.203 KiB)
ellmax: 1202
lmaxcache: 1202
fell[:,1,1] = ComplexF64[7.519068145690986e-120 - 1.8416405474382574e-135im, 7.541664537386155e-120 - 1.847175067190611e-135im]
ell 1202, elapsed: 0.00012612342834472656
ell 1201, elapsed: 0.0010061264038085938
ell 1200, elapsed: 0.0009191036224365234
ell 1199, elapsed: 0.0006639957427978516
ell 1198, elapsed: 0.0008749961853027344
ell 1002, elapsed: 0.01213693618774414
ell 1001, elapsed: 0.0007519721984863281
ell 1000, elapsed: 0.0005140304565429688
ell 999, elapsed: 0.0006210803985595703
ell 998, elapsed: 0.0005910396575927734
ell 902, elapsed: 0.006128072738647461
ell 901, elapsed: 0.00072479248046875
ell 900, elapsed: 0.0005600452423095703
ell 899, elapsed: 0.0004649162292480469
ell 898, elapsed: 0.0005340576171875
ell 802, elapsed: 0.005697965621948242
ell 801, elapsed: 0.0006771087646484375
ell 800, elapsed: 0.0004930496215820312
ell 799, elapsed: 0.00039005279541015625
ell 798, elapsed: 0.0004999637603759766
ell 702, elapsed: 0.005789041519165039
ell 701, elapsed: 0.0005998611450195312
ell 700, elapsed: 0.0005140304565429688
ell 699, elapsed: 0.0005509853363037109
ell 698, elapsed: 0.0006680488586425781
ell 602, elapsed: 0.006264925003051758
ell 601, elapsed: 0.0004551410675048828
ell 600, elapsed: 0.0004367828369140625
ell 599, elapsed: 0.00043487548828125
ell 598, elapsed: 0.0006120204925537109
ell 502, elapsed: 0.0054171085357666016
ell 501, elapsed: 0.0004589557647705078
ell 500, elapsed: 0.00045490264892578125
ell 499, elapsed: 0.0004448890686035156
ell 498, elapsed: 0.000637054443359375
ell 402, elapsed: 0.005990028381347656
ell 401, elapsed: 0.0004470348358154297
ell 400, elapsed: 0.000640869140625
ell 399, elapsed: 0.0004489421844482422
ell 398, elapsed: 0.00045013427734375
ell 302, elapsed: 0.005393028259277344
ell 301, elapsed: 0.00047516822814941406
ell 300, elapsed: 0.0004220008850097656
ell 299, elapsed: 0.0004360675811767578
ell 298, elapsed: 0.0004220008850097656
ell 202, elapsed: 0.005339860916137695
ell 201, elapsed: 0.0006499290466308594
ell 200, elapsed: 0.0004889965057373047
ell 199, elapsed: 0.0004401206970214844
ell 198, elapsed: 0.00041794776916503906
ell 152, elapsed: 0.0028259754180908203
ell 151, elapsed: 0.00043702125549316406
ell 150, elapsed: 0.0004401206970214844
ell 149, elapsed: 0.00045013427734375
ell 148, elapsed: 0.0005509853363037109
ell 127, elapsed: 0.0016548633575439453
ell 126, elapsed: 0.0004780292510986328
ell 125, elapsed: 0.00047016143798828125
ell 124, elapsed: 0.00046896934509277344
ell 123, elapsed: 0.00047016143798828125
ell 114, elapsed: 0.0010190010070800781
ell 113, elapsed: 0.0004780292510986328
ell 112, elapsed: 0.0006740093231201172
ell 111, elapsed: 0.0004699230194091797
ell 110, elapsed: 0.00046896934509277344
ell 102, elapsed: 0.0010890960693359375
ell 101, elapsed: 0.000640869140625
ell 100, elapsed: 0.0007619857788085938
ell 99, elapsed: 0.00047397613525390625
ell 98, elapsed: 0.0005960464477539062
ell 97, elapsed: 0.0005819797515869141
ell 96, elapsed: 0.0004889965057373047
ell 95, elapsed: 0.0004889965057373047
ell 94, elapsed: 0.0004868507385253906
ell 93, elapsed: 0.00049591064453125
ell 92, elapsed: 0.0007350444793701172
ell 91, elapsed: 0.0005559921264648438
ell 90, elapsed: 0.0005331039428710938
ell 89, elapsed: 0.0005319118499755859
ell 88, elapsed: 0.0005249977111816406
ell 87, elapsed: 0.00055694580078125
ell 86, elapsed: 0.0007071495056152344
ell 85, elapsed: 0.0005788803100585938
ell 84, elapsed: 0.0005230903625488281
ell 83, elapsed: 0.0004870891571044922
ell 82, elapsed: 0.0005381107330322266
ell 81, elapsed: 0.0005681514739990234
ell 80, elapsed: 0.0007958412170410156
ell 79, elapsed: 0.000537872314453125
ell 78, elapsed: 0.0005431175231933594
ell 77, elapsed: 0.0005249977111816406
ell 76, elapsed: 0.0005261898040771484
ell 75, elapsed: 0.0005230903625488281
ell 74, elapsed: 0.0005290508270263672
ell 73, elapsed: 0.00055694580078125
ell 72, elapsed: 0.0005769729614257812
ell 71, elapsed: 0.0007719993591308594
ell 70, elapsed: 0.0007729530334472656
ell 69, elapsed: 0.0007040500640869141
ell 68, elapsed: 0.0007889270782470703
ell 67, elapsed: 0.0006670951843261719
ell 66, elapsed: 0.0005447864532470703
ell 65, elapsed: 0.0007681846618652344
ell 64, elapsed: 0.0005497932434082031
ell 63, elapsed: 0.0005540847778320312
ell 62, elapsed: 0.0007941722869873047
ell 61, elapsed: 0.0006878376007080078
ell 60, elapsed: 0.0005371570587158203
ell 59, elapsed: 0.0007610321044921875
ell 58, elapsed: 0.0006749629974365234
ell 57, elapsed: 0.0005588531494140625
ell 56, elapsed: 0.0007910728454589844
ell 55, elapsed: 0.0006129741668701172
ell 54, elapsed: 0.0005879402160644531
ell 53, elapsed: 0.000782012939453125
ell 52, elapsed: 0.0007498264312744141
ell 51, elapsed: 0.0007088184356689453
ell 50, elapsed: 0.0007970333099365234
ell 49, elapsed: 0.0007839202880859375
ell 48, elapsed: 0.0007269382476806641
ell 47, elapsed: 0.0007948875427246094
ell 46, elapsed: 0.0008158683776855469
ell 45, elapsed: 0.0008029937744140625
ell 44, elapsed: 0.0007910728454589844
ell 43, elapsed: 0.00080108642578125
ell 42, elapsed: 0.0008089542388916016
ell 41, elapsed: 0.0007870197296142578
ell 40, elapsed: 0.0007970333099365234
[...]
ell 789, elapsed: 0.0009160041809082031
ell 788, elapsed: 0.0009171962738037109
ell 782, elapsed: 0.0016510486602783203
ell 781, elapsed: 0.0009260177612304688
ell 780, elapsed: 0.0009171962738037109
ell 779, elapsed: 0.0009138584136962891
ell 778, elapsed: 0.0009090900421142578
ell 772, elapsed: 0.001783132553100586
ell 771, elapsed: 0.0009241104125976562
ell 770, elapsed: 0.0009210109710693359
ell 769, elapsed: 0.0009140968322753906
ell 768, elapsed: 0.0009129047393798828
ell 762, elapsed: 0.0016591548919677734
ell 761, elapsed: 0.0009698867797851562
ell 760, elapsed: 0.0009069442749023438
ell 759, elapsed: 0.0011849403381347656
ell 758, elapsed: 0.0009028911590576172
ell 752, elapsed: 0.0016901493072509766
ell 751, elapsed: 0.0009031295776367188
ell 750, elapsed: 0.0009028911590576172
ell 749, elapsed: 0.0009200572967529297
ell 748, elapsed: 0.0009379386901855469
ell 742, elapsed: 0.0016379356384277344
ell 741, elapsed: 0.0009150505065917969
ell 740, elapsed: 0.0008862018585205078
ell 739, elapsed: 0.0009119510650634766
ell 738, elapsed: 0.0009171962738037109
ell 732, elapsed: 0.0016520023345947266
ell 731, elapsed: 0.0009009838104248047
ell 730, elapsed: 0.0009150505065917969
ell 729, elapsed: 0.0008878707885742188
ell 728, elapsed: 0.000904083251953125
ell 722, elapsed: 0.0016698837280273438
ell 721, elapsed: 0.0009138584136962891
ell 720, elapsed: 0.0009281635284423828
ell 719, elapsed: 0.0008981227874755859
ell 718, elapsed: 0.0009069442749023438
ell 712, elapsed: 0.0016579627990722656
ell 711, elapsed: 0.0009059906005859375
ell 710, elapsed: 0.0009148120880126953
ell 709, elapsed: 0.0008981227874755859
ell 708, elapsed: 0.0009140968322753906
ell 702, elapsed: 0.001627206802368164
ell 701, elapsed: 0.00092315673828125
ell 700, elapsed: 0.000904083251953125
ell 699, elapsed: 0.0009081363677978516
ell 698, elapsed: 0.0008921623229980469
ell 692, elapsed: 0.0016529560089111328
ell 691, elapsed: 0.0009219646453857422
ell 690, elapsed: 0.0009069442749023438
ell 689, elapsed: 0.0008978843688964844
ell 688, elapsed: 0.0009031295776367188
ell 682, elapsed: 0.0016520023345947266
ell 681, elapsed: 0.0009000301361083984
ell 680, elapsed: 0.001087188720703125
ell 679, elapsed: 0.0008628368377685547
ell 678, elapsed: 0.0009100437164306641
ell 672, elapsed: 0.0016200542449951172
ell 671, elapsed: 0.0008978843688964844
ell 670, elapsed: 0.0008990764617919922
ell 669, elapsed: 0.0008909702301025391
ell 668, elapsed: 0.0009119510650634766
ell 662, elapsed: 0.0016579627990722656
ell 661, elapsed: 0.0009000301361083984
ell 660, elapsed: 0.0009131431579589844
ell 659, elapsed: 0.0009000301361083984
ell 658, elapsed: 0.0008959770202636719
ell 652, elapsed: 0.001522064208984375
ell 651, elapsed: 0.0008699893951416016
ell 650, elapsed: 0.0009331703186035156
ell 649, elapsed: 0.0008749961853027344
ell 648, elapsed: 0.0008759498596191406
ell 642, elapsed: 0.0018279552459716797
ell 641, elapsed: 0.000881195068359375
ell 640, elapsed: 0.000926971435546875
ell 639, elapsed: 0.0009210109710693359
ell 638, elapsed: 0.00090789794921875
ell 632, elapsed: 0.0015530586242675781
ell 631, elapsed: 0.0008912086486816406
ell 630, elapsed: 0.0008759498596191406
ell 629, elapsed: 0.0008721351623535156
ell 628, elapsed: 0.0008862018585205078
ell 622, elapsed: 0.0015730857849121094
ell 621, elapsed: 0.0008630752563476562
ell 620, elapsed: 0.0009028911590576172
ell 619, elapsed: 0.0009391307830810547
ell 618, elapsed: 0.0008950233459472656
ell 612, elapsed: 0.001611948013305664
ell 611, elapsed: 0.0008740425109863281
ell 610, elapsed: 0.001055002212524414
ell 609, elapsed: 0.00090789794921875
ell 608, elapsed: 0.0009000301361083984
ell 602, elapsed: 0.0016868114471435547
ell 601, elapsed: 0.0008950233459472656
ell 600, elapsed: 0.0009310245513916016
ell 599, elapsed: 0.000926971435546875
ell 598, elapsed: 0.0009031295776367188
ell 592, elapsed: 0.0016300678253173828
ell 591, elapsed: 0.0008809566497802734
ell 590, elapsed: 0.0008959770202636719
ell 589, elapsed: 0.0008940696716308594
ell 588, elapsed: 0.0008909702301025391
ell 582, elapsed: 0.0018448829650878906
ell 581, elapsed: 0.0008521080017089844
ell 580, elapsed: 0.0009028911590576172
ell 579, elapsed: 0.0009009838104248047
ell 578, elapsed: 0.0009059906005859375
ell 572, elapsed: 0.0016391277313232422
ell 571, elapsed: 0.0008840560913085938
ell 570, elapsed: 0.0009129047393798828
ell 569, elapsed: 0.0009160041809082031
ell 568, elapsed: 0.0008959770202636719
ell 562, elapsed: 0.0017418861389160156
ell 561, elapsed: 0.0008769035339355469
ell 560, elapsed: 0.0009021759033203125
ell 559, elapsed: 0.0008969306945800781
ell 558, elapsed: 0.0009419918060302734
ell 552, elapsed: 0.0018739700317382812
ell 551, elapsed: 0.0008509159088134766
ell 550, elapsed: 0.0009500980377197266
ell 549, elapsed: 0.0009410381317138672
ell 548, elapsed: 0.0009491443634033203
ell 542, elapsed: 0.0017747879028320312
ell 541, elapsed: 0.0008580684661865234
ell 540, elapsed: 0.0008759498596191406
ell 539, elapsed: 0.0009050369262695312
ell 538, elapsed: 0.0009088516235351562
ell 532, elapsed: 0.0016531944274902344
ell 531, elapsed: 0.0009050369262695312
ell 530, elapsed: 0.0009131431579589844
ell 529, elapsed: 0.0008940696716308594
ell 528, elapsed: 0.0008959770202636719
ell 522, elapsed: 0.0016760826110839844
ell 521, elapsed: 0.0009081363677978516
ell 520, elapsed: 0.0009028911590576172
ell 519, elapsed: 0.0009219646453857422
ell 518, elapsed: 0.0009019374847412109
ell 512, elapsed: 0.001667022705078125
ell 511, elapsed: 0.0009169578552246094
ell 510, elapsed: 0.0009021759033203125
ell 509, elapsed: 0.0008950233459472656
ell 508, elapsed: 0.0008990764617919922
ell 502, elapsed: 0.0016679763793945312
ell 501, elapsed: 0.0009090900421142578
ell 500, elapsed: 0.0009319782257080078
ell 499, elapsed: 0.0009250640869140625
ell 498, elapsed: 0.0008950233459472656
ell 492, elapsed: 0.001689910888671875
ell 491, elapsed: 0.0009109973907470703
ell 490, elapsed: 0.0008950233459472656
ell 489, elapsed: 0.0009100437164306641
ell 488, elapsed: 0.000926971435546875
ell 482, elapsed: 0.0016489028930664062
ell 481, elapsed: 0.0009369850158691406
ell 480, elapsed: 0.0009009838104248047
ell 479, elapsed: 0.0009150505065917969
ell 478, elapsed: 0.0008971691131591797
ell 472, elapsed: 0.0016667842864990234
ell 471, elapsed: 0.0009019374847412109
ell 470, elapsed: 0.0009360313415527344
ell 469, elapsed: 0.0009009838104248047
ell 468, elapsed: 0.0009169578552246094
ell 462, elapsed: 0.0016589164733886719
ell 461, elapsed: 0.0009019374847412109
ell 460, elapsed: 0.0009000301361083984
ell 459, elapsed: 0.0009198188781738281
ell 458, elapsed: 0.0009109973907470703
ell 452, elapsed: 0.0016491413116455078
ell 451, elapsed: 0.0009119510650634766
ell 450, elapsed: 0.0009000301361083984
ell 449, elapsed: 0.000904083251953125
ell 448, elapsed: 0.000904083251953125
ell 442, elapsed: 0.0016720294952392578
ell 441, elapsed: 0.00090789794921875
ell 440, elapsed: 0.0009028911590576172
ell 439, elapsed: 0.0008962154388427734
ell 438, elapsed: 0.000926971435546875
ell 432, elapsed: 0.0016400814056396484
ell 431, elapsed: 0.0008928775787353516
ell 430, elapsed: 0.0009031295776367188
ell 429, elapsed: 0.0009109973907470703
ell 428, elapsed: 0.000946044921875
ell 422, elapsed: 0.0016520023345947266
ell 421, elapsed: 0.0008969306945800781
ell 420, elapsed: 0.0009031295776367188
ell 419, elapsed: 0.0008978843688964844
ell 418, elapsed: 0.0008990764617919922
ell 412, elapsed: 0.0016489028930664062
ell 411, elapsed: 0.0008990764617919922
ell 410, elapsed: 0.0009160041809082031
ell 409, elapsed: 0.0009100437164306641
ell 408, elapsed: 0.0008978843688964844
ell 402, elapsed: 0.0016660690307617188
ell 401, elapsed: 0.0009059906005859375
ell 400, elapsed: 0.0009450912475585938
ell 399, elapsed: 0.0009100437164306641
ell 398, elapsed: 0.0009319782257080078
ell 392, elapsed: 0.0016410350799560547
ell 391, elapsed: 0.0009031295776367188
ell 390, elapsed: 0.0009169578552246094
ell 389, elapsed: 0.0009028911590576172
ell 388, elapsed: 0.0009200572967529297
ell 382, elapsed: 0.0016331672668457031
ell 381, elapsed: 0.0008990764617919922
ell 380, elapsed: 0.0009140968322753906
ell 379, elapsed: 0.0008900165557861328
ell 378, elapsed: 0.0009019374847412109
ell 372, elapsed: 0.0016710758209228516
ell 371, elapsed: 0.0009129047393798828
ell 370, elapsed: 0.0008981227874755859
ell 369, elapsed: 0.0009169578552246094
ell 368, elapsed: 0.0009100437164306641
ell 362, elapsed: 0.0016400814056396484
ell 361, elapsed: 0.0009241104125976562
ell 360, elapsed: 0.0011060237884521484
ell 359, elapsed: 0.0008611679077148438
ell 358, elapsed: 0.0008990764617919922
ell 352, elapsed: 0.0016307830810546875
ell 351, elapsed: 0.0008978843688964844
ell 350, elapsed: 0.0008921623229980469
ell 349, elapsed: 0.0009009838104248047
ell 348, elapsed: 0.0009329319000244141
ell 342, elapsed: 0.0016548633575439453
ell 341, elapsed: 0.0008699893951416016
ell 340, elapsed: 0.0009200572967529297
ell 339, elapsed: 0.0009028911590576172
ell 338, elapsed: 0.0009009838104248047
ell 332, elapsed: 0.0016269683837890625
ell 331, elapsed: 0.0009019374847412109
ell 330, elapsed: 0.0009489059448242188
ell 329, elapsed: 0.0008988380432128906
ell 328, elapsed: 0.0009009838104248047
ell 322, elapsed: 0.0016200542449951172
ell 321, elapsed: 0.0008909702301025391
ell 320, elapsed: 0.0008981227874755859
ell 319, elapsed: 0.0009119510650634766
ell 318, elapsed: 0.0008959770202636719
ell 312, elapsed: 0.0016338825225830078
ell 311, elapsed: 0.0008988380432128906
ell 310, elapsed: 0.0008969306945800781
ell 309, elapsed: 0.0008990764617919922
ell 308, elapsed: 0.0009169578552246094
ell 302, elapsed: 0.0016388893127441406
ell 301, elapsed: 0.0009169578552246094
ell 300, elapsed: 0.0009288787841796875
ell 299, elapsed: 0.0009160041809082031
ell 298, elapsed: 0.0008990764617919922
ell 292, elapsed: 0.0015120506286621094
ell 291, elapsed: 0.0010509490966796875
ell 290, elapsed: 0.0009229183197021484
ell 289, elapsed: 0.0008931159973144531
ell 288, elapsed: 0.0009009838104248047
ell 282, elapsed: 0.0015380382537841797
ell 281, elapsed: 0.0009012222290039062
ell 280, elapsed: 0.00090789794921875
ell 279, elapsed: 0.0008819103240966797
ell 278, elapsed: 0.0008981227874755859
ell 272, elapsed: 0.0017380714416503906
ell 271, elapsed: 0.0008130073547363281
ell 270, elapsed: 0.0008759498596191406
ell 269, elapsed: 0.0008759498596191406
ell 268, elapsed: 0.0009119510650634766
ell 262, elapsed: 0.001580953598022461
ell 261, elapsed: 0.0008668899536132812
ell 260, elapsed: 0.0008680820465087891
ell 259, elapsed: 0.0008950233459472656
ell 258, elapsed: 0.0009229183197021484
ell 252, elapsed: 0.0015909671783447266
ell 251, elapsed: 0.0008969306945800781
ell 250, elapsed: 0.0009050369262695312
ell 249, elapsed: 0.0009100437164306641
ell 248, elapsed: 0.0009140968322753906
ell 242, elapsed: 0.0015819072723388672
ell 241, elapsed: 0.0009090900421142578
ell 240, elapsed: 0.0009150505065917969
ell 239, elapsed: 0.0009059906005859375
ell 238, elapsed: 0.0008947849273681641
ell 232, elapsed: 0.0015759468078613281
ell 231, elapsed: 0.0008718967437744141
ell 230, elapsed: 0.0008800029754638672
ell 229, elapsed: 0.0008950233459472656
ell 228, elapsed: 0.0009450912475585938
ell 222, elapsed: 0.0015399456024169922
ell 221, elapsed: 0.0008959770202636719
ell 220, elapsed: 0.0008969306945800781
ell 219, elapsed: 0.0008978843688964844
ell 218, elapsed: 0.0009028911590576172
ell 212, elapsed: 0.0016379356384277344
ell 211, elapsed: 0.0008940696716308594
ell 210, elapsed: 0.000904083251953125
ell 209, elapsed: 0.000885009765625
ell 208, elapsed: 0.0008878707885742188
ell 202, elapsed: 0.0016450881958007812
ell 201, elapsed: 0.0009098052978515625
ell 200, elapsed: 0.0008988380432128906
ell 199, elapsed: 0.0009119510650634766
ell 198, elapsed: 0.0008950233459472656
ell 192, elapsed: 0.0016579627990722656
ell 191, elapsed: 0.0009059906005859375
ell 190, elapsed: 0.0008628368377685547
ell 189, elapsed: 0.0008990764617919922
ell 188, elapsed: 0.0009150505065917969
ell 182, elapsed: 0.0016407966613769531
ell 181, elapsed: 0.0008959770202636719
ell 180, elapsed: 0.0009109973907470703
ell 179, elapsed: 0.0009100437164306641
ell 178, elapsed: 0.0008800029754638672
ell 172, elapsed: 0.00164794921875
ell 171, elapsed: 0.0009009838104248047
ell 170, elapsed: 0.0009198188781738281
ell 169, elapsed: 0.0008940696716308594
ell 168, elapsed: 0.0008950233459472656
ell 162, elapsed: 0.0016260147094726562
ell 161, elapsed: 0.0009181499481201172
ell 160, elapsed: 0.0009109973907470703
ell 159, elapsed: 0.0011799335479736328
ell 158, elapsed: 0.0008959770202636719
ell 152, elapsed: 0.0016200542449951172
ell 151, elapsed: 0.0008981227874755859
ell 150, elapsed: 0.0009148120880126953
ell 149, elapsed: 0.0008950233459472656
ell 148, elapsed: 0.0009250640869140625
ell 142, elapsed: 0.0016698837280273438
ell 141, elapsed: 0.0009109973907470703
ell 140, elapsed: 0.0009160041809082031
ell 139, elapsed: 0.0009109973907470703
ell 138, elapsed: 0.0009109973907470703
ell 132, elapsed: 0.001837015151977539
ell 131, elapsed: 0.0008671283721923828
ell 130, elapsed: 0.0009140968322753906
ell 129, elapsed: 0.000926971435546875
ell 128, elapsed: 0.0009160041809082031
ell 122, elapsed: 0.0016448497772216797
ell 121, elapsed: 0.0009000301361083984
ell 120, elapsed: 0.0008950233459472656
ell 119, elapsed: 0.0008938312530517578
ell 118, elapsed: 0.0008878707885742188
ell 112, elapsed: 0.0016179084777832031
ell 111, elapsed: 0.0009109973907470703
ell 110, elapsed: 0.0008981227874755859
ell 109, elapsed: 0.0009219646453857422
ell 108, elapsed: 0.0009272098541259766
ell 102, elapsed: 0.00164794921875
ell 101, elapsed: 0.003450155258178711
ell 100, elapsed: 0.003470897674560547
ell 99, elapsed: 0.003443002700805664
ell 98, elapsed: 0.003450155258178711
ell 92, elapsed: 0.006314992904663086
ell 91, elapsed: 0.003470897674560547
ell 90, elapsed: 0.0034978389739990234
ell 89, elapsed: 0.00347900390625
ell 88, elapsed: 0.003487825393676758
ell 82, elapsed: 0.006443023681640625
ell 81, elapsed: 0.0034639835357666016
ell 80, elapsed: 0.003493785858154297
ell 79, elapsed: 0.0035028457641601562
ell 78, elapsed: 0.003481149673461914
ell 72, elapsed: 0.0062808990478515625
ell 71, elapsed: 0.0034749507904052734
ell 70, elapsed: 0.003504037857055664
ell 69, elapsed: 0.0034990310668945312
ell 68, elapsed: 0.003960847854614258
ell 62, elapsed: 0.006500959396362305
ell 61, elapsed: 0.003461122512817383
ell 60, elapsed: 0.0034990310668945312
ell 59, elapsed: 0.003779888153076172
ell 58, elapsed: 0.0035059452056884766
ell 52, elapsed: 0.006489992141723633
ell 51, elapsed: 0.003412008285522461
ell 50, elapsed: 0.0035049915313720703
ell 49, elapsed: 0.0035049915313720703
ell 48, elapsed: 0.0035560131072998047
ell 42, elapsed: 0.006285190582275391
ell 41, elapsed: 0.0034780502319335938
ell 40, elapsed: 0.0034978389739990234
ell 39, elapsed: 0.0035109519958496094
ell 38, elapsed: 0.003509044647216797
ell 32, elapsed: 0.0063588619232177734
ell 31, elapsed: 0.003473043441772461
ell 30, elapsed: 0.003531932830810547
ell 29, elapsed: 0.0035338401794433594
ell 28, elapsed: 0.003528118133544922
ell 22, elapsed: 0.006365060806274414
ell 21, elapsed: 0.0034830570220947266
ell 20, elapsed: 0.003545999526977539
ell 19, elapsed: 0.0035130977630615234
ell 18, elapsed: 0.0037689208984375
ell 12, elapsed: 0.006658077239990234
ell 11, elapsed: 0.00347900390625
ell 10, elapsed: 0.003695964813232422
ell 9, elapsed: 0.0034508705139160156
ell 8, elapsed: 0.0035309791564941406
  1.029829 seconds (97.48 k allocations: 12.617 MiB)
elapsed: 0.004826068878173828
step:          0.064768 sec (0 allocations: 0 byte, 0.0% gc time)
swapping:      0.000666 sec (0 allocations: 0 byte, 0.0% gc time)
calc_Mellell!: 0.043645 sec (0 allocations: 0 byte, 0.0% gc time)
  t0 :  0.009793 sec (0 allocations: 0 byte, 0.0% gc time)
  tm2 : 0.074656 sec (0 allocations: 0 byte, 0.0% gc time)
  tm2s: 0.007827 sec (0 allocations: 0 byte, 0.0% gc time)
  tm4 : 0.181229 sec (0 allocations: 0 byte, 0.0% gc time)
  tp2 : 0.0 sec (0 allocations: 0 byte, 0.0% gc time)
  tp2s: 0.0 sec (0 allocations: 0 byte, 0.0% gc time)
  tp4 : 0.0 sec (0 allocations: 0 byte, 0.0% gc time)
calc_wtdll!:   0.53839 sec (48.6 k allocations: 11.096 MB, 0.0% gc time)
calc_wljj!:    0.040988 sec (69 allocations: 1.078 KB, 0.0% gc time)
mult_prefac!:  0.0 sec (0 allocations: 0 byte, 0.0% gc time)
convert:       0.0 sec (0 allocations: 0 byte, 0.0% gc time)
write:         0.033871 sec (0 allocations: 0 byte, 0.0% gc time)
test_rand_2f1: 0.0 sec (0 allocations: 0 byte, 0.0% gc time)
Closing outfile out/MlCache/MlCache.bin...   0.000007 seconds
xi, l=0, nu=0:   0.337996 seconds (602.92 k allocations: 32.938 MiB)
xi, l=0, nu=-2:  0.002206 seconds (114 allocations: 148.969 KiB)
Created 'out/xi.tsv'.
  q=1.1, R=0.6:	  0.617083 seconds (264.52 k allocations: 38.099 MiB)
  q=1.1, R=0.7:	  0.768585 seconds (276.46 k allocations: 40.114 MiB, 2.19% gc time)
  q=1.1, R=0.8:	  0.813256 seconds (271.68 k allocations: 39.302 MiB, 1.39% gc time)
  q=1.1, R=0.9:	  0.992694 seconds (266.62 k allocations: 38.459 MiB, 0.79% gc time)
  q=1.1, R=0.998:	 21.381308 seconds (114.96 k allocations: 7.588 MiB)
  q=1.1, R=1.0:	  0.004772 seconds (8.20 k allocations: 704.344 KiB)

ℓ = 1000
Δℓ = 4
ΔℓRg1 = -4
N = 4096
q = 1.1
kmin = 1.0e-5
kmax = 1000.0
χ0 = 0.001
RR = RR.tsv
ℓmax = ℓmax.bin
f21 = f21.bin
kmin = 1.0e-5
kmax = 1000.0
dlrec    = 4
dlrecRg1 = -4
Output size: 1573632 bytes = 0.0014655590057373047 GiB
Output size: 786816 bytes = 0.0007327795028686523 GiB
Reading 'out/F21EllCache'...   0.001859 seconds (198 allocations: 533.078 KiB)
ellmax: 1002
lmaxcache: 1000
fell[:,1,1] = ComplexF64[1.7262928128202118e-224 - 4.2281979352226944e-240im, 1.7282693092099662e-224 - 4.233038955177176e-240im]
ell 1002, elapsed: 9.202957153320312e-5
ell 1001, elapsed: 0.001847982406616211
ell 1000, elapsed: 0.0013060569763183594
ell 999, elapsed: 0.005821943283081055
ell 998, elapsed: 0.006491899490356445
ell 44, elapsed: 0.7091169357299805
ell 43, elapsed: 0.005956888198852539
ell 42, elapsed: 0.005445957183837891
ell 41, elapsed: 0.0061719417572021484
ell 40, elapsed: 0.005476951599121094
  0.756668 seconds (5.05 k allocations: 329.078 KiB)
elapsed: 0.0072879791259765625
step:          0.703337 sec (0 allocations: 0 byte, 0.0% gc time)
swapping:      0.000569 sec (0 allocations: 0 byte, 0.0% gc time)
calc_Mellell!: 0.001493 sec (0 allocations: 0 byte, 0.0% gc time)
  t0 :  0.000823 sec (0 allocations: 0 byte, 0.0% gc time)
  tm2 : 0.010785 sec (0 allocations: 0 byte, 0.0% gc time)
  tm2s: 0.000715 sec (0 allocations: 0 byte, 0.0% gc time)
  tm4 : 0.029167 sec (0 allocations: 0 byte, 0.0% gc time)
  tp2 : 0.0 sec (0 allocations: 0 byte, 0.0% gc time)
  tp2s: 0.0 sec (0 allocations: 0 byte, 0.0% gc time)
  tp4 : 0.0 sec (0 allocations: 0 byte, 0.0% gc time)
calc_wtdll!:   0.04179 sec (480 allocations: 52.5 KB, 0.0% gc time)
calc_wljj!:    0.002239 sec (1 allocations: 16 byte, 0.0% gc time)
mult_prefac!:  0.0 sec (0 allocations: 0 byte, 0.0% gc time)
convert:       0.0 sec (0 allocations: 0 byte, 0.0% gc time)
write:         0.001171 sec (0 allocations: 0 byte, 0.0% gc time)
test_rand_2f1: 0.0 sec (0 allocations: 0 byte, 0.0% gc time)
Closing outfile out/MlCache/MlCache.bin...   0.000009 seconds
  0.495194 seconds (38 allocations: 66.859 KiB)
make_phi():   0.010658 seconds (65 allocations: 275.984 KiB)
  0.040276 seconds (11.42 k allocations: 711.851 KiB)
tskip:       1.0e-6 sec (0 allocations: 0 byte, 0.0% gc time)
tread:       0.000777 sec (17 allocations: 1.266 KB, 0.0% gc time)
tmultphi:    0.000449 sec (0 allocations: 0 byte, 0.0% gc time)
tbrfft:      0.001769 sec (0 allocations: 0 byte, 0.0% gc time)
tmultprefac: 0.001207 sec (0 allocations: 0 byte, 0.0% gc time)
toutfunc:    0.000207 sec (0 allocations: 0 byte, 0.0% gc time)
Created 'out/wl42_jj00.tsv'.
Created 'out/wl42_jj02.tsv'.
    Testing TwoFAST tests passed 
