Julia Version 1.6.0-DEV.1021
Commit ee93bd8426 (2020-09-23 15:07 UTC)
Platform Info:
  OS: Linux (x86_64-pc-linux-gnu)
  CPU: Intel(R) Xeon(R) Silver 4114 CPU @ 2.20GHz
  WORD_SIZE: 64
  LIBM: libopenlibm
  LLVM: libLLVM-9.0.1 (ORCJIT, skylake-avx512)
Environment:
  JULIA_DEPOT_PATH = ::/usr/local/share/julia
  JULIA_NUM_THREADS = 2

  Resolving package versions...
  Installed FFTW_jll ───────────────────── v3.3.9+5
  Installed Reexport ───────────────────── v0.2.0
  Installed GenericSVD ─────────────────── v0.3.0
  Installed AbstractFFTs ───────────────── v0.5.0
  Installed SpecialFunctions ───────────── v0.10.3
  Installed FFTW ───────────────────────── v1.2.4
  Installed ArbNumerics ────────────────── v1.2.1
  Installed IntelOpenMP_jll ────────────── v2018.0.3+0
  Installed OpenSpecFun_jll ────────────── v0.5.3+3
  Installed Readables ──────────────────── v0.3.3
  Installed TwoFAST ────────────────────── v0.1.3
  Installed MKL_jll ────────────────────── v2020.2.254+0
  Installed CompilerSupportLibraries_jll ─ v0.3.3+0
  Installed BinaryProvider ─────────────── v0.5.10
  Installed GenericSchur ───────────────── v0.4.0
Updating `~/.julia/environments/v1.6/Project.toml`
  [0dd23c3e] + TwoFAST v0.1.3
Updating `~/.julia/environments/v1.6/Manifest.toml`
  [621f4979] + AbstractFFTs v0.5.0
  [7e558dbc] + ArbNumerics v1.2.1
  [b99e7846] + BinaryProvider v0.5.10
  [e66e0078] + CompilerSupportLibraries_jll v0.3.3+0
  [7a1cc6ca] + FFTW v1.2.4
  [f5851436] + FFTW_jll v3.3.9+5
  [01680d73] + GenericSVD v0.3.0
  [c145ed77] + GenericSchur v0.4.0
  [1d5cc7b8] + IntelOpenMP_jll v2018.0.3+0
  [856f044c] + MKL_jll v2020.2.254+0
  [efe28fd5] + OpenSpecFun_jll v0.5.3+3
  [0d4725de] + Readables v0.3.3
  [189a3867] + Reexport v0.2.0
  [276daf66] + SpecialFunctions v0.10.3
  [0dd23c3e] + TwoFAST v0.1.3
  [56f22d72] + Artifacts
  [2a0f44e3] + Base64
  [ade2ca70] + Dates
  [8bb1440f] + DelimitedFiles
  [8ba89e20] + Distributed
  [b77e0a4c] + InteractiveUtils
  [76f85450] + LibGit2
  [8f399da3] + Libdl
  [37e2e46d] + LinearAlgebra
  [56ddb016] + Logging
  [d6f4376e] + Markdown
  [a63ad114] + Mmap
  [44cfe95a] + Pkg
  [de0858da] + Printf
  [3fa0cd96] + REPL
  [9a3f8284] + Random
  [ea8e919c] + SHA
  [9e88b42a] + Serialization
  [6462fe0b] + Sockets
  [fa267f1f] + TOML
  [8dfed614] + Test
  [cf7118a7] + UUIDs
  [4ec0a83e] + Unicode
   Building FFTW ───────→ `~/.julia/packages/FFTW/DMUbN/deps/build.log`
   Building ArbNumerics → `~/.julia/packages/ArbNumerics/joGFm/deps/build.log`
    Testing TwoFAST
Status `/tmp/jl_IHqwZ9/Project.toml`
  [7e558dbc] ArbNumerics v1.2.1
  [39dd38d3] Dierckx v0.5.0
  [7a1cc6ca] FFTW v1.2.4
  [276daf66] SpecialFunctions v0.10.3
  [0dd23c3e] TwoFAST v0.1.3
  [8bb1440f] DelimitedFiles
  [37e2e46d] LinearAlgebra
  [56ddb016] Logging
  [8dfed614] Test
Status `/tmp/jl_IHqwZ9/Manifest.toml`
  [621f4979] AbstractFFTs v0.5.0
  [7e558dbc] ArbNumerics v1.2.1
  [b99e7846] BinaryProvider v0.5.10
  [e66e0078] CompilerSupportLibraries_jll v0.3.3+0
  [39dd38d3] Dierckx v0.5.0
  [cd4c43a9] Dierckx_jll v0.0.1+0
  [7a1cc6ca] FFTW v1.2.4
  [f5851436] FFTW_jll v3.3.9+5
  [01680d73] GenericSVD v0.3.0
  [c145ed77] GenericSchur v0.4.0
  [1d5cc7b8] IntelOpenMP_jll v2018.0.3+0
  [856f044c] MKL_jll v2020.2.254+0
  [efe28fd5] OpenSpecFun_jll v0.5.3+3
  [0d4725de] Readables v0.3.3
  [189a3867] Reexport v0.2.0
  [276daf66] SpecialFunctions v0.10.3
  [0dd23c3e] TwoFAST v0.1.3
  [56f22d72] Artifacts
  [2a0f44e3] Base64
  [ade2ca70] Dates
  [8bb1440f] DelimitedFiles
  [8ba89e20] Distributed
  [b77e0a4c] InteractiveUtils
  [76f85450] LibGit2
  [8f399da3] Libdl
  [37e2e46d] LinearAlgebra
  [56ddb016] Logging
  [d6f4376e] Markdown
  [a63ad114] Mmap
  [44cfe95a] Pkg
  [de0858da] Printf
  [3fa0cd96] REPL
  [9a3f8284] Random
  [ea8e919c] SHA
  [9e88b42a] Serialization
  [6462fe0b] Sockets
  [fa267f1f] TOML
  [8dfed614] Test
  [cf7118a7] UUIDs
  [4ec0a83e] Unicode
    Testing Running tests...
WARNING: could not import Printf.ini_hex into ArbNumerics
WARNING: could not import Printf.ini_HEX into ArbNumerics
t = 0.0 sec (0 allocations: 0 byte, 0.0% gc time)
typeof(t) = NamedTuple{(:value, :time, :bytes, :gctime, :gcstats), Tuple{DataType, Float64, Int64, Float64, Base.GC_Diff}}
TwoFAST.PerformanceStats.TimedType = Union{NamedTuple{(:value, :time, :bytes, :gctime, :gcstats), Tuple{T, Float64, Int64, Float64, Base.GC_Diff}}, Tuple{Any, Float64, Int64, Float64, Base.GC_Diff}} where T
t = 1.0e-6 sec (0 allocations: 0 byte, 0.0% gc time)
t: 1.0e-6 sec (0 allocations: 0 byte, 0.0% gc time)
Testing ξ(r), ℓ=0, ν=-1 ... passed
Testing ξ(r), ℓ=0, ν=0 ... passed
Testing ξ(r), ℓ=0, ν=1 ... passed
Testing ξ(r), ℓ=0, ν=2 ... passed
Testing ξ(r), ℓ=0, ν=3 ... passed
Testing ξ(r), ℓ=1, ν=0 ... passed
Testing ξ(r), ℓ=1, ν=1 ... passed
Testing ξ(r), ℓ=1, ν=2 ... passed
Testing ξ(r), ℓ=1, ν=3 ... passed
Testing ξ(r), ℓ=2, ν=-1 ... passed
Testing ξ(r), ℓ=2, ν=0 ... passed
Testing ξ(r), ℓ=2, ν=1 ... passed
Testing ξ(r), ℓ=2, ν=2 ... passed
Testing ξ(r), ℓ=2, ν=3 ... passed
Testing ξ(r), ℓ=3, ν=-1 ... passed
Testing ξ(r), ℓ=3, ν=0 ... passed
Testing ξ(r), ℓ=3, ν=1 ... passed
Testing ξ(r), ℓ=3, ν=2 ... passed
Testing ξ(r), ℓ=3, ν=3 ... passed
Testing ξ(r), ℓ=4, ν=-1 ... passed
Testing ξ(r), ℓ=4, ν=0 ... passed
Testing ξ(r), ℓ=4, ν=1 ... passed
Testing ξ(r), ℓ=4, ν=2 ... passed
Testing ξ(r), ℓ=4, ν=3 ... passed
Testing ξ(r) ... passed
Testing ξ′(r) ... passed
Testing ξ″(r) ... passed
Calculating fmax: 
  dlrec    = 4
  dlrecRg1 = -4
  q=1.1, R=1.1:	  4.589457 seconds (842.41 k allocations: 53.857 MiB, 1.02% gc time)

  4.606652 seconds (855.09 k allocations: 54.647 MiB, 1.02% gc time)
ℓ = 1202
Δℓ = 4
ΔℓRg1 = -4
N = 1600
q = 1.1
kmin = 1.0e-5
kmax = 100000.00000000004
χ0 = 0.023029999999999995
RR = RR.tsv
ℓmax = ℓmax.bin
f21 = f21.bin
kmin = 1.0e-5
kmax = 100000.0
dlrec    = 4
dlrecRg1 = -4
Output size: 5741568 bytes = 0.005347251892089844 GiB
Output size: 51264 bytes = 4.774332046508789e-5 GiB
Reading 'out/F21EllCache'...   0.704654 seconds (395.13 k allocations: 23.213 MiB, 3.07% gc time)
ellmax: 1202
lmaxcache: 1202
fell[:,1,1] = ComplexF64[3.9583795592771634e-52 - 9.695233714158177e-68im, 3.990121772925759e-52 - 9.772979714843386e-68im]
ell 1202, elapsed: 7.390975952148438e-5
ell 1201, elapsed: 1.6779539585113525
ell 1200, elapsed: 0.0005431175231933594
ell 1199, elapsed: 0.0004990100860595703
ell 1198, elapsed: 0.0004899501800537109
ell 1002, elapsed: 0.010986089706420898
ell 1001, elapsed: 0.0008471012115478516
ell 1000, elapsed: 0.0007109642028808594
ell 999, elapsed: 0.0007119178771972656
ell 998, elapsed: 0.0007660388946533203
ell 902, elapsed: 0.0061609745025634766
ell 901, elapsed: 0.0005810260772705078
ell 900, elapsed: 0.0005688667297363281
ell 899, elapsed: 0.0006380081176757812
ell 898, elapsed: 0.0005838871002197266
ell 802, elapsed: 0.006118059158325195
ell 801, elapsed: 0.0006339550018310547
ell 800, elapsed: 0.0005850791931152344
ell 799, elapsed: 0.0005679130554199219
ell 798, elapsed: 0.0005669593811035156
ell 702, elapsed: 0.006168842315673828
ell 701, elapsed: 0.0005819797515869141
ell 700, elapsed: 0.0005800724029541016
ell 699, elapsed: 0.0005848407745361328
ell 698, elapsed: 0.0005679130554199219
ell 602, elapsed: 0.006417989730834961
ell 601, elapsed: 0.0006070137023925781
ell 600, elapsed: 0.0006029605865478516
ell 599, elapsed: 0.0005490779876708984
ell 598, elapsed: 0.0005447864532470703
ell 502, elapsed: 0.006499767303466797
ell 501, elapsed: 0.0006198883056640625
ell 500, elapsed: 0.0006058216094970703
ell 499, elapsed: 0.0006961822509765625
ell 498, elapsed: 0.0006060600280761719
ell 402, elapsed: 0.006382942199707031
ell 401, elapsed: 0.0006930828094482422
ell 400, elapsed: 0.0005881786346435547
ell 399, elapsed: 0.0005609989166259766
ell 398, elapsed: 0.0005600452423095703
ell 302, elapsed: 0.006047964096069336
ell 301, elapsed: 0.0005750656127929688
ell 300, elapsed: 0.0006060600280761719
ell 299, elapsed: 0.0005960464477539062
ell 298, elapsed: 0.0005679130554199219
ell 202, elapsed: 0.006596088409423828
ell 201, elapsed: 0.000579833984375
ell 200, elapsed: 0.0005908012390136719
ell 199, elapsed: 0.0005919933319091797
ell 198, elapsed: 0.0006930828094482422
ell 152, elapsed: 0.003201007843017578
ell 151, elapsed: 0.0007369518280029297
ell 150, elapsed: 0.0005939006805419922
ell 149, elapsed: 0.000598907470703125
ell 148, elapsed: 0.0005910396575927734
ell 127, elapsed: 0.0019681453704833984
ell 126, elapsed: 0.0006110668182373047
ell 125, elapsed: 0.0006051063537597656
ell 124, elapsed: 0.0006070137023925781
ell 123, elapsed: 0.0005741119384765625
ell 114, elapsed: 0.0012319087982177734
ell 113, elapsed: 0.0005459785461425781
ell 112, elapsed: 0.0005619525909423828
ell 111, elapsed: 0.0005481243133544922
ell 110, elapsed: 0.0005578994750976562
ell 102, elapsed: 0.0010180473327636719
ell 101, elapsed: 0.0005719661712646484
ell 100, elapsed: 0.0005609989166259766
ell 99, elapsed: 0.0005500316619873047
ell 98, elapsed: 0.0005590915679931641
ell 97, elapsed: 0.000640869140625
ell 96, elapsed: 0.0006260871887207031
ell 95, elapsed: 0.0008020401000976562
ell 94, elapsed: 0.0007181167602539062
ell 93, elapsed: 0.0005571842193603516
ell 92, elapsed: 0.000553131103515625
ell 91, elapsed: 0.0005550384521484375
ell 90, elapsed: 0.0006330013275146484
ell 89, elapsed: 0.0005939006805419922
ell 88, elapsed: 0.000537872314453125
ell 87, elapsed: 0.000598907470703125
ell 86, elapsed: 0.0005910396575927734
ell 85, elapsed: 0.0005960464477539062
ell 84, elapsed: 0.0005970001220703125
ell 83, elapsed: 0.0006799697875976562
ell 82, elapsed: 0.0008559226989746094
ell 81, elapsed: 0.0005211830139160156
ell 80, elapsed: 0.0005290508270263672
ell 79, elapsed: 0.0005218982696533203
ell 78, elapsed: 0.0005228519439697266
ell 77, elapsed: 0.0006551742553710938
ell 76, elapsed: 0.0006020069122314453
ell 75, elapsed: 0.0006089210510253906
ell 74, elapsed: 0.0006079673767089844
ell 73, elapsed: 0.0006039142608642578
ell 72, elapsed: 0.0006079673767089844
ell 71, elapsed: 0.0007078647613525391
ell 70, elapsed: 0.000637054443359375
ell 69, elapsed: 0.0006220340728759766
ell 68, elapsed: 0.0006279945373535156
ell 67, elapsed: 0.0006358623504638672
ell 66, elapsed: 0.0006380081176757812
ell 65, elapsed: 0.0007359981536865234
ell 64, elapsed: 0.0006330013275146484
ell 63, elapsed: 0.0008170604705810547
ell 62, elapsed: 0.0007009506225585938
ell 61, elapsed: 0.0006268024444580078
ell 60, elapsed: 0.0007328987121582031
ell 59, elapsed: 0.0006051063537597656
ell 58, elapsed: 0.0005788803100585938
ell 57, elapsed: 0.0006151199340820312
ell 56, elapsed: 0.0005500316619873047
ell 55, elapsed: 0.0005700588226318359
ell 54, elapsed: 0.0006339550018310547
ell 53, elapsed: 0.0005609989166259766
ell 52, elapsed: 0.0005710124969482422
ell 51, elapsed: 0.0006239414215087891
ell 50, elapsed: 0.0005588531494140625
ell 49, elapsed: 0.0005729198455810547
ell 48, elapsed: 0.0006959438323974609
ell 47, elapsed: 0.0005559921264648438
ell 46, elapsed: 0.0005509853363037109
ell 45, elapsed: 0.0005559921264648438
ell 44, elapsed: 0.0005521774291992188
ell 43, elapsed: 0.0005571842193603516
ell 42, elapsed: 0.0005481243133544922
ell 41, elapsed: 0.0006501674652099609
ell 40, elapsed: 0.00055694580078125
ell 39, elapsed: 0.0005519390106201172
ell 38, elapsed: 0.0005550384521484375
ell 37, elapsed: 0.0005519390106201172
ell 36, elapsed: 0.0005509853363037109
ell 35, elapsed: 0.00055694580078125
ell 34, elapsed: 0.0005619525909423828
ell 33, elapsed: 0.0005791187286376953
ell 32, elapsed: 0.0006158351898193359
ell 31, elapsed: 0.0005519390106201172
ell 30, elapsed: 0.0005562305450439453
ell 29, elapsed: 0.000553131103515625
ell 28, elapsed: 0.0006539821624755859
ell 27, elapsed: 0.0005550384521484375
ell 26, elapsed: 0.0005598068237304688
ell 25, elapsed: 0.0005609989166259766
ell 24, elapsed: 0.0005750656127929688
ell 23, elapsed: 0.0005629062652587891
ell 22, elapsed: 0.0006439685821533203
ell 21, elapsed: 0.0006220340728759766
ell 20, elapsed: 0.0006201267242431641
ell 19, elapsed: 0.0005748271942138672
ell 18, elapsed: 0.0006320476531982422
ell 17, elapsed: 0.0005509853363037109
ell 16, elapsed: 0.0005590915679931641
ell 15, elapsed: 0.0006358623504638672
ell 14, elapsed: 0.0006499290466308594
ell 13, elapsed: 0.0005841255187988281
ell 12, elapsed: 0.0006260871887207031
ell 11, elapsed: 0.0005588531494140625
ell 10, elapsed: 0.0005629062652587891
ell 9, elapsed: 0.0006740093231201172
ell 8, elapsed: 0.0006399154663085938
ell 7, elapsed: 0.0005571842193603516
ell 6, elapsed: 0.0005629062652587891
ell 5, elapsed: 0.0005519390106201172
ell 4, elapsed: 0.0005750656127929688
ell 3, elapsed: 0.0006701946258544922
ell 2, elapsed: 0.0005440711975097656
ell 1, elapsed: 0.0005381107330322266
ell 0, elapsed: 0.0005350112915039062
  2.607879 seconds (1.30 M allocations: 70.964 MiB, 2.35% gc time)
elapsed: 0.0006330013275146484
step:          0.36058 sec (311.142 k allocations: 16.962 MB, 0.0% gc time)
swapping:      0.000586 sec (0 allocations: 0 byte, 0.0% gc time)
calc_Mellell!: 0.236872 sec (135.743 k allocations: 7.433 MB, 0.0% gc time)
  t0 :  0.0 sec (0 allocations: 0 byte, 0.0% gc time)
  tm2 : 0.0 sec (0 allocations: 0 byte, 0.0% gc time)
  tm2s: 0.0 sec (0 allocations: 0 byte, 0.0% gc time)
  tm4 : 0.0 sec (0 allocations: 0 byte, 0.0% gc time)
  tp2 : 0.0 sec (0 allocations: 0 byte, 0.0% gc time)
  tp2s: 0.0 sec (0 allocations: 0 byte, 0.0% gc time)
  tp4 : 0.0 sec (0 allocations: 0 byte, 0.0% gc time)
calc_wtdll!:   1.227392 sec (509.616 k allocations: 28.197 MB, 3.23% gc time)
calc_wljj!:    0.003587 sec (6 allocations: 96 byte, 0.0% gc time)
mult_prefac!:  0.0 sec (0 allocations: 0 byte, 0.0% gc time)
convert:       0.0 sec (0 allocations: 0 byte, 0.0% gc time)
write:         0.004112 sec (0 allocations: 0 byte, 0.0% gc time)
test_rand_2f1: 0.0 sec (0 allocations: 0 byte, 0.0% gc time)
Closing outfile out/Ml21-cache.bin...   0.000007 seconds
  1.529771 seconds (246.20 k allocations: 14.210 MiB, 3.74% gc time)
make_phi():   0.012944 seconds (8.18 k allocations: 237.844 KiB)
  0.257202 seconds (87.57 k allocations: 4.749 MiB)
tskip:       3.3e-5 sec (0 allocations: 0 byte, 0.0% gc time)
tread:       0.003627 sec (17 allocations: 2.125 KB, 0.0% gc time)
tmultphi:    0.041741 sec (21.425 k allocations: 1.287 MB, 0.0% gc time)
tbrfft:      0.007745 sec (0 allocations: 0 byte, 0.0% gc time)
tmultprefac: 0.005809 sec (0 allocations: 0 byte, 0.0% gc time)
toutfunc:    0.160208 sec (64.486 k allocations: 3.331 MB, 0.0% gc time)
Testing R=1.1 ... passed
Calculating fmax: 
  dlrec    = 4
  dlrecRg1 = -4
  q=1.1, R=1.0:	  0.001673 seconds (3.20 k allocations: 275.344 KiB)

  0.002321 seconds (3.35 k allocations: 311.750 KiB)
ℓ = 1202
Δℓ = 4
ΔℓRg1 = -4
N = 1600
q = 1.1
kmin = 1.0e-5
kmax = 100000.00000000004
χ0 = 0.023029999999999995
RR = RR.tsv
ℓmax = ℓmax.bin
f21 = f21.bin
kmin = 1.0e-5
kmax = 100000.0
dlrec    = 4
dlrecRg1 = -4
Output size: 61465536 bytes = 0.05724424123764038 GiB
Output size: 51264 bytes = 4.774332046508789e-5 GiB
Reading 'out/F21EllCache'...   0.001146 seconds (197 allocations: 84.203 KiB)
ellmax: 1202
lmaxcache: 1202
fell[:,1,1] = ComplexF64[809.6031528389767 - 1.9829558194077161e-13im, 0.0 + 0.0im]
ell 1202, elapsed: 0.00010800361633300781
ell 1201, elapsed: 0.015771865844726562
ell 1200, elapsed: 0.012787103652954102
ell 1199, elapsed: 0.0006740093231201172
ell 1198, elapsed: 0.0006780624389648438
ell 1197, elapsed: 0.0007958412170410156
ell 1196, elapsed: 0.0007510185241699219
ell 1195, elapsed: 0.0006070137023925781
ell 1194, elapsed: 0.0006020069122314453
ell 1193, elapsed: 0.0006010532379150391
ell 1192, elapsed: 0.0006039142608642578
ell 1191, elapsed: 0.0005970001220703125
ell 1190, elapsed: 0.0006229877471923828
ell 1189, elapsed: 0.0005979537963867188
ell 1188, elapsed: 0.0006000995635986328
ell 1187, elapsed: 0.0006029605865478516
ell 1186, elapsed: 0.0005998611450195312
ell 1185, elapsed: 0.0006110668182373047
ell 1184, elapsed: 0.000823974609375
ell 1183, elapsed: 0.0005159378051757812
ell 1182, elapsed: 0.0004909038543701172
ell 1181, elapsed: 0.0005049705505371094
ell 1180, elapsed: 0.0004780292510986328
ell 1179, elapsed: 0.0005099773406982422
ell 1178, elapsed: 0.0004968643188476562
ell 1177, elapsed: 0.0005061626434326172
ell 1176, elapsed: 0.0005819797515869141
ell 1175, elapsed: 0.00048804283142089844
ell 1174, elapsed: 0.0004799365997314453
ell 1173, elapsed: 0.00047707557678222656
ell 1172, elapsed: 0.0004811286926269531
ell 1171, elapsed: 0.0005130767822265625
ell 1170, elapsed: 0.0005009174346923828
ell 1169, elapsed: 0.0005249977111816406
ell 1168, elapsed: 0.0005259513854980469
ell 1167, elapsed: 0.0005199909210205078
ell 1166, elapsed: 0.0007219314575195312
ell 1165, elapsed: 0.0005319118499755859
ell 1164, elapsed: 0.0004830360412597656
ell 1163, elapsed: 0.0004799365997314453
ell 1162, elapsed: 0.0004780292510986328
ell 1161, elapsed: 0.0004448890686035156
ell 1160, elapsed: 0.0004608631134033203
ell 1159, elapsed: 0.000476837158203125
ell 1158, elapsed: 0.0004630088806152344
ell 1157, elapsed: 0.0004658699035644531
ell 1156, elapsed: 0.0004439353942871094
ell 1155, elapsed: 0.0004439353942871094
ell 1154, elapsed: 0.0004429817199707031
ell 1153, elapsed: 0.0004420280456542969
ell 1152, elapsed: 0.0004458427429199219
ell 1151, elapsed: 0.0004520416259765625
ell 1150, elapsed: 0.0004489421844482422
ell 1149, elapsed: 0.00043892860412597656
ell 1148, elapsed: 0.0004429817199707031
ell 1147, elapsed: 0.0004458427429199219
ell 1146, elapsed: 0.0004420280456542969
ell 1145, elapsed: 0.0004448890686035156
ell 1144, elapsed: 0.0004439353942871094
ell 1143, elapsed: 0.0004591941833496094
ell 1142, elapsed: 0.0004470348358154297
ell 1141, elapsed: 0.00045299530029296875
ell 1140, elapsed: 0.0004620552062988281
ell 1139, elapsed: 0.00061798095703125
ell 1138, elapsed: 0.0005869865417480469
ell 1137, elapsed: 0.0006830692291259766
ell 1136, elapsed: 0.0005819797515869141
ell 1135, elapsed: 0.00044798851013183594
ell 1134, elapsed: 0.0004589557647705078
ell 1133, elapsed: 0.00045800209045410156
ell 1132, elapsed: 0.00044989585876464844
ell 1131, elapsed: 0.0004420280456542969
ell 1130, elapsed: 0.00045990943908691406
ell 1129, elapsed: 0.00044083595275878906
ell 1128, elapsed: 0.00044608116149902344
ell 1127, elapsed: 0.00044608116149902344
ell 1126, elapsed: 0.00044608116149902344
ell 1125, elapsed: 0.0004451274871826172
ell 1124, elapsed: 0.0004451274871826172
ell 1123, elapsed: 0.0004429817199707031
ell 1122, elapsed: 0.00046706199645996094
ell 1121, elapsed: 0.0004551410675048828
ell 1120, elapsed: 0.0004611015319824219
ell 1119, elapsed: 0.00045180320739746094
ell 1118, elapsed: 0.00045490264892578125
ell 1117, elapsed: 0.0004630088806152344
ell 1116, elapsed: 0.00044083595275878906
ell 1115, elapsed: 0.0005869865417480469
ell 1114, elapsed: 0.0006010532379150391
ell 1113, elapsed: 0.0005879402160644531
ell 1112, elapsed: 0.0006000995635986328
ell 1111, elapsed: 0.0005810260772705078
ell 1110, elapsed: 0.00061798095703125
ell 1109, elapsed: 0.0005979537963867188
ell 1108, elapsed: 0.0007240772247314453
ell 1107, elapsed: 0.0005140304565429688
ell 1106, elapsed: 0.0007519721984863281
ell 1105, elapsed: 0.0007550716400146484
ell 1104, elapsed: 0.0005490779876708984
ell 1103, elapsed: 0.0005269050598144531
ell 1102, elapsed: 0.0005409717559814453
ell 1101, elapsed: 0.0006120204925537109
ell 1100, elapsed: 0.0006208419799804688
ell 1099, elapsed: 0.0005991458892822266
ell 1098, elapsed: 0.0006270408630371094
ell 1097, elapsed: 0.0005540847778320312
ell 1096, elapsed: 0.0005140304565429688
ell 1095, elapsed: 0.0005390644073486328
ell 1094, elapsed: 0.0005321502685546875
ell 1093, elapsed: 0.0005359649658203125
ell 1092, elapsed: 0.0005271434783935547
ell 1091, elapsed: 0.0005171298980712891
ell 1090, elapsed: 0.000514984130859375
ell 1089, elapsed: 0.0005061626434326172
ell 1088, elapsed: 0.0005128383636474609
ell 1087, elapsed: 0.0005679130554199219
ell 1086, elapsed: 0.0005772113800048828
ell 1085, elapsed: 0.0005779266357421875
ell 1084, elapsed: 0.0005688667297363281
ell 1083, elapsed: 0.0005600452423095703
ell 1082, elapsed: 0.0005650520324707031
ell 1081, elapsed: 0.0005509853363037109
ell 1080, elapsed: 0.0005731582641601562
ell 1079, elapsed: 0.0005688667297363281
ell 1078, elapsed: 0.0005679130554199219
ell 1077, elapsed: 0.0004999637603759766
ell 1076, elapsed: 0.0008449554443359375
ell 1075, elapsed: 0.00051116943359375
ell 1074, elapsed: 0.0004990100860595703
ell 1073, elapsed: 0.0005340576171875
ell 1072, elapsed: 0.0005011558532714844
ell 1071, elapsed: 0.0004949569702148438
ell 1070, elapsed: 0.0005478858947753906
ell 1069, elapsed: 0.0005729198455810547
ell 1068, elapsed: 0.0005738735198974609
ell 1067, elapsed: 0.0005559921264648438
ell 1066, elapsed: 0.0005700588226318359
ell 1065, elapsed: 0.0005819797515869141
ell 1064, elapsed: 0.0005519390106201172
ell 1063, elapsed: 0.0005750656127929688
ell 1062, elapsed: 0.0005700588226318359
ell 1061, elapsed: 0.0005638599395751953
ell 1060, elapsed: 0.0005750656127929688
ell 1059, elapsed: 0.0005729198455810547
ell 1058, elapsed: 0.0005791187286376953
ell 1057, elapsed: 0.00057220458984375
ell 1056, elapsed: 0.0005681514739990234
ell 1055, elapsed: 0.0005729198455810547
ell 1054, elapsed: 0.0005550384521484375
ell 1053, elapsed: 0.000576019287109375
ell 1052, elapsed: 0.0005681514739990234
ell 1051, elapsed: 0.0005779266357421875
ell 1050, elapsed: 0.0005679130554199219
ell 1049, elapsed: 0.0005679130554199219
ell 1048, elapsed: 0.0005071163177490234
ell 1047, elapsed: 0.0004980564117431641
ell 1046, elapsed: 0.0005030632019042969
ell 1045, elapsed: 0.0004940032958984375
ell 1044, elapsed: 0.0005390644073486328
ell 1043, elapsed: 0.0005850791931152344
ell 1042, elapsed: 0.0005660057067871094
ell 1041, elapsed: 0.0005710124969482422
ell 1040, elapsed: 0.0005700588226318359
ell 1039, elapsed: 0.0005850791931152344
ell 1038, elapsed: 0.0005769729614257812
ell 1037, elapsed: 0.0005719661712646484
ell 1036, elapsed: 0.0005750656127929688
ell 1035, elapsed: 0.0005719661712646484
ell 1034, elapsed: 0.0005850791931152344
ell 1033, elapsed: 0.0005741119384765625
ell 1032, elapsed: 0.0005609989166259766
ell 1031, elapsed: 0.0005128383636474609
ell 1030, elapsed: 0.0005028247833251953
ell 1029, elapsed: 0.0004949569702148438
ell 1028, elapsed: 0.0005259513854980469
ell 1027, elapsed: 0.0006330013275146484
ell 1026, elapsed: 0.0004980564117431641
ell 1025, elapsed: 0.00048804283142089844
ell 1024, elapsed: 0.0005018711090087891
ell 1023, elapsed: 0.0005168914794921875
ell 1022, elapsed: 0.0005750656127929688
ell 1021, elapsed: 0.0005600452423095703
ell 1020, elapsed: 0.0005528926849365234
ell 1019, elapsed: 0.0005710124969482422
ell 1018, elapsed: 0.000576019287109375
ell 1017, elapsed: 0.0005710124969482422
ell 1016, elapsed: 0.0005741119384765625
ell 1015, elapsed: 0.0005691051483154297
ell 1014, elapsed: 0.0005738735198974609
ell 1013, elapsed: 0.0005879402160644531
ell 1012, elapsed: 0.0005741119384765625
ell 1011, elapsed: 0.0005729198455810547
ell 1010, elapsed: 0.0005719661712646484
ell 1009, elapsed: 0.0005691051483154297
ell 1008, elapsed: 0.000576019287109375
ell 1007, elapsed: 0.000553131103515625
ell 1006, elapsed: 0.0005819797515869141
ell 1005, elapsed: 0.0005731582641601562
ell 1004, elapsed: 0.0005741119384765625
ell 1003, elapsed: 0.0005619525909423828
ell 1002, elapsed: 0.0005719661712646484
ell 1001, elapsed: 0.0005381107330322266
ell 1000, elapsed: 0.0004999637603759766
ell 999, elapsed: 0.0004990100860595703
ell 998, elapsed: 0.0004990100860595703
ell 997, elapsed: 0.0005018711090087891
ell 996, elapsed: 0.0005109310150146484
ell 995, elapsed: 0.0004889965057373047
ell 994, elapsed: 0.0004961490631103516
ell 993, elapsed: 0.0006000995635986328
ell 992, elapsed: 0.0005459785461425781
ell 991, elapsed: 0.0005931854248046875
ell 990, elapsed: 0.0005681514739990234
ell 989, elapsed: 0.0005769729614257812
ell 988, elapsed: 0.0005860328674316406
ell 987, elapsed: 0.0005710124969482422
ell 986, elapsed: 0.0005698204040527344
ell 985, elapsed: 0.0005710124969482422
ell 984, elapsed: 0.0005719661712646484
ell 983, elapsed: 0.0005731582641601562
ell 982, elapsed: 0.0005669593811035156
ell 981, elapsed: 0.0005731582641601562
ell 980, elapsed: 0.0005669593811035156
ell 979, elapsed: 0.0005729198455810547
ell 978, elapsed: 0.0005640983581542969
ell 977, elapsed: 0.00057220458984375
ell 976, elapsed: 0.0005879402160644531
ell 975, elapsed: 0.0005748271942138672
ell 974, elapsed: 0.0005719661712646484
ell 973, elapsed: 0.0005700588226318359
ell 972, elapsed: 0.0005679130554199219
ell 971, elapsed: 0.0005829334259033203
ell 970, elapsed: 0.0005671977996826172
ell 969, elapsed: 0.0005428791046142578
ell 968, elapsed: 0.0005152225494384766
ell 967, elapsed: 0.0004971027374267578
ell 966, elapsed: 0.0004940032958984375
ell 965, elapsed: 0.0004830360412597656
ell 964, elapsed: 0.0004839897155761719
ell 963, elapsed: 0.0004968643188476562
ell 962, elapsed: 0.0005891323089599609
ell 961, elapsed: 0.0005459785461425781
ell 960, elapsed: 0.0005900859832763672
ell 959, elapsed: 0.0005741119384765625
ell 958, elapsed: 0.0005829334259033203
ell 957, elapsed: 0.000576019287109375
ell 956, elapsed: 0.0005779266357421875
ell 955, elapsed: 0.0005779266357421875
ell 954, elapsed: 0.0005750656127929688
ell 953, elapsed: 0.0005679130554199219
ell 952, elapsed: 0.0005800724029541016
ell 951, elapsed: 0.0005710124969482422
ell 950, elapsed: 0.0005807876586914062
ell 949, elapsed: 0.0005700588226318359
ell 948, elapsed: 0.0005679130554199219
ell 947, elapsed: 0.00055694580078125
ell 946, elapsed: 0.0005688667297363281
ell 945, elapsed: 0.000576019287109375
ell 944, elapsed: 0.0005731582641601562
ell 943, elapsed: 0.0005691051483154297
ell 942, elapsed: 0.0005979537963867188
ell 941, elapsed: 0.0005669593811035156
ell 940, elapsed: 0.0005691051483154297
ell 939, elapsed: 0.0005059242248535156
ell 938, elapsed: 0.0004999637603759766
ell 937, elapsed: 0.0005099773406982422
ell 936, elapsed: 0.0004990100860595703
ell 935, elapsed: 0.0004961490631103516
ell 934, elapsed: 0.0005960464477539062
ell 933, elapsed: 0.0005669593811035156
ell 932, elapsed: 0.0005900859832763672
ell 931, elapsed: 0.0004980564117431641
ell 930, elapsed: 0.0004918575286865234
ell 929, elapsed: 0.0005137920379638672
ell 928, elapsed: 0.0004849433898925781
ell 927, elapsed: 0.0005040168762207031
ell 926, elapsed: 0.0004928112030029297
ell 925, elapsed: 0.0005049705505371094
ell 924, elapsed: 0.0004980564117431641
ell 923, elapsed: 0.0005109310150146484
ell 922, elapsed: 0.0004999637603759766
ell 921, elapsed: 0.0006208419799804688
ell 920, elapsed: 0.0005080699920654297
ell 919, elapsed: 0.0005028247833251953
ell 918, elapsed: 0.0005099773406982422
ell 917, elapsed: 0.0005087852478027344
ell 916, elapsed: 0.0004949569702148438
ell 915, elapsed: 0.0005049705505371094
ell 914, elapsed: 0.0004899501800537109
ell 913, elapsed: 0.0005030632019042969
ell 912, elapsed: 0.0005109310150146484
ell 911, elapsed: 0.0004978179931640625
ell 910, elapsed: 0.0004990100860595703
ell 909, elapsed: 0.0005159378051757812
ell 908, elapsed: 0.0005068778991699219
ell 907, elapsed: 0.000453948974609375
ell 906, elapsed: 0.0003571510314941406
ell 905, elapsed: 0.0003590583801269531
ell 904, elapsed: 0.0003638267517089844
ell 903, elapsed: 0.00035309791564941406
ell 902, elapsed: 0.0003490447998046875
ell 901, elapsed: 0.0003590583801269531
ell 900, elapsed: 0.000370025634765625
ell 899, elapsed: 0.0003428459167480469
ell 898, elapsed: 0.0003509521484375
ell 897, elapsed: 0.0005259513854980469
ell 896, elapsed: 0.0005869865417480469
ell 895, elapsed: 0.0005309581756591797
ell 894, elapsed: 0.0005960464477539062
ell 893, elapsed: 0.0005209445953369141
ell 892, elapsed: 0.0006539821624755859
ell 891, elapsed: 0.0005211830139160156
ell 890, elapsed: 0.0005240440368652344
ell 889, elapsed: 0.0005130767822265625
ell 888, elapsed: 0.0005180835723876953
ell 887, elapsed: 0.0005140304565429688
ell 886, elapsed: 0.0005757808685302734
ell 885, elapsed: 0.0005929470062255859
ell 884, elapsed: 0.0005300045013427734
ell 883, elapsed: 0.0005879402160644531
ell 882, elapsed: 0.0005350112915039062
ell 881, elapsed: 0.0005998611450195312
ell 880, elapsed: 0.0005450248718261719
ell 879, elapsed: 0.0005850791931152344
ell 878, elapsed: 0.0005447864532470703
ell 877, elapsed: 0.0004949569702148438
ell 876, elapsed: 0.0004868507385253906
ell 875, elapsed: 0.0004961490631103516
ell 874, elapsed: 0.00048613548278808594
ell 873, elapsed: 0.0005078315734863281
ell 872, elapsed: 0.0004858970642089844
ell 871, elapsed: 0.0005021095275878906
ell 870, elapsed: 0.0004930496215820312
ell 869, elapsed: 0.00048804283142089844
ell 868, elapsed: 0.000518798828125
ell 867, elapsed: 0.0004889965057373047
ell 866, elapsed: 0.0005040168762207031
ell 865, elapsed: 0.0005240440368652344
ell 864, elapsed: 0.0005140304565429688
ell 863, elapsed: 0.0005679130554199219
ell 862, elapsed: 0.0005829334259033203
ell 861, elapsed: 0.0005838871002197266
ell 860, elapsed: 0.0005860328674316406
ell 859, elapsed: 0.0005340576171875
ell 858, elapsed: 0.0005850791931152344
ell 857, elapsed: 0.0005228519439697266
ell 856, elapsed: 0.0006000995635986328
ell 855, elapsed: 0.0005438327789306641
ell 854, elapsed: 0.0005819797515869141
ell 853, elapsed: 0.0005359649658203125
ell 852, elapsed: 0.0005838871002197266
ell 851, elapsed: 0.0005269050598144531
ell 850, elapsed: 0.0005869865417480469
ell 849, elapsed: 0.0006761550903320312
ell 848, elapsed: 0.0009000301361083984
ell 847, elapsed: 0.0008168220520019531
ell 846, elapsed: 0.0009031295776367188
ell 845, elapsed: 0.0008540153503417969
ell 844, elapsed: 0.000885009765625
ell 843, elapsed: 0.0008149147033691406
ell 842, elapsed: 0.0008981227874755859
ell 841, elapsed: 0.0008499622344970703
ell 840, elapsed: 0.000865936279296875
ell 839, elapsed: 0.0008168220520019531
ell 838, elapsed: 0.000885009765625
ell 837, elapsed: 0.0008339881896972656
ell 836, elapsed: 0.0008971691131591797
ell 835, elapsed: 0.000804901123046875
ell 834, elapsed: 0.0009100437164306641
ell 833, elapsed: 0.0007760524749755859
ell 832, elapsed: 0.0006067752838134766
ell 831, elapsed: 0.0005869865417480469
ell 830, elapsed: 0.000537872314453125
ell 829, elapsed: 0.0005769729614257812
ell 828, elapsed: 0.0005102157592773438
ell 827, elapsed: 0.0005931854248046875
ell 826, elapsed: 0.0005829334259033203
ell 825, elapsed: 0.0006010532379150391
ell 824, elapsed: 0.0005788803100585938
ell 823, elapsed: 0.0005099773406982422
ell 822, elapsed: 0.0005710124969482422
ell 821, elapsed: 0.0005598068237304688
ell 820, elapsed: 0.0005998611450195312
ell 819, elapsed: 0.0007171630859375
ell 818, elapsed: 0.0005738735198974609
ell 817, elapsed: 0.0005381107330322266
ell 816, elapsed: 0.0005838871002197266
ell 815, elapsed: 0.0005259513854980469
ell 814, elapsed: 0.0005891323089599609
ell 813, elapsed: 0.0006780624389648438
ell 812, elapsed: 0.0006048679351806641
ell 811, elapsed: 0.0005860328674316406
ell 810, elapsed: 0.0005719661712646484
ell 809, elapsed: 0.0004930496215820312
ell 808, elapsed: 0.0005099773406982422
ell 807, elapsed: 0.0004971027374267578
ell 806, elapsed: 0.0005118846893310547
ell 805, elapsed: 0.0004930496215820312
ell 804, elapsed: 0.0005159378051757812
ell 803, elapsed: 0.0005109310150146484
ell 802, elapsed: 0.0005178451538085938
ell 801, elapsed: 0.0005209445953369141
ell 800, elapsed: 0.0005109310150146484
ell 799, elapsed: 0.0004949569702148438
ell 798, elapsed: 0.0005080699920654297
ell 797, elapsed: 0.0005030632019042969
ell 796, elapsed: 0.00047898292541503906
ell 795, elapsed: 0.0004899501800537109
ell 794, elapsed: 0.0004878044128417969
ell 793, elapsed: 0.00045013427734375
ell 792, elapsed: 0.00045108795166015625
ell 791, elapsed: 0.00043201446533203125
ell 790, elapsed: 0.0005838871002197266
ell 789, elapsed: 0.0004630088806152344
ell 788, elapsed: 0.00042891502380371094
ell 787, elapsed: 0.00043892860412597656
ell 786, elapsed: 0.0006229877471923828
ell 785, elapsed: 0.0004870891571044922
ell 784, elapsed: 0.0004849433898925781
ell 783, elapsed: 0.0005052089691162109
ell 782, elapsed: 0.00037407875061035156
ell 781, elapsed: 0.0003819465637207031
ell 780, elapsed: 0.0004050731658935547
ell 779, elapsed: 0.0003650188446044922
ell 778, elapsed: 0.00034308433532714844
ell 777, elapsed: 0.0003590583801269531
ell 776, elapsed: 0.0003440380096435547
ell 775, elapsed: 0.0003509521484375
ell 774, elapsed: 0.0003578662872314453
ell 773, elapsed: 0.00034999847412109375
ell 772, elapsed: 0.0003719329833984375
ell 771, elapsed: 0.00046706199645996094
ell 770, elapsed: 0.0005729198455810547
ell 769, elapsed: 0.0006530284881591797
ell 768, elapsed: 0.0006628036499023438
ell 767, elapsed: 0.000598907470703125
ell 766, elapsed: 0.0005390644073486328
ell 765, elapsed: 0.0006008148193359375
ell 764, elapsed: 0.0005910396575927734
ell 763, elapsed: 0.0007519721984863281
ell 762, elapsed: 0.0005991458892822266
ell 761, elapsed: 0.0005819797515869141
ell 760, elapsed: 0.0005869865417480469
ell 759, elapsed: 0.0006859302520751953
ell 758, elapsed: 0.0005700588226318359
ell 757, elapsed: 0.0005869865417480469
ell 756, elapsed: 0.0005710124969482422
ell 755, elapsed: 0.0005879402160644531
ell 754, elapsed: 0.0007951259613037109
ell 753, elapsed: 0.0005931854248046875
ell 752, elapsed: 0.0007009506225585938
ell 751, elapsed: 0.0005841255187988281
ell 750, elapsed: 0.000576019287109375
ell 749, elapsed: 0.0005791187286376953
ell 748, elapsed: 0.0005888938903808594
ell 747, elapsed: 0.0005469322204589844
ell 746, elapsed: 0.0005788803100585938
ell 745, elapsed: 0.0005738735198974609
ell 744, elapsed: 0.0005290508270263672
ell 743, elapsed: 0.0005838871002197266
ell 742, elapsed: 0.0005240440368652344
ell 741, elapsed: 0.000576019287109375
ell 740, elapsed: 0.0005440711975097656
ell 739, elapsed: 0.0005829334259033203
ell 738, elapsed: 0.0007228851318359375
ell 737, elapsed: 0.0005230903625488281
ell 736, elapsed: 0.000492095947265625
ell 735, elapsed: 0.0004849433898925781
ell 734, elapsed: 0.00048089027404785156
ell 733, elapsed: 0.0005309581756591797
ell 732, elapsed: 0.0005211830139160156
ell 731, elapsed: 0.0005090236663818359
ell 730, elapsed: 0.0005021095275878906
ell 729, elapsed: 0.0004901885986328125
ell 728, elapsed: 0.0004971027374267578
ell 727, elapsed: 0.0004990100860595703
ell 726, elapsed: 0.0005180835723876953
ell 725, elapsed: 0.0005140304565429688
ell 724, elapsed: 0.0004930496215820312
ell 723, elapsed: 0.0005221366882324219
ell 722, elapsed: 0.0004999637603759766
ell 721, elapsed: 0.000514984130859375
ell 720, elapsed: 0.0005190372467041016
ell 719, elapsed: 0.0005109310150146484
ell 718, elapsed: 0.0004999637603759766
ell 717, elapsed: 0.0004951953887939453
ell 716, elapsed: 0.000492095947265625
ell 715, elapsed: 0.000514984130859375
ell 714, elapsed: 0.0004949569702148438
ell 713, elapsed: 0.0004980564117431641
ell 712, elapsed: 0.0005059242248535156
ell 711, elapsed: 0.0004980564117431641
ell 710, elapsed: 0.0007050037384033203
ell 709, elapsed: 0.0005321502685546875
ell 708, elapsed: 0.0004999637603759766
ell 707, elapsed: 0.0004949569702148438
ell 706, elapsed: 0.0004980564117431641
ell 705, elapsed: 0.0005121231079101562
ell 704, elapsed: 0.0005099773406982422
ell 703, elapsed: 0.00051116943359375
ell 702, elapsed: 0.0004968643188476562
ell 701, elapsed: 0.0007190704345703125
ell 700, elapsed: 0.0005338191986083984
ell 699, elapsed: 0.0007128715515136719
ell 698, elapsed: 0.0005440711975097656
ell 697, elapsed: 0.0006651878356933594
ell 696, elapsed: 0.0006170272827148438
ell 695, elapsed: 0.0005700588226318359
ell 694, elapsed: 0.0005738735198974609
ell 693, elapsed: 0.0005450248718261719
ell 692, elapsed: 0.0005750656127929688
ell 691, elapsed: 0.0005841255187988281
ell 690, elapsed: 0.0006749629974365234
ell 689, elapsed: 0.0006160736083984375
ell 688, elapsed: 0.0005939006805419922
ell 687, elapsed: 0.00051116943359375
ell 686, elapsed: 0.0006480216979980469
ell 685, elapsed: 0.0005831718444824219
ell 684, elapsed: 0.000698089599609375
ell 683, elapsed: 0.0005900859832763672
ell 682, elapsed: 0.0005719661712646484
ell 681, elapsed: 0.0005950927734375
ell 680, elapsed: 0.0005428791046142578
ell 679, elapsed: 0.0006349086761474609
ell 678, elapsed: 0.0005528926849365234
ell 677, elapsed: 0.0006299018859863281
ell 676, elapsed: 0.0006198883056640625
ell 675, elapsed: 0.0007688999176025391
ell 674, elapsed: 0.0006358623504638672
ell 673, elapsed: 0.0006291866302490234
ell 672, elapsed: 0.0005590915679931641
ell 671, elapsed: 0.0005819797515869141
ell 670, elapsed: 0.0005199909210205078
ell 669, elapsed: 0.0005068778991699219
ell 668, elapsed: 0.0005011558532714844
ell 667, elapsed: 0.0005960464477539062
ell 666, elapsed: 0.0006120204925537109
ell 665, elapsed: 0.0005090236663818359
ell 664, elapsed: 0.0005121231079101562
ell 663, elapsed: 0.0005040168762207031
ell 662, elapsed: 0.0005590915679931641
ell 661, elapsed: 0.0005359649658203125
ell 660, elapsed: 0.0005121231079101562
ell 659, elapsed: 0.0005240440368652344
ell 658, elapsed: 0.0005140304565429688
ell 657, elapsed: 0.0005071163177490234
ell 656, elapsed: 0.0003688335418701172
ell 655, elapsed: 0.00035381317138671875
ell 654, elapsed: 0.00036215782165527344
ell 653, elapsed: 0.00035119056701660156
ell 652, elapsed: 0.0003559589385986328
ell 651, elapsed: 0.0003859996795654297
ell 650, elapsed: 0.0003628730773925781
ell 649, elapsed: 0.00035190582275390625
ell 648, elapsed: 0.0003509521484375
ell 647, elapsed: 0.0003559589385986328
ell 646, elapsed: 0.00037407875061035156
ell 645, elapsed: 0.00035309791564941406
ell 644, elapsed: 0.00035309791564941406
ell 643, elapsed: 0.0003581047058105469
ell 642, elapsed: 0.00037407875061035156
ell 641, elapsed: 0.00037407875061035156
ell 640, elapsed: 0.00035691261291503906
ell 639, elapsed: 0.00039005279541015625
ell 638, elapsed: 0.0003619194030761719
ell 637, elapsed: 0.00036406517028808594
ell 636, elapsed: 0.0003581047058105469
ell 635, elapsed: 0.0003571510314941406
ell 634, elapsed: 0.00043392181396484375
ell 633, elapsed: 0.0005109310150146484
ell 632, elapsed: 0.000514984130859375
ell 631, elapsed: 0.0005719661712646484
ell 630, elapsed: 0.0005249977111816406
ell 629, elapsed: 0.0005800724029541016
ell 628, elapsed: 0.0006630420684814453
ell 627, elapsed: 0.0005271434783935547
ell 626, elapsed: 0.0004930496215820312
ell 625, elapsed: 0.0004889965057373047
ell 624, elapsed: 0.0004990100860595703
ell 623, elapsed: 0.0004899501800537109
ell 622, elapsed: 0.0007278919219970703
ell 621, elapsed: 0.0004968643188476562
ell 620, elapsed: 0.0004978179931640625
ell 619, elapsed: 0.0004899501800537109
ell 618, elapsed: 0.0004909038543701172
ell 617, elapsed: 0.0005102157592773438
ell 616, elapsed: 0.0005309581756591797
ell 615, elapsed: 0.0005209445953369141
ell 614, elapsed: 0.0004961490631103516
ell 613, elapsed: 0.0004968643188476562
ell 612, elapsed: 0.0005180835723876953
ell 611, elapsed: 0.0004999637603759766
ell 610, elapsed: 0.0004801750183105469
ell 609, elapsed: 0.0004930496215820312
ell 608, elapsed: 0.0005180835723876953
ell 607, elapsed: 0.0004820823669433594
ell 606, elapsed: 0.0004889965057373047
ell 605, elapsed: 0.0007290840148925781
ell 604, elapsed: 0.0004968643188476562
ell 603, elapsed: 0.0004940032958984375
ell 602, elapsed: 0.00049591064453125
ell 601, elapsed: 0.00048613548278808594
ell 600, elapsed: 0.0005359649658203125
ell 599, elapsed: 0.00049591064453125
ell 598, elapsed: 0.0004940032958984375
ell 597, elapsed: 0.000537872314453125
ell 596, elapsed: 0.0004951953887939453
ell 595, elapsed: 0.0005440711975097656
ell 594, elapsed: 0.0004858970642089844
ell 593, elapsed: 0.0005018711090087891
ell 592, elapsed: 0.0004961490631103516
ell 591, elapsed: 0.0005190372467041016
ell 590, elapsed: 0.00048804283142089844
ell 589, elapsed: 0.0004940032958984375
ell 588, elapsed: 0.0006670951843261719
ell 587, elapsed: 0.0004968643188476562
ell 586, elapsed: 0.0004661083221435547
ell 585, elapsed: 0.00048804283142089844
ell 584, elapsed: 0.0005710124969482422
ell 583, elapsed: 0.0005230903625488281
ell 582, elapsed: 0.0005059242248535156
ell 581, elapsed: 0.0005769729614257812
ell 580, elapsed: 0.0005300045013427734
ell 579, elapsed: 0.0005848407745361328
ell 578, elapsed: 0.0005290508270263672
ell 577, elapsed: 0.0005719661712646484
ell 576, elapsed: 0.0005059242248535156
ell 575, elapsed: 0.0005831718444824219
ell 574, elapsed: 0.0005300045013427734
ell 573, elapsed: 0.00047588348388671875
ell 572, elapsed: 0.0004661083221435547
ell 571, elapsed: 0.00045609474182128906
ell 570, elapsed: 0.0004851818084716797
ell 569, elapsed: 0.0004870891571044922
ell 568, elapsed: 0.0004940032958984375
ell 567, elapsed: 0.0004780292510986328
ell 566, elapsed: 0.0004990100860595703
ell 565, elapsed: 0.0004899501800537109
ell 564, elapsed: 0.00047779083251953125
ell 563, elapsed: 0.0004889965057373047
ell 562, elapsed: 0.0005078315734863281
ell 561, elapsed: 0.0004858970642089844
ell 560, elapsed: 0.0004820823669433594
ell 559, elapsed: 0.0004980564117431641
ell 558, elapsed: 0.0004730224609375
ell 557, elapsed: 0.00047397613525390625
ell 556, elapsed: 0.0007510185241699219
ell 555, elapsed: 0.00046515464782714844
ell 554, elapsed: 0.00047516822814941406
ell 553, elapsed: 0.00049591064453125
ell 552, elapsed: 0.0004780292510986328
ell 551, elapsed: 0.0005261898040771484
ell 550, elapsed: 0.00046706199645996094
ell 549, elapsed: 0.00047397613525390625
ell 548, elapsed: 0.00048804283142089844
ell 547, elapsed: 0.0004780292510986328
ell 546, elapsed: 0.0004799365997314453
ell 545, elapsed: 0.0005099773406982422
ell 544, elapsed: 0.0006880760192871094
ell 543, elapsed: 0.0005059242248535156
ell 542, elapsed: 0.0005738735198974609
ell 541, elapsed: 0.0006990432739257812
ell 540, elapsed: 0.00048089027404785156
ell 539, elapsed: 0.00045800209045410156
ell 538, elapsed: 0.00043392181396484375
ell 537, elapsed: 0.00043487548828125
ell 536, elapsed: 0.0004420280456542969
ell 535, elapsed: 0.00043702125549316406
ell 534, elapsed: 0.0004508495330810547
ell 533, elapsed: 0.0004329681396484375
ell 532, elapsed: 0.00043392181396484375
ell 531, elapsed: 0.0004439353942871094
ell 530, elapsed: 0.00045800209045410156
ell 529, elapsed: 0.0004410743713378906
ell 528, elapsed: 0.0004329681396484375
ell 527, elapsed: 0.0004520416259765625
ell 526, elapsed: 0.0004551410675048828
ell 525, elapsed: 0.0004820823669433594
ell 524, elapsed: 0.0004918575286865234
ell 523, elapsed: 0.0004820823669433594
ell 522, elapsed: 0.0007340908050537109
ell 521, elapsed: 0.00048804283142089844
ell 520, elapsed: 0.0004439353942871094
ell 519, elapsed: 0.0004260540008544922
ell 518, elapsed: 0.0004200935363769531
ell 517, elapsed: 0.0004138946533203125
ell 516, elapsed: 0.00041794776916503906
ell 515, elapsed: 0.00041103363037109375
ell 514, elapsed: 0.0004329681396484375
ell 513, elapsed: 0.0004119873046875
ell 512, elapsed: 0.0004520416259765625
ell 511, elapsed: 0.0006089210510253906
ell 510, elapsed: 0.0005190372467041016
ell 509, elapsed: 0.0005819797515869141
ell 508, elapsed: 0.0006821155548095703
ell 507, elapsed: 0.0007200241088867188
ell 506, elapsed: 0.0005469322204589844
ell 505, elapsed: 0.00044798851013183594
ell 504, elapsed: 0.00045108795166015625
ell 503, elapsed: 0.0005002021789550781
ell 502, elapsed: 0.0005059242248535156
ell 501, elapsed: 0.00049591064453125
ell 500, elapsed: 0.0005049705505371094
ell 499, elapsed: 0.0005011558532714844
ell 498, elapsed: 0.0005021095275878906
ell 497, elapsed: 0.0004570484161376953
ell 496, elapsed: 0.0004680156707763672
ell 495, elapsed: 0.0004439353942871094
ell 494, elapsed: 0.0004000663757324219
ell 493, elapsed: 0.0003371238708496094
ell 492, elapsed: 0.0003399848937988281
ell 491, elapsed: 0.00033211708068847656
ell 490, elapsed: 0.0003330707550048828
ell 489, elapsed: 0.0003390312194824219
ell 488, elapsed: 0.0003330707550048828
ell 487, elapsed: 0.00034499168395996094
ell 486, elapsed: 0.0003349781036376953
ell 485, elapsed: 0.00033092498779296875
ell 484, elapsed: 0.0003561973571777344
ell 483, elapsed: 0.0004239082336425781
ell 482, elapsed: 0.0004169940948486328
ell 481, elapsed: 0.00040912628173828125
ell 480, elapsed: 0.0004069805145263672
ell 479, elapsed: 0.00040793418884277344
ell 478, elapsed: 0.0004119873046875
ell 477, elapsed: 0.00041604042053222656
ell 476, elapsed: 0.00040793418884277344
ell 475, elapsed: 0.0005099773406982422
ell 474, elapsed: 0.0004379749298095703
ell 473, elapsed: 0.0004391670227050781
ell 472, elapsed: 0.0004448890686035156
ell 471, elapsed: 0.0004410743713378906
ell 470, elapsed: 0.00044608116149902344
ell 469, elapsed: 0.0005049705505371094
ell 468, elapsed: 0.0006740093231201172
ell 467, elapsed: 0.0006880760192871094
ell 466, elapsed: 0.0006721019744873047
ell 465, elapsed: 0.0006818771362304688
ell 464, elapsed: 0.0006680488586425781
ell 463, elapsed: 0.0006728172302246094
ell 462, elapsed: 0.0007889270782470703
ell 461, elapsed: 0.0006799697875976562
ell 460, elapsed: 0.0006818771362304688
ell 459, elapsed: 0.0005710124969482422
ell 458, elapsed: 0.0006239414215087891
ell 457, elapsed: 0.0006070137023925781
ell 456, elapsed: 0.0006160736083984375
ell 455, elapsed: 0.0006799697875976562
ell 454, elapsed: 0.0006740093231201172
ell 453, elapsed: 0.0006680488586425781
ell 452, elapsed: 0.0006780624389648438
ell 451, elapsed: 0.0006279945373535156
ell 450, elapsed: 0.0006279945373535156
ell 449, elapsed: 0.0006661415100097656
ell 448, elapsed: 0.0006837844848632812
ell 447, elapsed: 0.0006670951843261719
ell 446, elapsed: 0.0007920265197753906
ell 445, elapsed: 0.0006880760192871094
ell 444, elapsed: 0.0007040500640869141
ell 443, elapsed: 0.0006780624389648438
ell 442, elapsed: 0.0006749629974365234
ell 441, elapsed: 0.0007750988006591797
ell 440, elapsed: 0.0006840229034423828
ell 439, elapsed: 0.0006670951843261719
ell 438, elapsed: 0.0006740093231201172
ell 437, elapsed: 0.0005910396575927734
ell 436, elapsed: 0.00043392181396484375
ell 435, elapsed: 0.0006670951843261719
ell 434, elapsed: 0.0005171298980712891
ell 433, elapsed: 0.0006089210510253906
ell 432, elapsed: 0.0006830692291259766
ell 431, elapsed: 0.0006930828094482422
ell 430, elapsed: 0.0006821155548095703
ell 429, elapsed: 0.0006971359252929688
ell 428, elapsed: 0.0004649162292480469
ell 427, elapsed: 0.0004398822784423828
ell 426, elapsed: 0.0004429817199707031
ell 425, elapsed: 0.00044918060302734375
ell 424, elapsed: 0.0004401206970214844
ell 423, elapsed: 0.0004470348358154297
ell 422, elapsed: 0.0005168914794921875
ell 421, elapsed: 0.0004429817199707031
ell 420, elapsed: 0.00044798851013183594
ell 419, elapsed: 0.0004410743713378906
ell 418, elapsed: 0.0006051063537597656
ell 417, elapsed: 0.0006639957427978516
ell 416, elapsed: 0.0006840229034423828
ell 415, elapsed: 0.0007879734039306641
ell 414, elapsed: 0.000518798828125
ell 413, elapsed: 0.0006289482116699219
ell 412, elapsed: 0.0006721019744873047
ell 411, elapsed: 0.0006849765777587891
ell 410, elapsed: 0.0007770061492919922
ell 409, elapsed: 0.0006768703460693359
ell 408, elapsed: 0.0005948543548583984
ell 407, elapsed: 0.0006010532379150391
ell 406, elapsed: 0.0005540847778320312
ell 405, elapsed: 0.0006020069122314453
ell 404, elapsed: 0.000782012939453125
ell 403, elapsed: 0.0006852149963378906
ell 402, elapsed: 0.0006749629974365234
ell 401, elapsed: 0.0006999969482421875
ell 400, elapsed: 0.0006749629974365234
ell 399, elapsed: 0.0007939338684082031
ell 398, elapsed: 0.0005919933319091797
ell 397, elapsed: 0.0006110668182373047
ell 396, elapsed: 0.0006821155548095703
ell 395, elapsed: 0.0006830692291259766
ell 394, elapsed: 0.0006759166717529297
ell 393, elapsed: 0.000701904296875
ell 392, elapsed: 0.00067901611328125
ell 391, elapsed: 0.0006909370422363281
ell 390, elapsed: 0.0006809234619140625
ell 389, elapsed: 0.0006909370422363281
ell 388, elapsed: 0.0005528926849365234
ell 387, elapsed: 0.0006189346313476562
ell 386, elapsed: 0.0006837844848632812
ell 385, elapsed: 0.0006759166717529297
ell 384, elapsed: 0.0006928443908691406
ell 383, elapsed: 0.0006971359252929688
ell 382, elapsed: 0.0005631446838378906
ell 381, elapsed: 0.0006239414215087891
ell 380, elapsed: 0.0006878376007080078
ell 379, elapsed: 0.0006911754608154297
ell 378, elapsed: 0.0006787776947021484
ell 377, elapsed: 0.0005991458892822266
ell 376, elapsed: 0.0004200935363769531
ell 375, elapsed: 0.00041103363037109375
ell 374, elapsed: 0.00042510032653808594
ell 373, elapsed: 0.0004131793975830078
ell 372, elapsed: 0.0004119873046875
ell 371, elapsed: 0.0004220008850097656
ell 370, elapsed: 0.00041484832763671875
ell 369, elapsed: 0.0004990100860595703
ell 368, elapsed: 0.00042510032653808594
ell 367, elapsed: 0.00041484832763671875
ell 366, elapsed: 0.00042510032653808594
ell 365, elapsed: 0.00041413307189941406
ell 364, elapsed: 0.0004229545593261719
ell 363, elapsed: 0.00041103363037109375
ell 362, elapsed: 0.0004181861877441406
ell 361, elapsed: 0.0004749298095703125
ell 360, elapsed: 0.0004410743713378906
ell 359, elapsed: 0.00061798095703125
ell 358, elapsed: 0.0006859302520751953
ell 357, elapsed: 0.0006968975067138672
ell 356, elapsed: 0.0006871223449707031
ell 355, elapsed: 0.00462794303894043
ell 354, elapsed: 0.0006351470947265625
ell 353, elapsed: 0.0006880760192871094
ell 352, elapsed: 0.0006978511810302734
ell 351, elapsed: 0.00067901611328125
ell 350, elapsed: 0.000804901123046875
ell 349, elapsed: 0.0006918907165527344
ell 348, elapsed: 0.0006830692291259766
ell 347, elapsed: 0.0005850791931152344
ell 346, elapsed: 0.0004410743713378906
ell 345, elapsed: 0.0004489421844482422
ell 344, elapsed: 0.0005509853363037109
ell 343, elapsed: 0.0004570484161376953
ell 342, elapsed: 0.00045490264892578125
ell 341, elapsed: 0.0004401206970214844
ell 340, elapsed: 0.00043582916259765625
ell 339, elapsed: 0.0006039142608642578
ell 338, elapsed: 0.0006818771362304688
ell 337, elapsed: 0.0008111000061035156
ell 336, elapsed: 0.0005710124969482422
ell 335, elapsed: 0.0005371570587158203
ell 334, elapsed: 0.0006809234619140625
ell 333, elapsed: 0.0006768703460693359
ell 332, elapsed: 0.0006971359252929688
ell 331, elapsed: 0.0006577968597412109
ell 330, elapsed: 0.0006048679351806641
ell 329, elapsed: 0.00067901611328125
ell 328, elapsed: 0.0005590915679931641
ell 327, elapsed: 0.0006101131439208984
ell 326, elapsed: 0.0008261203765869141
ell 325, elapsed: 0.0007081031799316406
ell 324, elapsed: 0.0005638599395751953
ell 323, elapsed: 0.0005950927734375
ell 322, elapsed: 0.0006837844848632812
ell 321, elapsed: 0.0005340576171875
ell 320, elapsed: 0.0005960464477539062
ell 319, elapsed: 0.00044989585876464844
ell 318, elapsed: 0.00044608116149902344
ell 317, elapsed: 0.0004470348358154297
ell 316, elapsed: 0.0004429817199707031
ell 315, elapsed: 0.0004451274871826172
ell 314, elapsed: 0.0005660057067871094
ell 313, elapsed: 0.0006480216979980469
ell 312, elapsed: 0.0004470348358154297
ell 311, elapsed: 0.0004391670227050781
ell 310, elapsed: 0.0004470348358154297
ell 309, elapsed: 0.00044083595275878906
ell 308, elapsed: 0.0004508495330810547
ell 307, elapsed: 0.0006198883056640625
ell 306, elapsed: 0.0006368160247802734
ell 305, elapsed: 0.0006110668182373047
ell 304, elapsed: 0.0005259513854980469
ell 303, elapsed: 0.0006051063537597656
ell 302, elapsed: 0.00067901611328125
ell 301, elapsed: 0.0006709098815917969
ell 300, elapsed: 0.0007929801940917969
ell 299, elapsed: 0.0006809234619140625
ell 298, elapsed: 0.0006849765777587891
ell 297, elapsed: 0.00067901611328125
ell 296, elapsed: 0.0006759166717529297
ell 295, elapsed: 0.00078582763671875
ell 294, elapsed: 0.0005431175231933594
ell 293, elapsed: 0.0006251335144042969
ell 292, elapsed: 0.0004811286926269531
ell 291, elapsed: 0.0005249977111816406
ell 290, elapsed: 0.0006778240203857422
ell 289, elapsed: 0.0007159709930419922
ell 288, elapsed: 0.0005340576171875
ell 287, elapsed: 0.0005869865417480469
ell 286, elapsed: 0.000576019287109375
ell 285, elapsed: 0.0006270408630371094
ell 284, elapsed: 0.0006768703460693359
ell 283, elapsed: 0.0007531642913818359
ell 282, elapsed: 0.0005080699920654297
ell 281, elapsed: 0.0004239082336425781
ell 280, elapsed: 0.00041294097900390625
ell 279, elapsed: 0.0004100799560546875
ell 278, elapsed: 0.00041484832763671875
ell 277, elapsed: 0.00041103363037109375
ell 276, elapsed: 0.0004119873046875
ell 275, elapsed: 0.00048804283142089844
ell 274, elapsed: 0.00041794776916503906
ell 273, elapsed: 0.0004189014434814453
ell 272, elapsed: 0.000408172607421875
ell 271, elapsed: 0.00041985511779785156
ell 270, elapsed: 0.00040793418884277344
ell 269, elapsed: 0.00041294097900390625
ell 268, elapsed: 0.00042700767517089844
ell 267, elapsed: 0.00041103363037109375
ell 266, elapsed: 0.0007228851318359375
ell 265, elapsed: 0.0006837844848632812
ell 264, elapsed: 0.0006771087646484375
ell 263, elapsed: 0.0006830692291259766
ell 262, elapsed: 0.0006749629974365234
ell 261, elapsed: 0.0007770061492919922
ell 260, elapsed: 0.0005409717559814453
ell 259, elapsed: 0.0005519390106201172
ell 258, elapsed: 0.0006899833679199219
ell 257, elapsed: 0.0006780624389648438
ell 256, elapsed: 0.0007810592651367188
ell 255, elapsed: 0.0006799697875976562
ell 254, elapsed: 0.0006759166717529297
ell 253, elapsed: 0.0006799697875976562
ell 252, elapsed: 0.0005538463592529297
ell 251, elapsed: 0.0006170272827148438
ell 250, elapsed: 0.0007779598236083984
ell 249, elapsed: 0.0006799697875976562
ell 248, elapsed: 0.0006780624389648438
ell 247, elapsed: 0.0006651878356933594
ell 246, elapsed: 0.0006079673767089844
ell 245, elapsed: 0.0004429817199707031
ell 244, elapsed: 0.0004608631134033203
ell 243, elapsed: 0.0004410743713378906
ell 242, elapsed: 0.0004401206970214844
ell 241, elapsed: 0.00044798851013183594
ell 240, elapsed: 0.0004429817199707031
ell 239, elapsed: 0.000453948974609375
ell 238, elapsed: 0.00043702125549316406
ell 237, elapsed: 0.0007350444793701172
ell 236, elapsed: 0.0005388259887695312
ell 235, elapsed: 0.0005970001220703125
ell 234, elapsed: 0.0006859302520751953
ell 233, elapsed: 0.0006728172302246094
ell 232, elapsed: 0.00067901611328125
ell 231, elapsed: 0.0007479190826416016
ell 230, elapsed: 0.0006749629974365234
ell 229, elapsed: 0.0006740093231201172
ell 228, elapsed: 0.0006730556488037109
ell 227, elapsed: 0.0006730556488037109
ell 226, elapsed: 0.0007410049438476562
ell 225, elapsed: 0.0006799697875976562
ell 224, elapsed: 0.0006780624389648438
ell 223, elapsed: 0.0006768703460693359
ell 222, elapsed: 0.0006840229034423828
ell 221, elapsed: 0.0006659030914306641
ell 220, elapsed: 0.0006098747253417969
ell 219, elapsed: 0.0006868839263916016
ell 218, elapsed: 0.000576019287109375
ell 217, elapsed: 0.0005490779876708984
ell 216, elapsed: 0.0006911754608154297
ell 215, elapsed: 0.0008070468902587891
ell 214, elapsed: 0.0006890296936035156
ell 213, elapsed: 0.0006749629974365234
ell 212, elapsed: 0.0006799697875976562
ell 211, elapsed: 0.0006840229034423828
ell 210, elapsed: 0.0006968975067138672
ell 209, elapsed: 0.0005869865417480469
ell 208, elapsed: 0.0006048679351806641
ell 207, elapsed: 0.0006778240203857422
ell 206, elapsed: 0.0006899833679199219
ell 205, elapsed: 0.00067901611328125
ell 204, elapsed: 0.000782012939453125
ell 203, elapsed: 0.0005371570587158203
ell 202, elapsed: 0.0006070137023925781
ell 201, elapsed: 0.0006871223449707031
ell 200, elapsed: 0.0006890296936035156
ell 199, elapsed: 0.0006959438323974609
ell 198, elapsed: 0.0005249977111816406
ell 197, elapsed: 0.0005230903625488281
ell 196, elapsed: 0.0005180835723876953
ell 195, elapsed: 0.0005209445953369141
ell 194, elapsed: 0.0005190372467041016
ell 193, elapsed: 0.0005249977111816406
ell 192, elapsed: 0.0005290508270263672
ell 191, elapsed: 0.0005140304565429688
ell 190, elapsed: 0.0004260540008544922
ell 189, elapsed: 0.00034499168395996094
ell 188, elapsed: 0.0003409385681152344
ell 187, elapsed: 0.0003387928009033203
ell 186, elapsed: 0.0003349781036376953
ell 185, elapsed: 0.00033783912658691406
ell 184, elapsed: 0.0003361701965332031
ell 183, elapsed: 0.00037598609924316406
ell 182, elapsed: 0.0005288124084472656
ell 181, elapsed: 0.0005249977111816406
ell 180, elapsed: 0.0005319118499755859
ell 179, elapsed: 0.0005259513854980469
ell 178, elapsed: 0.0005290508270263672
ell 177, elapsed: 0.0005240440368652344
ell 176, elapsed: 0.0005400180816650391
ell 175, elapsed: 0.0005328655242919922
ell 174, elapsed: 0.0005278587341308594
ell 173, elapsed: 0.0005311965942382812
ell 172, elapsed: 0.0005309581756591797
ell 171, elapsed: 0.0005240440368652344
ell 170, elapsed: 0.0004291534423828125
ell 169, elapsed: 0.0004200935363769531
ell 168, elapsed: 0.0004150867462158203
ell 167, elapsed: 0.00040602684020996094
ell 166, elapsed: 0.0004138946533203125
ell 165, elapsed: 0.0004100799560546875
ell 164, elapsed: 0.0004107952117919922
ell 163, elapsed: 0.0004189014434814453
ell 162, elapsed: 0.00040912628173828125
ell 161, elapsed: 0.0004119873046875
ell 160, elapsed: 0.0004420280456542969
ell 159, elapsed: 0.0004279613494873047
ell 158, elapsed: 0.00041604042053222656
ell 157, elapsed: 0.00041294097900390625
ell 156, elapsed: 0.00041413307189941406
ell 155, elapsed: 0.00041103363037109375
ell 154, elapsed: 0.00041294097900390625
ell 153, elapsed: 0.0004169940948486328
ell 152, elapsed: 0.0004267692565917969
ell 151, elapsed: 0.0004239082336425781
ell 150, elapsed: 0.00041103363037109375
ell 149, elapsed: 0.0004119873046875
ell 148, elapsed: 0.00041294097900390625
ell 147, elapsed: 0.0004138946533203125
ell 146, elapsed: 0.00041985511779785156
ell 145, elapsed: 0.0004138946533203125
ell 144, elapsed: 0.00044989585876464844
ell 143, elapsed: 0.0005450248718261719
ell 142, elapsed: 0.0005261898040771484
ell 141, elapsed: 0.0005300045013427734
ell 140, elapsed: 0.0005209445953369141
ell 139, elapsed: 0.0005269050598144531
ell 138, elapsed: 0.0005249977111816406
ell 137, elapsed: 0.0005290508270263672
ell 136, elapsed: 0.0005319118499755859
ell 135, elapsed: 0.0005261898040771484
ell 134, elapsed: 0.0005300045013427734
ell 133, elapsed: 0.0005271434783935547
ell 132, elapsed: 0.0005359649658203125
ell 131, elapsed: 0.0005331039428710938
ell 130, elapsed: 0.0005428791046142578
ell 129, elapsed: 0.0005350112915039062
ell 128, elapsed: 0.0005309581756591797
ell 127, elapsed: 0.0005230903625488281
ell 126, elapsed: 0.0005359649658203125
ell 125, elapsed: 0.0005228519439697266
ell 124, elapsed: 0.0005309581756591797
ell 123, elapsed: 0.0005371570587158203
ell 122, elapsed: 0.0005278587341308594
ell 121, elapsed: 0.0005300045013427734
ell 120, elapsed: 0.0005259513854980469
ell 119, elapsed: 0.0005409717559814453
ell 118, elapsed: 0.0005261898040771484
ell 117, elapsed: 0.0005278587341308594
ell 116, elapsed: 0.0005340576171875
ell 115, elapsed: 0.0005359649658203125
ell 114, elapsed: 0.0005409717559814453
ell 113, elapsed: 0.0005240440368652344
ell 112, elapsed: 0.0005278587341308594
ell 111, elapsed: 0.0005290508270263672
ell 110, elapsed: 0.0005419254302978516
ell 109, elapsed: 0.0005290508270263672
ell 108, elapsed: 0.0005300045013427734
ell 107, elapsed: 0.0005271434783935547
ell 106, elapsed: 0.0005350112915039062
ell 105, elapsed: 0.0005278587341308594
ell 104, elapsed: 0.0005328655242919922
ell 103, elapsed: 0.0005400180816650391
ell 102, elapsed: 0.0005440711975097656
ell 101, elapsed: 0.0005230903625488281
ell 100, elapsed: 0.0005259513854980469
ell 99, elapsed: 0.0005309581756591797
ell 98, elapsed: 0.0005249977111816406
ell 97, elapsed: 0.0005371570587158203
ell 96, elapsed: 0.0005271434783935547
ell 95, elapsed: 0.0005300045013427734
ell 94, elapsed: 0.0005159378051757812
ell 93, elapsed: 0.0005340576171875
ell 92, elapsed: 0.0005350112915039062
ell 91, elapsed: 0.0005249977111816406
ell 90, elapsed: 0.0005350112915039062
ell 89, elapsed: 0.0005290508270263672
ell 88, elapsed: 0.0005261898040771484
ell 87, elapsed: 0.0005319118499755859
ell 86, elapsed: 0.000518798828125
ell 85, elapsed: 0.0005221366882324219
ell 84, elapsed: 0.0005280971527099609
ell 83, elapsed: 0.0005469322204589844
ell 82, elapsed: 0.0005249977111816406
ell 81, elapsed: 0.0005240440368652344
ell 80, elapsed: 0.0005209445953369141
ell 79, elapsed: 0.0005240440368652344
ell 78, elapsed: 0.0005261898040771484
ell 77, elapsed: 0.0005280971527099609
ell 76, elapsed: 0.0005469322204589844
ell 75, elapsed: 0.0005328655242919922
ell 74, elapsed: 0.0005199909210205078
ell 73, elapsed: 0.0005259513854980469
ell 72, elapsed: 0.0005271434783935547
ell 71, elapsed: 0.0005319118499755859
ell 70, elapsed: 0.0005221366882324219
ell 69, elapsed: 0.0005309581756591797
ell 68, elapsed: 0.0005230903625488281
ell 67, elapsed: 0.0005359649658203125
ell 66, elapsed: 0.0005221366882324219
ell 65, elapsed: 0.000537872314453125
ell 64, elapsed: 0.0005211830139160156
ell 63, elapsed: 0.0005309581756591797
ell 62, elapsed: 0.0005290508270263672
ell 61, elapsed: 0.0005309581756591797
ell 60, elapsed: 0.0005278587341308594
ell 59, elapsed: 0.0005159378051757812
ell 58, elapsed: 0.0005271434783935547
ell 57, elapsed: 0.0005300045013427734
ell 56, elapsed: 0.0005359649658203125
ell 55, elapsed: 0.0005290508270263672
ell 54, elapsed: 0.0005240440368652344
ell 53, elapsed: 0.0005259513854980469
ell 52, elapsed: 0.0005359649658203125
ell 51, elapsed: 0.0005199909210205078
ell 50, elapsed: 0.0005300045013427734
ell 49, elapsed: 0.0005309581756591797
ell 48, elapsed: 0.0005290508270263672
ell 47, elapsed: 0.0005238056182861328
ell 46, elapsed: 0.0005249977111816406
ell 45, elapsed: 0.0005290508270263672
ell 44, elapsed: 0.0005249977111816406
ell 43, elapsed: 0.0005300045013427734
ell 42, elapsed: 0.0005409717559814453
ell 41, elapsed: 0.0005178451538085938
ell 40, elapsed: 0.0005300045013427734
ell 39, elapsed: 0.0005221366882324219
ell 38, elapsed: 0.0005381107330322266
ell 37, elapsed: 0.0005221366882324219
ell 36, elapsed: 0.0005249977111816406
ell 35, elapsed: 0.0005419254302978516
ell 34, elapsed: 0.0005240440368652344
ell 33, elapsed: 0.0005309581756591797
ell 32, elapsed: 0.0005280971527099609
ell 31, elapsed: 0.0005249977111816406
ell 30, elapsed: 0.0005271434783935547
ell 29, elapsed: 0.0005300045013427734
ell 28, elapsed: 0.0005431175231933594
ell 27, elapsed: 0.0005300045013427734
ell 26, elapsed: 0.0005240440368652344
ell 25, elapsed: 0.0005328655242919922
ell 24, elapsed: 0.0005261898040771484
ell 23, elapsed: 0.0005309581756591797
ell 22, elapsed: 0.0005249977111816406
ell 21, elapsed: 0.0005168914794921875
ell 20, elapsed: 0.0003650188446044922
ell 19, elapsed: 0.0003559589385986328
ell 18, elapsed: 0.0003628730773925781
ell 17, elapsed: 0.00035691261291503906
ell 16, elapsed: 0.0003578662872314453
ell 15, elapsed: 0.0003440380096435547
ell 14, elapsed: 0.0003371238708496094
ell 13, elapsed: 0.00035500526428222656
ell 12, elapsed: 0.00035309791564941406
ell 11, elapsed: 0.0003490447998046875
ell 10, elapsed: 0.00032401084899902344
ell 9, elapsed: 0.00032806396484375
ell 8, elapsed: 0.0003299713134765625
ell 7, elapsed: 0.00032711029052734375
ell 6, elapsed: 0.00032901763916015625
ell 5, elapsed: 0.0003268718719482422
ell 4, elapsed: 0.0003268718719482422
ell 3, elapsed: 0.00033092498779296875
ell 2, elapsed: 0.0003268718719482422
ell 1, elapsed: 0.0004220008850097656
ell 0, elapsed: 0.0005061626434326172
  0.856275 seconds (103.87 k allocations: 3.974 MiB)
elapsed: 0.0006251335144042969
step:          0.074167 sec (0 allocations: 0 byte, 0.0% gc time)
swapping:      0.000758 sec (0 allocations: 0 byte, 0.0% gc time)
calc_Mellell!: 0.012512 sec (0 allocations: 0 byte, 0.0% gc time)
  t0 :  0.002585 sec (0 allocations: 0 byte, 0.0% gc time)
  tm2 : 0.110685 sec (0 allocations: 0 byte, 0.0% gc time)
  tm2s: 0.001622 sec (0 allocations: 0 byte, 0.0% gc time)
  tm4 : 0.288556 sec (0 allocations: 0 byte, 0.0% gc time)
  tp2 : 0.0 sec (0 allocations: 0 byte, 0.0% gc time)
  tp2s: 0.0 sec (0 allocations: 0 byte, 0.0% gc time)
  tp4 : 0.0 sec (0 allocations: 0 byte, 0.0% gc time)
calc_wtdll!:   0.435258 sec (9.9 k allocations: 1.047 MB, 0.0% gc time)
calc_wljj!:    0.046302 sec (689 allocations: 10.766 KB, 0.0% gc time)
mult_prefac!:  0.0 sec (0 allocations: 0 byte, 0.0% gc time)
convert:       0.0 sec (0 allocations: 0 byte, 0.0% gc time)
write:         0.04805 sec (0 allocations: 0 byte, 0.0% gc time)
test_rand_2f1: 0.0 sec (0 allocations: 0 byte, 0.0% gc time)
Closing outfile out/Ml21-cache.bin...   0.000010 seconds
  0.000352 seconds (36 allocations: 27.953 KiB)
make_phi():   0.005210 seconds (8.18 k allocations: 237.844 KiB)
  0.279045 seconds (141.90 k allocations: 3.483 MiB)
tskip:       0.001308 sec (0 allocations: 0 byte, 0.0% gc time)
tread:       0.034741 sec (17 allocations: 10.641 KB, 0.0% gc time)
tmultphi:    0.017032 sec (0 allocations: 0 byte, 0.0% gc time)
tbrfft:      0.07344 sec (0 allocations: 0 byte, 0.0% gc time)
tmultprefac: 0.060756 sec (0 allocations: 0 byte, 0.0% gc time)
toutfunc:    0.086314 sec (127.507 k allocations: 2.312 MB, 0.0% gc time)
Testing R=1.0 ... passed
Calculating fmax: 
  dlrec    = 4
  dlrecRg1 = -4
  q=1.1, R=0.9:	  0.493707 seconds (105.76 k allocations: 15.287 MiB)

  0.494013 seconds (105.99 k allocations: 15.324 MiB)
ℓ = 1202
Δℓ = 4
ΔℓRg1 = -4
N = 1600
q = 1.1
kmin = 1.0e-5
kmax = 100000.00000000004
χ0 = 0.023029999999999995
RR = RR.tsv
ℓmax = ℓmax.bin
f21 = f21.bin
kmin = 1.0e-5
kmax = 100000.0
dlrec    = 4
dlrecRg1 = -4
Output size: 5741568 bytes = 0.005347251892089844 GiB
Output size: 51264 bytes = 4.774332046508789e-5 GiB
Reading 'out/F21EllCache'...   0.001345 seconds (197 allocations: 84.203 KiB)
ellmax: 1202
lmaxcache: 1202
fell[:,1,1] = ComplexF64[1.3482014726274674e-57 - 3.302141236118086e-73im, 1.357860004724329e-57 - 3.3257978169518355e-73im]
ell 1202, elapsed: 2.7179718017578125e-5
ell 1201, elapsed: 0.0005180835723876953
ell 1200, elapsed: 0.0004470348358154297
ell 1199, elapsed: 0.0004551410675048828
ell 1198, elapsed: 0.0004451274871826172
ell 1002, elapsed: 0.010065793991088867
ell 1001, elapsed: 0.0006740093231201172
ell 1000, elapsed: 0.0004858970642089844
ell 999, elapsed: 0.0004839897155761719
ell 998, elapsed: 0.0004839897155761719
ell 902, elapsed: 0.0055999755859375
ell 901, elapsed: 0.00044989585876464844
ell 900, elapsed: 0.0003960132598876953
ell 899, elapsed: 0.0005090236663818359
ell 898, elapsed: 0.000469207763671875
ell 802, elapsed: 0.005459785461425781
ell 801, elapsed: 0.0004520416259765625
ell 800, elapsed: 0.00043582916259765625
ell 799, elapsed: 0.00043392181396484375
ell 798, elapsed: 0.00043392181396484375
ell 702, elapsed: 0.00693202018737793
ell 701, elapsed: 0.0005021095275878906
ell 700, elapsed: 0.0005588531494140625
ell 699, elapsed: 0.0005559921264648438
ell 698, elapsed: 0.0005640983581542969
ell 602, elapsed: 0.008183002471923828
ell 601, elapsed: 0.000514984130859375
ell 600, elapsed: 0.0007009506225585938
ell 599, elapsed: 0.0007050037384033203
ell 598, elapsed: 0.0006248950958251953
ell 502, elapsed: 0.007061958312988281
ell 501, elapsed: 0.0006418228149414062
ell 500, elapsed: 0.0006210803985595703
ell 499, elapsed: 0.0005660057067871094
ell 498, elapsed: 0.0006229877471923828
ell 402, elapsed: 0.009151935577392578
ell 401, elapsed: 0.0003819465637207031
ell 400, elapsed: 0.00037384033203125
ell 399, elapsed: 0.0003788471221923828
ell 398, elapsed: 0.0003859996795654297
ell 302, elapsed: 0.005547046661376953
ell 301, elapsed: 0.00043010711669921875
ell 300, elapsed: 0.00039696693420410156
ell 299, elapsed: 0.0004029273986816406
ell 298, elapsed: 0.0004010200500488281
ell 202, elapsed: 0.005735874176025391
ell 201, elapsed: 0.0004248619079589844
ell 200, elapsed: 0.0004360675811767578
ell 199, elapsed: 0.000431060791015625
ell 198, elapsed: 0.00043010711669921875
ell 152, elapsed: 0.0033681392669677734
ell 151, elapsed: 0.0004298686981201172
ell 150, elapsed: 0.0004329681396484375
ell 149, elapsed: 0.0004279613494873047
ell 148, elapsed: 0.00038909912109375
ell 127, elapsed: 0.0015339851379394531
ell 126, elapsed: 0.00042700767517089844
ell 125, elapsed: 0.00043511390686035156
ell 124, elapsed: 0.0004298686981201172
ell 123, elapsed: 0.0004780292510986328
ell 114, elapsed: 0.0010590553283691406
ell 113, elapsed: 0.00043201446533203125
ell 112, elapsed: 0.00043392181396484375
ell 111, elapsed: 0.00043392181396484375
ell 110, elapsed: 0.00043702125549316406
ell 102, elapsed: 0.0008878707885742188
ell 101, elapsed: 0.0003800392150878906
ell 100, elapsed: 0.0003800392150878906
ell 99, elapsed: 0.0003809928894042969
ell 98, elapsed: 0.0003809928894042969
ell 97, elapsed: 0.0004630088806152344
ell 96, elapsed: 0.00045013427734375
ell 95, elapsed: 0.000453948974609375
ell 94, elapsed: 0.0004630088806152344
ell 93, elapsed: 0.00045800209045410156
ell 92, elapsed: 0.00045609474182128906
ell 91, elapsed: 0.0005300045013427734
ell 90, elapsed: 0.0005280971527099609
ell 89, elapsed: 0.0005459785461425781
ell 88, elapsed: 0.0005509853363037109
ell 87, elapsed: 0.0004780292510986328
ell 86, elapsed: 0.0004601478576660156
ell 85, elapsed: 0.00046896934509277344
ell 84, elapsed: 0.0004839897155761719
ell 83, elapsed: 0.0004699230194091797
ell 82, elapsed: 0.0004649162292480469
ell 81, elapsed: 0.0004968643188476562
ell 80, elapsed: 0.00045800209045410156
ell 79, elapsed: 0.0005929470062255859
ell 78, elapsed: 0.0007090568542480469
ell 77, elapsed: 0.0007028579711914062
ell 76, elapsed: 0.0005960464477539062
ell 75, elapsed: 0.0006041526794433594
ell 74, elapsed: 0.0005960464477539062
ell 73, elapsed: 0.0006129741668701172
ell 72, elapsed: 0.0006039142608642578
ell 71, elapsed: 0.0005891323089599609
ell 70, elapsed: 0.0005979537963867188
ell 69, elapsed: 0.0006170272827148438
ell 68, elapsed: 0.0005900859832763672
ell 67, elapsed: 0.0005929470062255859
ell 66, elapsed: 0.0005939006805419922
ell 65, elapsed: 0.0005128383636474609
ell 64, elapsed: 0.0004849433898925781
ell 63, elapsed: 0.0004889965057373047
ell 62, elapsed: 0.0004878044128417969
ell 61, elapsed: 0.0006670951843261719
ell 60, elapsed: 0.00067901611328125
ell 59, elapsed: 0.00048089027404785156
ell 58, elapsed: 0.0004918575286865234
ell 57, elapsed: 0.0005040168762207031
ell 56, elapsed: 0.0004820823669433594
ell 55, elapsed: 0.0004990100860595703
ell 54, elapsed: 0.0006129741668701172
ell 53, elapsed: 0.0004780292510986328
ell 52, elapsed: 0.0004971027374267578
ell 51, elapsed: 0.0004849433898925781
ell 50, elapsed: 0.0004899501800537109
ell 49, elapsed: 0.0006601810455322266
ell 48, elapsed: 0.0004930496215820312
ell 47, elapsed: 0.0004961490631103516
ell 46, elapsed: 0.00048613548278808594
ell 45, elapsed: 0.0005078315734863281
ell 44, elapsed: 0.00047707557678222656
ell 43, elapsed: 0.0005230903625488281
ell 42, elapsed: 0.00049591064453125
ell 41, elapsed: 0.0004851818084716797
ell 40, elapsed: 0.0004940032958984375
ell 39, elapsed: 0.00048804283142089844
ell 38, elapsed: 0.0005030632019042969
ell 37, elapsed: 0.0006539821624755859
ell 36, elapsed: 0.00047898292541503906
ell 35, elapsed: 0.0007710456848144531
ell 34, elapsed: 0.0005028247833251953
ell 33, elapsed: 0.0005059242248535156
ell 32, elapsed: 0.0006000995635986328
ell 31, elapsed: 0.0005581378936767578
ell 30, elapsed: 0.0008149147033691406
ell 29, elapsed: 0.0005688667297363281
ell 28, elapsed: 0.0006721019744873047
ell 27, elapsed: 0.0006101131439208984
ell 26, elapsed: 0.0004801750183105469
ell 25, elapsed: 0.0005021095275878906
ell 24, elapsed: 0.0004811286926269531
ell 23, elapsed: 0.000492095947265625
ell 22, elapsed: 0.0004811286926269531
ell 21, elapsed: 0.000637054443359375
ell 20, elapsed: 0.0004830360412597656
ell 19, elapsed: 0.0005040168762207031
ell 18, elapsed: 0.0004870891571044922
ell 17, elapsed: 0.0004889965057373047
ell 16, elapsed: 0.0006990432739257812
ell 15, elapsed: 0.0004930496215820312
ell 14, elapsed: 0.000492095947265625
ell 13, elapsed: 0.0004839897155761719
ell 12, elapsed: 0.0005109310150146484
ell 11, elapsed: 0.00047779083251953125
ell 10, elapsed: 0.0006258487701416016
ell 9, elapsed: 0.00048804283142089844
ell 8, elapsed: 0.0005002021789550781
ell 7, elapsed: 0.00047206878662109375
ell 6, elapsed: 0.0004949569702148438
ell 5, elapsed: 0.0005090236663818359
ell 4, elapsed: 0.0006229877471923828
ell 3, elapsed: 0.00044417381286621094
ell 2, elapsed: 0.0005578994750976562
ell 1, elapsed: 0.0004191398620605469
ell 0, elapsed: 0.0004189014434814453
  0.174889 seconds (19.62 k allocations: 846.328 KiB)
elapsed: 0.0008571147918701172
step:          0.070749 sec (0 allocations: 0 byte, 0.0% gc time)
swapping:      0.000632 sec (0 allocations: 0 byte, 0.0% gc time)
calc_Mellell!: 0.001549 sec (0 allocations: 0 byte, 0.0% gc time)
  t0 :  0.000458 sec (0 allocations: 0 byte, 0.0% gc time)
  tm2 : 0.015261 sec (0 allocations: 0 byte, 0.0% gc time)
  tm2s: 0.000308 sec (0 allocations: 0 byte, 0.0% gc time)
  tm4 : 0.03961 sec (0 allocations: 0 byte, 0.0% gc time)
  tp2 : 0.0 sec (0 allocations: 0 byte, 0.0% gc time)
  tp2s: 0.0 sec (0 allocations: 0 byte, 0.0% gc time)
  tp4 : 0.0 sec (0 allocations: 0 byte, 0.0% gc time)
calc_wtdll!:   0.056344 sec (1.344 k allocations: 147.0 KB, 0.0% gc time)
calc_wljj!:    0.004025 sec (6 allocations: 96 byte, 0.0% gc time)
mult_prefac!:  0.0 sec (0 allocations: 0 byte, 0.0% gc time)
convert:       0.0 sec (0 allocations: 0 byte, 0.0% gc time)
write:         0.004452 sec (0 allocations: 0 byte, 0.0% gc time)
test_rand_2f1: 0.0 sec (0 allocations: 0 byte, 0.0% gc time)
Closing outfile out/Ml21-cache.bin...   0.000006 seconds
  0.000616 seconds (36 allocations: 27.953 KiB)
make_phi():   0.005586 seconds (8.18 k allocations: 237.844 KiB)
  0.042650 seconds (11.65 k allocations: 308.688 KiB)
tskip:       4.4e-5 sec (0 allocations: 0 byte, 0.0% gc time)
tread:       0.004923 sec (17 allocations: 2.125 KB, 0.0% gc time)
tmultphi:    0.002354 sec (0 allocations: 0 byte, 0.0% gc time)
tbrfft:      0.010905 sec (0 allocations: 0 byte, 0.0% gc time)
tmultprefac: 0.008275 sec (0 allocations: 0 byte, 0.0% gc time)
toutfunc:    0.015257 sec (10.304 k allocations: 196.0 KB, 0.0% gc time)
Testing R=0.9 ... passed
Calculating fmax: 
  dlrec    = 4
  dlrecRg1 = -4
  q=1.1, R=0.8:	  0.508795 seconds (103.25 k allocations: 14.856 MiB)

  0.509173 seconds (103.48 k allocations: 14.893 MiB)
ℓ = 1202
Δℓ = 4
ΔℓRg1 = -4
N = 1600
q = 1.1
kmin = 1.0e-5
kmax = 100000.00000000004
χ0 = 0.023029999999999995
RR = RR.tsv
ℓmax = ℓmax.bin
f21 = f21.bin
kmin = 1.0e-5
kmax = 100000.0
dlrec    = 4
dlrecRg1 = -4
Output size: 5741568 bytes = 0.005347251892089844 GiB
Output size: 51264 bytes = 4.774332046508789e-5 GiB
Reading 'out/F21EllCache'...   0.001114 seconds (197 allocations: 84.203 KiB)
ellmax: 1202
lmaxcache: 1202
fell[:,1,1] = ComplexF64[7.519068145690986e-120 - 1.8416405474382574e-135im, 7.541664537386155e-120 - 1.847175067190611e-135im]
ell 1202, elapsed: 2.288818359375e-5
ell 1201, elapsed: 0.00045990943908691406
ell 1200, elapsed: 0.00037407875061035156
ell 1199, elapsed: 0.0013041496276855469
ell 1198, elapsed: 0.0004189014434814453
ell 1002, elapsed: 0.013203859329223633
ell 1001, elapsed: 0.0004048347473144531
ell 1000, elapsed: 0.00037479400634765625
ell 999, elapsed: 0.001425027847290039
ell 998, elapsed: 0.0004901885986328125
ell 902, elapsed: 0.00774693489074707
ell 901, elapsed: 0.0003910064697265625
ell 900, elapsed: 0.00036406517028808594
ell 899, elapsed: 0.0003681182861328125
ell 898, elapsed: 0.000370025634765625
ell 802, elapsed: 0.007448911666870117
ell 801, elapsed: 0.0003960132598876953
ell 800, elapsed: 0.0003731250762939453
ell 799, elapsed: 0.001363992691040039
ell 798, elapsed: 0.0005910396575927734
ell 702, elapsed: 0.007400989532470703
ell 701, elapsed: 0.0003960132598876953
ell 700, elapsed: 0.000370025634765625
ell 699, elapsed: 0.00037288665771484375
ell 698, elapsed: 0.00037097930908203125
ell 602, elapsed: 0.010244131088256836
ell 601, elapsed: 0.0005249977111816406
ell 600, elapsed: 0.0005910396575927734
ell 599, elapsed: 0.0005939006805419922
ell 598, elapsed: 0.0007529258728027344
ell 502, elapsed: 0.0053119659423828125
ell 501, elapsed: 0.0003859996795654297
ell 500, elapsed: 0.00037097930908203125
ell 499, elapsed: 0.00043892860412597656
ell 498, elapsed: 0.0005440711975097656
ell 402, elapsed: 0.0065572261810302734
ell 401, elapsed: 0.0003979206085205078
ell 400, elapsed: 0.00037384033203125
ell 399, elapsed: 0.000370025634765625
ell 398, elapsed: 0.0009272098541259766
ell 302, elapsed: 0.006407976150512695
ell 301, elapsed: 0.0005469322204589844
ell 300, elapsed: 0.0013790130615234375
ell 299, elapsed: 0.0005869865417480469
ell 298, elapsed: 0.0005848407745361328
ell 202, elapsed: 0.007885932922363281
ell 201, elapsed: 0.00039196014404296875
ell 200, elapsed: 0.0003750324249267578
ell 199, elapsed: 0.0003731250762939453
ell 198, elapsed: 0.0003809928894042969
ell 152, elapsed: 0.0035429000854492188
ell 151, elapsed: 0.0003910064697265625
ell 150, elapsed: 0.0003719329833984375
ell 149, elapsed: 0.0003719329833984375
ell 148, elapsed: 0.000370025634765625
ell 127, elapsed: 0.0023641586303710938
ell 126, elapsed: 0.00038695335388183594
ell 125, elapsed: 0.0003688335418701172
ell 124, elapsed: 0.0003681182861328125
ell 123, elapsed: 0.00036907196044921875
ell 114, elapsed: 0.0008859634399414062
ell 113, elapsed: 0.0012099742889404297
ell 112, elapsed: 0.0005040168762207031
ell 111, elapsed: 0.0005800724029541016
ell 110, elapsed: 0.0005869865417480469
ell 102, elapsed: 0.0022361278533935547
ell 101, elapsed: 0.0003829002380371094
ell 100, elapsed: 0.0003669261932373047
ell 99, elapsed: 0.00036406517028808594
ell 98, elapsed: 0.0003612041473388672
ell 97, elapsed: 0.0004451274871826172
ell 96, elapsed: 0.0004260540008544922
ell 95, elapsed: 0.0014159679412841797
ell 94, elapsed: 0.000637054443359375
ell 93, elapsed: 0.0006780624389648438
ell 92, elapsed: 0.0005772113800048828
ell 91, elapsed: 0.000431060791015625
ell 90, elapsed: 0.001474142074584961
ell 89, elapsed: 0.000431060791015625
ell 88, elapsed: 0.0004298686981201172
ell 87, elapsed: 0.000431060791015625
ell 86, elapsed: 0.0004258155822753906
ell 85, elapsed: 0.0004291534423828125
ell 84, elapsed: 0.0013878345489501953
ell 83, elapsed: 0.00043201446533203125
ell 82, elapsed: 0.0004410743713378906
ell 81, elapsed: 0.00043582916259765625
ell 80, elapsed: 0.0004429817199707031
ell 79, elapsed: 0.000431060791015625
ell 78, elapsed: 0.004849910736083984
ell 77, elapsed: 0.0005230903625488281
ell 76, elapsed: 0.00044989585876464844
ell 75, elapsed: 0.00044608116149902344
ell 74, elapsed: 0.0004420280456542969
ell 73, elapsed: 0.00043702125549316406
ell 72, elapsed: 0.0004420280456542969
ell 71, elapsed: 0.0011050701141357422
ell 70, elapsed: 0.00045013427734375
ell 69, elapsed: 0.00043892860412597656
ell 68, elapsed: 0.00044083595275878906
ell 67, elapsed: 0.0004401206970214844
ell 66, elapsed: 0.0004379749298095703
ell 65, elapsed: 0.0004401206970214844
ell 64, elapsed: 0.0010662078857421875
ell 63, elapsed: 0.00043487548828125
ell 62, elapsed: 0.0004379749298095703
ell 61, elapsed: 0.0005040168762207031
ell 60, elapsed: 0.0006029605865478516
ell 59, elapsed: 0.00043392181396484375
ell 58, elapsed: 0.0010650157928466797
ell 57, elapsed: 0.0004410743713378906
ell 56, elapsed: 0.0004429817199707031
ell 55, elapsed: 0.00044608116149902344
ell 54, elapsed: 0.0004401206970214844
ell 53, elapsed: 0.0004429817199707031
ell 52, elapsed: 0.00043892860412597656
ell 51, elapsed: 0.001055002212524414
ell 50, elapsed: 0.0004379749298095703
ell 49, elapsed: 0.00043010711669921875
ell 48, elapsed: 0.00043201446533203125
ell 47, elapsed: 0.0004229545593261719
ell 46, elapsed: 0.0004258155822753906
ell 45, elapsed: 0.00043511390686035156
ell 44, elapsed: 0.0010409355163574219
ell 43, elapsed: 0.0004329681396484375
ell 42, elapsed: 0.0004239082336425781
ell 41, elapsed: 0.0004298686981201172
ell 40, elapsed: 0.00043392181396484375
ell 39, elapsed: 0.000431060791015625
[...]
ell 789, elapsed: 0.0006449222564697266
ell 788, elapsed: 0.0006530284881591797
ell 782, elapsed: 0.0011229515075683594
ell 781, elapsed: 0.0006310939788818359
ell 780, elapsed: 0.0006439685821533203
ell 779, elapsed: 0.0006399154663085938
ell 778, elapsed: 0.0006480216979980469
ell 772, elapsed: 0.0011360645294189453
ell 771, elapsed: 0.0006392002105712891
ell 770, elapsed: 0.0006430149078369141
ell 769, elapsed: 0.0006289482116699219
ell 768, elapsed: 0.0006570816040039062
ell 762, elapsed: 0.0022280216217041016
ell 761, elapsed: 0.001435995101928711
ell 760, elapsed: 0.0014619827270507812
ell 759, elapsed: 0.0014309883117675781
ell 758, elapsed: 0.0014650821685791016
ell 752, elapsed: 0.0027680397033691406
ell 751, elapsed: 0.0011069774627685547
ell 750, elapsed: 0.0008311271667480469
ell 749, elapsed: 0.0008230209350585938
ell 748, elapsed: 0.0008299350738525391
ell 742, elapsed: 0.0016529560089111328
ell 741, elapsed: 0.0009930133819580078
ell 740, elapsed: 0.0009949207305908203
ell 739, elapsed: 0.0009989738464355469
ell 738, elapsed: 0.0009500980377197266
ell 732, elapsed: 0.0015149116516113281
ell 731, elapsed: 0.0008249282836914062
ell 730, elapsed: 0.0009319782257080078
ell 729, elapsed: 0.0009899139404296875
ell 728, elapsed: 0.0009980201721191406
ell 722, elapsed: 0.0018279552459716797
ell 721, elapsed: 0.0009920597076416016
ell 720, elapsed: 0.0008728504180908203
ell 719, elapsed: 0.0008220672607421875
ell 718, elapsed: 0.0008511543273925781
ell 712, elapsed: 0.0015192031860351562
ell 711, elapsed: 0.0008327960968017578
ell 710, elapsed: 0.0008459091186523438
ell 709, elapsed: 0.0009279251098632812
ell 708, elapsed: 0.0009968280792236328
ell 702, elapsed: 0.0017948150634765625
ell 701, elapsed: 0.0009992122650146484
ell 700, elapsed: 0.0009829998016357422
ell 699, elapsed: 0.0009911060333251953
ell 698, elapsed: 0.0009970664978027344
ell 692, elapsed: 0.0018122196197509766
ell 691, elapsed: 0.0009930133819580078
ell 690, elapsed: 0.0009431838989257812
ell 689, elapsed: 0.0009679794311523438
ell 688, elapsed: 0.0011701583862304688
ell 682, elapsed: 0.002413034439086914
ell 681, elapsed: 0.0012340545654296875
ell 680, elapsed: 0.0012590885162353516
ell 679, elapsed: 0.0012371540069580078
ell 678, elapsed: 0.0012538433074951172
ell 672, elapsed: 0.0022728443145751953
ell 671, elapsed: 0.0012249946594238281
ell 670, elapsed: 0.0013349056243896484
ell 669, elapsed: 0.0011789798736572266
ell 668, elapsed: 0.0008289813995361328
ell 662, elapsed: 0.0015180110931396484
ell 661, elapsed: 0.0008230209350585938
ell 660, elapsed: 0.0009539127349853516
ell 659, elapsed: 0.0009899139404296875
ell 658, elapsed: 0.0009980201721191406
ell 652, elapsed: 0.0018270015716552734
ell 651, elapsed: 0.0009889602661132812
ell 650, elapsed: 0.0008978843688964844
ell 649, elapsed: 0.000823974609375
ell 648, elapsed: 0.0008449554443359375
ell 642, elapsed: 0.0015130043029785156
ell 641, elapsed: 0.0008280277252197266
ell 640, elapsed: 0.0008280277252197266
ell 639, elapsed: 0.0009748935699462891
ell 638, elapsed: 0.0008909702301025391
ell 632, elapsed: 0.0014879703521728516
ell 631, elapsed: 0.0008330345153808594
ell 630, elapsed: 0.0008289813995361328
ell 629, elapsed: 0.0008220672607421875
ell 628, elapsed: 0.0008261203765869141
ell 622, elapsed: 0.001428842544555664
ell 621, elapsed: 0.0006580352783203125
ell 620, elapsed: 0.0006577968597412109
ell 619, elapsed: 0.0006368160247802734
ell 618, elapsed: 0.0006420612335205078
ell 612, elapsed: 0.0011451244354248047
ell 611, elapsed: 0.0006489753723144531
ell 610, elapsed: 0.0006489753723144531
ell 609, elapsed: 0.0006458759307861328
ell 608, elapsed: 0.0006618499755859375
ell 602, elapsed: 0.0011191368103027344
ell 601, elapsed: 0.0006468296051025391
ell 600, elapsed: 0.0006511211395263672
ell 599, elapsed: 0.0006470680236816406
ell 598, elapsed: 0.0006570816040039062
ell 592, elapsed: 0.0013480186462402344
ell 591, elapsed: 0.001394033432006836
ell 590, elapsed: 0.0013549327850341797
ell 589, elapsed: 0.0008909702301025391
ell 588, elapsed: 0.0013210773468017578
ell 582, elapsed: 0.00257110595703125
ell 581, elapsed: 0.001093149185180664
ell 580, elapsed: 0.0008399486541748047
ell 579, elapsed: 0.0008361339569091797
ell 578, elapsed: 0.001081228256225586
ell 572, elapsed: 0.0025200843811035156
ell 571, elapsed: 0.00197601318359375
ell 570, elapsed: 0.0012679100036621094
ell 569, elapsed: 0.0012950897216796875
ell 568, elapsed: 0.0008499622344970703
ell 562, elapsed: 0.001528024673461914
ell 561, elapsed: 0.0008351802825927734
ell 560, elapsed: 0.0009808540344238281
ell 559, elapsed: 0.0012500286102294922
ell 558, elapsed: 0.0012688636779785156
ell 552, elapsed: 0.002398967742919922
ell 551, elapsed: 0.0012629032135009766
ell 550, elapsed: 0.0012819766998291016
ell 549, elapsed: 0.001302957534790039
ell 548, elapsed: 0.0013720989227294922
ell 542, elapsed: 0.0026099681854248047
ell 541, elapsed: 0.0013630390167236328
ell 540, elapsed: 0.0013840198516845703
ell 539, elapsed: 0.0013699531555175781
ell 538, elapsed: 0.0014569759368896484
ell 532, elapsed: 0.0029418468475341797
ell 531, elapsed: 0.0013279914855957031
ell 530, elapsed: 0.0016531944274902344
ell 529, elapsed: 0.0014319419860839844
ell 528, elapsed: 0.0014238357543945312
ell 522, elapsed: 0.0027289390563964844
ell 521, elapsed: 0.001438140869140625
ell 520, elapsed: 0.0014488697052001953
ell 519, elapsed: 0.0014369487762451172
ell 518, elapsed: 0.0014469623565673828
ell 512, elapsed: 0.002901792526245117
ell 511, elapsed: 0.0013179779052734375
ell 510, elapsed: 0.0014121532440185547
ell 509, elapsed: 0.001165151596069336
ell 508, elapsed: 0.0010139942169189453
ell 502, elapsed: 0.0018510818481445312
ell 501, elapsed: 0.0010080337524414062
ell 500, elapsed: 0.001013040542602539
ell 499, elapsed: 0.0010209083557128906
ell 498, elapsed: 0.0010149478912353516
ell 492, elapsed: 0.0018320083618164062
ell 491, elapsed: 0.0010180473327636719
ell 490, elapsed: 0.0010120868682861328
ell 489, elapsed: 0.0010030269622802734
ell 488, elapsed: 0.001013040542602539
ell 482, elapsed: 0.0018451213836669922
ell 481, elapsed: 0.0007519721984863281
ell 480, elapsed: 0.0006659030914306641
ell 479, elapsed: 0.0006349086761474609
ell 478, elapsed: 0.0006549358367919922
ell 472, elapsed: 0.0011229515075683594
ell 471, elapsed: 0.0006668567657470703
ell 470, elapsed: 0.0006699562072753906
ell 469, elapsed: 0.0006501674652099609
ell 468, elapsed: 0.0006639957427978516
ell 462, elapsed: 0.0011429786682128906
ell 461, elapsed: 0.0009419918060302734
ell 460, elapsed: 0.001010894775390625
ell 459, elapsed: 0.001024007797241211
ell 458, elapsed: 0.0010099411010742188
ell 452, elapsed: 0.0018160343170166016
ell 451, elapsed: 0.0016169548034667969
ell 450, elapsed: 0.001399993896484375
ell 449, elapsed: 0.0013968944549560547
ell 448, elapsed: 0.0013802051544189453
ell 442, elapsed: 0.0025780200958251953
ell 441, elapsed: 0.0011911392211914062
ell 440, elapsed: 0.0012202262878417969
ell 439, elapsed: 0.0013759136199951172
ell 438, elapsed: 0.0013649463653564453
ell 432, elapsed: 0.0025949478149414062
ell 431, elapsed: 0.0015408992767333984
ell 430, elapsed: 0.0013680458068847656
ell 429, elapsed: 0.0013670921325683594
ell 428, elapsed: 0.0013790130615234375
ell 422, elapsed: 0.002604961395263672
ell 421, elapsed: 0.0013620853424072266
ell 420, elapsed: 0.0016360282897949219
ell 419, elapsed: 0.0013670921325683594
ell 418, elapsed: 0.0014081001281738281
ell 412, elapsed: 0.0025680065155029297
ell 411, elapsed: 0.0013689994812011719
ell 410, elapsed: 0.0013718605041503906
ell 409, elapsed: 0.0013821125030517578
ell 408, elapsed: 0.0013918876647949219
ell 402, elapsed: 0.0026040077209472656
ell 401, elapsed: 0.0013709068298339844
ell 400, elapsed: 0.0013680458068847656
ell 399, elapsed: 0.0013709068298339844
ell 398, elapsed: 0.0013649463653564453
ell 392, elapsed: 0.0026030540466308594
ell 391, elapsed: 0.0014510154724121094
ell 390, elapsed: 0.0013649463653564453
ell 389, elapsed: 0.0013859272003173828
ell 388, elapsed: 0.0013649463653564453
ell 382, elapsed: 0.0027570724487304688
ell 381, elapsed: 0.0012650489807128906
ell 380, elapsed: 0.00138092041015625
ell 379, elapsed: 0.0013549327850341797
ell 378, elapsed: 0.0013699531555175781
ell 372, elapsed: 0.002591848373413086
ell 371, elapsed: 0.001363992691040039
ell 370, elapsed: 0.00138092041015625
ell 369, elapsed: 0.001355886459350586
ell 368, elapsed: 0.0013859272003173828
ell 362, elapsed: 0.0026078224182128906
ell 361, elapsed: 0.0013871192932128906
ell 360, elapsed: 0.0013701915740966797
ell 359, elapsed: 0.0013701915740966797
ell 358, elapsed: 0.001355886459350586
ell 352, elapsed: 0.0024700164794921875
ell 351, elapsed: 0.0010159015655517578
ell 350, elapsed: 0.0010159015655517578
ell 349, elapsed: 0.0010089874267578125
ell 348, elapsed: 0.0010221004486083984
ell 342, elapsed: 0.0019948482513427734
ell 341, elapsed: 0.0009558200836181641
ell 340, elapsed: 0.0010330677032470703
ell 339, elapsed: 0.0009438991546630859
ell 338, elapsed: 0.0006630420684814453
ell 332, elapsed: 0.0011379718780517578
ell 331, elapsed: 0.0009131431579589844
ell 330, elapsed: 0.0014369487762451172
ell 329, elapsed: 0.0014069080352783203
ell 328, elapsed: 0.0013628005981445312
ell 322, elapsed: 0.0028901100158691406
ell 321, elapsed: 0.0014109611511230469
ell 320, elapsed: 0.0014348030090332031
ell 319, elapsed: 0.0016150474548339844
ell 318, elapsed: 0.001352071762084961
ell 312, elapsed: 0.0029900074005126953
ell 311, elapsed: 0.002132892608642578
ell 310, elapsed: 0.002111196517944336
ell 309, elapsed: 0.0014019012451171875
ell 308, elapsed: 0.0013129711151123047
ell 302, elapsed: 0.001544952392578125
ell 301, elapsed: 0.0008389949798583984
ell 300, elapsed: 0.0008409023284912109
ell 299, elapsed: 0.0008370876312255859
ell 298, elapsed: 0.0008509159088134766
ell 292, elapsed: 0.0027170181274414062
ell 291, elapsed: 0.0012710094451904297
ell 290, elapsed: 0.001271963119506836
ell 289, elapsed: 0.0013480186462402344
ell 288, elapsed: 0.0013580322265625
ell 282, elapsed: 0.0024199485778808594
ell 281, elapsed: 0.0013399124145507812
ell 280, elapsed: 0.0013599395751953125
ell 279, elapsed: 0.0013539791107177734
ell 278, elapsed: 0.001336812973022461
ell 272, elapsed: 0.002421140670776367
ell 271, elapsed: 0.0013589859008789062
ell 270, elapsed: 0.0013740062713623047
ell 269, elapsed: 0.0015909671783447266
ell 268, elapsed: 0.0013430118560791016
ell 262, elapsed: 0.0024781227111816406
ell 261, elapsed: 0.0012760162353515625
ell 260, elapsed: 0.0015261173248291016
ell 259, elapsed: 0.0012788772583007812
ell 258, elapsed: 0.0012879371643066406
ell 252, elapsed: 0.0023679733276367188
ell 251, elapsed: 0.0012791156768798828
ell 250, elapsed: 0.0012640953063964844
ell 249, elapsed: 0.0012700557708740234
ell 248, elapsed: 0.0012960433959960938
ell 242, elapsed: 0.0019729137420654297
ell 241, elapsed: 0.0010221004486083984
ell 240, elapsed: 0.001013040542602539
ell 239, elapsed: 0.001013040542602539
ell 238, elapsed: 0.0010149478912353516
ell 232, elapsed: 0.0018610954284667969
ell 231, elapsed: 0.0010101795196533203
ell 230, elapsed: 0.0010149478912353516
ell 229, elapsed: 0.001016855239868164
ell 228, elapsed: 0.0012650489807128906
ell 222, elapsed: 0.0018169879913330078
ell 221, elapsed: 0.0010139942169189453
ell 220, elapsed: 0.001010894775390625
ell 219, elapsed: 0.0009999275207519531
ell 218, elapsed: 0.0007839202880859375
ell 212, elapsed: 0.0012791156768798828
ell 211, elapsed: 0.0006470680236816406
ell 210, elapsed: 0.0006389617919921875
ell 209, elapsed: 0.0006401538848876953
ell 208, elapsed: 0.0006449222564697266
ell 202, elapsed: 0.002505064010620117
ell 201, elapsed: 0.0012230873107910156
ell 200, elapsed: 0.0015001296997070312
ell 199, elapsed: 0.0012409687042236328
ell 198, elapsed: 0.0012710094451904297
ell 192, elapsed: 0.002505064010620117
ell 191, elapsed: 0.001199960708618164
ell 190, elapsed: 0.0012881755828857422
ell 189, elapsed: 0.001271963119506836
ell 188, elapsed: 0.0012891292572021484
ell 182, elapsed: 0.002351999282836914
ell 181, elapsed: 0.0012710094451904297
ell 180, elapsed: 0.001463174819946289
ell 179, elapsed: 0.0012559890747070312
ell 178, elapsed: 0.001199960708618164
ell 172, elapsed: 0.0020952224731445312
ell 171, elapsed: 0.001171112060546875
ell 170, elapsed: 0.0014081001281738281
ell 169, elapsed: 0.0011439323425292969
ell 168, elapsed: 0.001184225082397461
ell 162, elapsed: 0.002357006072998047
ell 161, elapsed: 0.0012819766998291016
ell 160, elapsed: 0.0012500286102294922
ell 159, elapsed: 0.0012569427490234375
ell 158, elapsed: 0.0012590885162353516
ell 152, elapsed: 0.002351045608520508
ell 151, elapsed: 0.0012710094451904297
ell 150, elapsed: 0.0012249946594238281
ell 149, elapsed: 0.0012629032135009766
ell 148, elapsed: 0.0012569427490234375
ell 142, elapsed: 0.0024149417877197266
ell 141, elapsed: 0.0012540817260742188
ell 140, elapsed: 0.0012688636779785156
ell 139, elapsed: 0.0014870166778564453
ell 138, elapsed: 0.0012559890747070312
ell 132, elapsed: 0.0023849010467529297
ell 131, elapsed: 0.0012531280517578125
ell 130, elapsed: 0.0012590885162353516
ell 129, elapsed: 0.0012578964233398438
ell 128, elapsed: 0.0012559890747070312
ell 122, elapsed: 0.002341032028198242
ell 121, elapsed: 0.0012559890747070312
ell 120, elapsed: 0.0012569427490234375
ell 119, elapsed: 0.001249074935913086
ell 118, elapsed: 0.0012769699096679688
ell 112, elapsed: 0.002373218536376953
ell 111, elapsed: 0.001009225845336914
ell 110, elapsed: 0.001026153564453125
ell 109, elapsed: 0.0010020732879638672
ell 108, elapsed: 0.0010120868682861328
ell 102, elapsed: 0.0018389225006103516
ell 101, elapsed: 0.004462003707885742
ell 100, elapsed: 0.003950834274291992
ell 99, elapsed: 0.004002094268798828
ell 98, elapsed: 0.003164052963256836
ell 92, elapsed: 0.00654911994934082
ell 91, elapsed: 0.004967927932739258
ell 90, elapsed: 0.005227088928222656
ell 89, elapsed: 0.005237102508544922
ell 88, elapsed: 0.004950046539306641
ell 82, elapsed: 0.009781837463378906
ell 81, elapsed: 0.005012989044189453
ell 80, elapsed: 0.0050699710845947266
ell 79, elapsed: 0.005014181137084961
ell 78, elapsed: 0.00497889518737793
ell 72, elapsed: 0.00957798957824707
ell 71, elapsed: 0.005217075347900391
ell 70, elapsed: 0.0047299861907958984
ell 69, elapsed: 0.004014015197753906
ell 68, elapsed: 0.004040956497192383
ell 62, elapsed: 0.007591962814331055
ell 61, elapsed: 0.00345611572265625
ell 60, elapsed: 0.00263214111328125
ell 59, elapsed: 0.002644062042236328
ell 58, elapsed: 0.00534510612487793
ell 52, elapsed: 0.009523868560791016
ell 51, elapsed: 0.005056142807006836
ell 50, elapsed: 0.004998922348022461
ell 49, elapsed: 0.005339145660400391
ell 48, elapsed: 0.005054950714111328
ell 42, elapsed: 0.00980687141418457
ell 41, elapsed: 0.0051500797271728516
ell 40, elapsed: 0.005125999450683594
ell 39, elapsed: 0.004991054534912109
ell 38, elapsed: 0.004899024963378906
ell 32, elapsed: 0.007853031158447266
ell 31, elapsed: 0.004028797149658203
ell 30, elapsed: 0.0040280818939208984
ell 29, elapsed: 0.0040209293365478516
ell 28, elapsed: 0.0040111541748046875
ell 22, elapsed: 0.007858037948608398
ell 21, elapsed: 0.005066871643066406
ell 20, elapsed: 0.005254030227661133
ell 19, elapsed: 0.005099058151245117
ell 18, elapsed: 0.005095005035400391
ell 12, elapsed: 0.009064912796020508
ell 11, elapsed: 0.004949092864990234
ell 10, elapsed: 0.0048980712890625
ell 9, elapsed: 0.005328178405761719
ell 8, elapsed: 0.005023956298828125
  0.981537 seconds (97.35 k allocations: 12.615 MiB)
elapsed: 0.0064928531646728516
step:          0.084899 sec (0 allocations: 0 byte, 0.0% gc time)
swapping:      0.000737 sec (0 allocations: 0 byte, 0.0% gc time)
calc_Mellell!: 0.064944 sec (0 allocations: 0 byte, 0.0% gc time)
  t0 :  0.010465 sec (0 allocations: 0 byte, 0.0% gc time)
  tm2 : 0.091962 sec (0 allocations: 0 byte, 0.0% gc time)
  tm2s: 0.008536 sec (0 allocations: 0 byte, 0.0% gc time)
  tm4 : 0.213841 sec (0 allocations: 0 byte, 0.0% gc time)
  tp2 : 0.0 sec (0 allocations: 0 byte, 0.0% gc time)
  tp2s: 0.0 sec (0 allocations: 0 byte, 0.0% gc time)
  tp4 : 0.0 sec (0 allocations: 0 byte, 0.0% gc time)
calc_wtdll!:   0.65343 sec (48.6 k allocations: 11.096 MB, 0.0% gc time)
calc_wljj!:    0.040886 sec (69 allocations: 1.078 KB, 0.0% gc time)
mult_prefac!:  0.0 sec (0 allocations: 0 byte, 0.0% gc time)
convert:       0.0 sec (0 allocations: 0 byte, 0.0% gc time)
write:         0.04566 sec (0 allocations: 0 byte, 0.0% gc time)
test_rand_2f1: 0.0 sec (0 allocations: 0 byte, 0.0% gc time)
Closing outfile out/MlCache/MlCache.bin...   0.000011 seconds
xi, l=0, nu=0:   0.334394 seconds (603.12 k allocations: 32.981 MiB)
xi, l=0, nu=-2:  0.002444 seconds (114 allocations: 148.969 KiB)
Created 'out/xi.tsv'.
  q=1.1, R=0.6:	  0.761833 seconds (264.52 k allocations: 38.099 MiB)
  q=1.1, R=0.7:	  1.039012 seconds (276.46 k allocations: 40.114 MiB, 1.56% gc time)
  q=1.1, R=0.8:	  1.024522 seconds (271.68 k allocations: 39.302 MiB, 1.50% gc time)
  q=1.1, R=0.9:	  1.105006 seconds (266.62 k allocations: 38.459 MiB, 0.74% gc time)
  q=1.1, R=0.998:	 20.816673 seconds (114.96 k allocations: 7.588 MiB)
  q=1.1, R=1.0:	  0.003930 seconds (8.20 k allocations: 704.344 KiB)

ℓ = 1000
Δℓ = 4
ΔℓRg1 = -4
N = 4096
q = 1.1
kmin = 1.0e-5
kmax = 1000.0
χ0 = 0.001
RR = RR.tsv
ℓmax = ℓmax.bin
f21 = f21.bin
kmin = 1.0e-5
kmax = 1000.0
dlrec    = 4
dlrecRg1 = -4
Output size: 1573632 bytes = 0.0014655590057373047 GiB
Output size: 786816 bytes = 0.0007327795028686523 GiB
Reading 'out/F21EllCache'...   0.062384 seconds (11.04 k allocations: 1.195 MiB, 35.05% gc time)
ellmax: 1002
lmaxcache: 1000
fell[:,1,1] = ComplexF64[1.7262928128202118e-224 - 4.2281979352226944e-240im, 1.7282693092099662e-224 - 4.233038955177176e-240im]
ell 1002, elapsed: 6.699562072753906e-5
ell 1001, elapsed: 0.0008800029754638672
ell 1000, elapsed: 0.0008950233459472656
ell 999, elapsed: 0.00554203987121582
ell 998, elapsed: 0.005527019500732422
ell 44, elapsed: 0.6897780895233154
ell 43, elapsed: 0.005413055419921875
ell 42, elapsed: 0.0044879913330078125
ell 41, elapsed: 0.005749940872192383
ell 40, elapsed: 0.005591869354248047
  0.731351 seconds (5.05 k allocations: 329.328 KiB)
elapsed: 0.006376028060913086
step:          0.686492 sec (0 allocations: 0 byte, 0.0% gc time)
swapping:      0.000535 sec (0 allocations: 0 byte, 0.0% gc time)
calc_Mellell!: 0.00131 sec (0 allocations: 0 byte, 0.0% gc time)
  t0 :  0.000416 sec (0 allocations: 0 byte, 0.0% gc time)
  tm2 : 0.009968 sec (0 allocations: 0 byte, 0.0% gc time)
  tm2s: 0.000253 sec (0 allocations: 0 byte, 0.0% gc time)
  tm4 : 0.025683 sec (0 allocations: 0 byte, 0.0% gc time)
  tp2 : 0.0 sec (0 allocations: 0 byte, 0.0% gc time)
  tp2s: 0.0 sec (0 allocations: 0 byte, 0.0% gc time)
  tp4 : 0.0 sec (0 allocations: 0 byte, 0.0% gc time)
calc_wtdll!:   0.036496 sec (480 allocations: 52.5 KB, 0.0% gc time)
calc_wljj!:    0.001316 sec (1 allocations: 16 byte, 0.0% gc time)
mult_prefac!:  0.0 sec (0 allocations: 0 byte, 0.0% gc time)
convert:       0.0 sec (0 allocations: 0 byte, 0.0% gc time)
write:         0.000896 sec (0 allocations: 0 byte, 0.0% gc time)
test_rand_2f1: 0.0 sec (0 allocations: 0 byte, 0.0% gc time)
Closing outfile out/MlCache/MlCache.bin...   0.000008 seconds
  0.601173 seconds (38 allocations: 66.859 KiB)
make_phi():   0.010120 seconds (65 allocations: 275.984 KiB)
  0.046051 seconds (11.42 k allocations: 711.851 KiB)
tskip:       1.0e-6 sec (0 allocations: 0 byte, 0.0% gc time)
tread:       0.000779 sec (17 allocations: 1.266 KB, 0.0% gc time)
tmultphi:    0.000411 sec (0 allocations: 0 byte, 0.0% gc time)
tbrfft:      0.001624 sec (0 allocations: 0 byte, 0.0% gc time)
tmultprefac: 0.001884 sec (0 allocations: 0 byte, 0.0% gc time)
toutfunc:    0.000204 sec (0 allocations: 0 byte, 0.0% gc time)
Created 'out/wl42_jj00.tsv'.
Created 'out/wl42_jj02.tsv'.
    Testing TwoFAST tests passed 
