Julia Version 1.6.0-DEV.1007
Commit f6a8dcbbd3* (2020-09-22 17:36 UTC)
Platform Info:
  OS: Linux (x86_64-linux-gnu)
  CPU: Intel(R) Xeon(R) Silver 4114 CPU @ 2.20GHz
  WORD_SIZE: 64
  LIBM: libopenlibm
  LLVM: libLLVM-9.0.1 (ORCJIT, skylake-avx512)
Environment:
  JULIA_DEPOT_PATH = ::/usr/local/share/julia
  JULIA_NUM_THREADS = 2

  Resolving package versions...
  Installed Reexport ───────────────────── v0.2.0
  Installed IntelOpenMP_jll ────────────── v2018.0.3+0
  Installed GenericSVD ─────────────────── v0.3.0
  Installed OpenSpecFun_jll ────────────── v0.5.3+3
  Installed FFTW_jll ───────────────────── v3.3.9+5
  Installed GenericSchur ───────────────── v0.4.0
  Installed ArbNumerics ────────────────── v1.2.1
  Installed FFTW ───────────────────────── v1.2.4
  Installed AbstractFFTs ───────────────── v0.5.0
  Installed SpecialFunctions ───────────── v0.10.3
  Installed Readables ──────────────────── v0.3.3
  Installed TwoFAST ────────────────────── v0.1.3
  Installed MKL_jll ────────────────────── v2020.2.254+0
  Installed CompilerSupportLibraries_jll ─ v0.3.3+0
  Installed BinaryProvider ─────────────── v0.5.10
Updating `~/.julia/environments/v1.6/Project.toml`
  [0dd23c3e] + TwoFAST v0.1.3
Updating `~/.julia/environments/v1.6/Manifest.toml`
  [621f4979] + AbstractFFTs v0.5.0
  [7e558dbc] + ArbNumerics v1.2.1
  [b99e7846] + BinaryProvider v0.5.10
  [e66e0078] + CompilerSupportLibraries_jll v0.3.3+0
  [7a1cc6ca] + FFTW v1.2.4
  [f5851436] + FFTW_jll v3.3.9+5
  [01680d73] + GenericSVD v0.3.0
  [c145ed77] + GenericSchur v0.4.0
  [1d5cc7b8] + IntelOpenMP_jll v2018.0.3+0
  [856f044c] + MKL_jll v2020.2.254+0
  [efe28fd5] + OpenSpecFun_jll v0.5.3+3
  [0d4725de] + Readables v0.3.3
  [189a3867] + Reexport v0.2.0
  [276daf66] + SpecialFunctions v0.10.3
  [0dd23c3e] + TwoFAST v0.1.3
  [56f22d72] + Artifacts
  [2a0f44e3] + Base64
  [ade2ca70] + Dates
  [8bb1440f] + DelimitedFiles
  [8ba89e20] + Distributed
  [b77e0a4c] + InteractiveUtils
  [76f85450] + LibGit2
  [8f399da3] + Libdl
  [37e2e46d] + LinearAlgebra
  [56ddb016] + Logging
  [d6f4376e] + Markdown
  [a63ad114] + Mmap
  [44cfe95a] + Pkg
  [de0858da] + Printf
  [3fa0cd96] + REPL
  [9a3f8284] + Random
  [ea8e919c] + SHA
  [9e88b42a] + Serialization
  [6462fe0b] + Sockets
  [fa267f1f] + TOML
  [8dfed614] + Test
  [cf7118a7] + UUIDs
  [4ec0a83e] + Unicode
   Building ArbNumerics → `~/.julia/packages/ArbNumerics/joGFm/deps/build.log`
   Building FFTW ───────→ `~/.julia/packages/FFTW/DMUbN/deps/build.log`
    Testing TwoFAST
Status `/tmp/jl_pc0z82/Project.toml`
  [7e558dbc] ArbNumerics v1.2.1
  [39dd38d3] Dierckx v0.5.0
  [7a1cc6ca] FFTW v1.2.4
  [276daf66] SpecialFunctions v0.10.3
  [0dd23c3e] TwoFAST v0.1.3
  [8bb1440f] DelimitedFiles
  [37e2e46d] LinearAlgebra
  [56ddb016] Logging
  [8dfed614] Test
Status `/tmp/jl_pc0z82/Manifest.toml`
  [621f4979] AbstractFFTs v0.5.0
  [7e558dbc] ArbNumerics v1.2.1
  [b99e7846] BinaryProvider v0.5.10
  [e66e0078] CompilerSupportLibraries_jll v0.3.3+0
  [39dd38d3] Dierckx v0.5.0
  [cd4c43a9] Dierckx_jll v0.0.1+0
  [7a1cc6ca] FFTW v1.2.4
  [f5851436] FFTW_jll v3.3.9+5
  [01680d73] GenericSVD v0.3.0
  [c145ed77] GenericSchur v0.4.0
  [1d5cc7b8] IntelOpenMP_jll v2018.0.3+0
  [856f044c] MKL_jll v2020.2.254+0
  [efe28fd5] OpenSpecFun_jll v0.5.3+3
  [0d4725de] Readables v0.3.3
  [189a3867] Reexport v0.2.0
  [276daf66] SpecialFunctions v0.10.3
  [0dd23c3e] TwoFAST v0.1.3
  [56f22d72] Artifacts
  [2a0f44e3] Base64
  [ade2ca70] Dates
  [8bb1440f] DelimitedFiles
  [8ba89e20] Distributed
  [b77e0a4c] InteractiveUtils
  [76f85450] LibGit2
  [8f399da3] Libdl
  [37e2e46d] LinearAlgebra
  [56ddb016] Logging
  [d6f4376e] Markdown
  [a63ad114] Mmap
  [44cfe95a] Pkg
  [de0858da] Printf
  [3fa0cd96] REPL
  [9a3f8284] Random
  [ea8e919c] SHA
  [9e88b42a] Serialization
  [6462fe0b] Sockets
  [fa267f1f] TOML
  [8dfed614] Test
  [cf7118a7] UUIDs
  [4ec0a83e] Unicode
    Testing Running tests...
WARNING: could not import Printf.ini_hex into ArbNumerics
WARNING: could not import Printf.ini_HEX into ArbNumerics
t = 0.0 sec (0 allocations: 0 byte, 0.0% gc time)
typeof(t) = NamedTuple{(:value, :time, :bytes, :gctime, :gcstats), Tuple{DataType, Float64, Int64, Float64, Base.GC_Diff}}
TwoFAST.PerformanceStats.TimedType = Union{NamedTuple{(:value, :time, :bytes, :gctime, :gcstats), Tuple{T, Float64, Int64, Float64, Base.GC_Diff}}, Tuple{Any, Float64, Int64, Float64, Base.GC_Diff}} where T
t = 1.0e-6 sec (0 allocations: 0 byte, 0.0% gc time)
t: 1.0e-6 sec (0 allocations: 0 byte, 0.0% gc time)
Testing ξ(r), ℓ=0, ν=-1 ... passed
Testing ξ(r), ℓ=0, ν=0 ... passed
Testing ξ(r), ℓ=0, ν=1 ... passed
Testing ξ(r), ℓ=0, ν=2 ... passed
Testing ξ(r), ℓ=0, ν=3 ... passed
Testing ξ(r), ℓ=1, ν=0 ... passed
Testing ξ(r), ℓ=1, ν=1 ... passed
Testing ξ(r), ℓ=1, ν=2 ... passed
Testing ξ(r), ℓ=1, ν=3 ... passed
Testing ξ(r), ℓ=2, ν=-1 ... passed
Testing ξ(r), ℓ=2, ν=0 ... passed
Testing ξ(r), ℓ=2, ν=1 ... passed
Testing ξ(r), ℓ=2, ν=2 ... passed
Testing ξ(r), ℓ=2, ν=3 ... passed
Testing ξ(r), ℓ=3, ν=-1 ... passed
Testing ξ(r), ℓ=3, ν=0 ... passed
Testing ξ(r), ℓ=3, ν=1 ... passed
Testing ξ(r), ℓ=3, ν=2 ... passed
Testing ξ(r), ℓ=3, ν=3 ... passed
Testing ξ(r), ℓ=4, ν=-1 ... passed
Testing ξ(r), ℓ=4, ν=0 ... passed
Testing ξ(r), ℓ=4, ν=1 ... passed
Testing ξ(r), ℓ=4, ν=2 ... passed
Testing ξ(r), ℓ=4, ν=3 ... passed
Testing ξ(r) ... passed
Testing ξ′(r) ... passed
Testing ξ″(r) ... passed
Calculating fmax: 
  dlrec    = 4
  dlrecRg1 = -4
  q=1.1, R=1.1:	  4.221218 seconds (838.78 k allocations: 53.508 MiB, 1.08% gc time)

  4.236609 seconds (851.45 k allocations: 54.298 MiB, 1.08% gc time)
ℓ = 1202
Δℓ = 4
ΔℓRg1 = -4
N = 1600
q = 1.1
kmin = 1.0e-5
kmax = 100000.00000000004
χ0 = 0.023029999999999995
RR = RR.tsv
ℓmax = ℓmax.bin
f21 = f21.bin
kmin = 1.0e-5
kmax = 100000.0
dlrec    = 4
dlrecRg1 = -4
Output size: 5741568 bytes = 0.005347251892089844 GiB
Output size: 51264 bytes = 4.774332046508789e-5 GiB
Reading 'out/F21EllCache'...   0.770366 seconds (395.13 k allocations: 23.207 MiB, 5.09% gc time)
ellmax: 1202
lmaxcache: 1202
fell[:,1,1] = ComplexF64[3.9583795592771634e-52 - 9.695233714158177e-68im, 3.990121772925759e-52 - 9.772979714843386e-68im]
ell 1202, elapsed: 3.504753112792969e-5
ell 1201, elapsed: 1.1674540042877197
ell 1200, elapsed: 0.0006220340728759766
ell 1199, elapsed: 0.0005981922149658203
ell 1198, elapsed: 0.0006480216979980469
ell 1002, elapsed: 0.01038503646850586
ell 1001, elapsed: 0.0005609989166259766
ell 1000, elapsed: 0.0005500316619873047
ell 999, elapsed: 0.0005519390106201172
ell 998, elapsed: 0.0005619525909423828
ell 902, elapsed: 0.00609588623046875
ell 901, elapsed: 0.0005679130554199219
ell 900, elapsed: 0.0005381107330322266
ell 899, elapsed: 0.000553131103515625
ell 898, elapsed: 0.000553131103515625
ell 802, elapsed: 0.0055010318756103516
ell 801, elapsed: 0.0005631446838378906
ell 800, elapsed: 0.0005578994750976562
ell 799, elapsed: 0.0006690025329589844
ell 798, elapsed: 0.0005769729614257812
ell 702, elapsed: 0.005354881286621094
ell 701, elapsed: 0.0007932186126708984
ell 700, elapsed: 0.0005180835723876953
ell 699, elapsed: 0.000514984130859375
ell 698, elapsed: 0.0005218982696533203
ell 602, elapsed: 0.0057430267333984375
ell 601, elapsed: 0.0006310939788818359
ell 600, elapsed: 0.0005171298980712891
ell 599, elapsed: 0.0005080699920654297
ell 598, elapsed: 0.0005080699920654297
ell 502, elapsed: 0.005607128143310547
ell 501, elapsed: 0.0005328655242919922
ell 500, elapsed: 0.0005059242248535156
ell 499, elapsed: 0.0005080699920654297
ell 498, elapsed: 0.0005030632019042969
ell 402, elapsed: 0.0054988861083984375
ell 401, elapsed: 0.0005228519439697266
ell 400, elapsed: 0.0005121231079101562
ell 399, elapsed: 0.007145881652832031
ell 398, elapsed: 0.0005180835723876953
ell 302, elapsed: 0.00551915168762207
ell 301, elapsed: 0.0006549358367919922
ell 300, elapsed: 0.0007119178771972656
ell 299, elapsed: 0.0006070137023925781
ell 298, elapsed: 0.0006799697875976562
ell 202, elapsed: 0.005846977233886719
ell 201, elapsed: 0.0005829334259033203
ell 200, elapsed: 0.0005371570587158203
ell 199, elapsed: 0.0005362033843994141
ell 198, elapsed: 0.0005550384521484375
ell 152, elapsed: 0.0031108856201171875
ell 151, elapsed: 0.0005970001220703125
ell 150, elapsed: 0.0005750656127929688
ell 149, elapsed: 0.0005331039428710938
ell 148, elapsed: 0.0005359649658203125
ell 127, elapsed: 0.0017850399017333984
ell 126, elapsed: 0.0006499290466308594
ell 125, elapsed: 0.0006210803985595703
ell 124, elapsed: 0.0005719661712646484
ell 123, elapsed: 0.0005500316619873047
ell 114, elapsed: 0.0010199546813964844
ell 113, elapsed: 0.0006730556488037109
ell 112, elapsed: 0.0005908012390136719
ell 111, elapsed: 0.0005671977996826172
ell 110, elapsed: 0.000598907470703125
ell 102, elapsed: 0.001096963882446289
ell 101, elapsed: 0.0005810260772705078
ell 100, elapsed: 0.0005772113800048828
ell 99, elapsed: 0.0005400180816650391
ell 98, elapsed: 0.0005359649658203125
ell 97, elapsed: 0.0008580684661865234
ell 96, elapsed: 0.0007119178771972656
ell 95, elapsed: 0.0007090568542480469
ell 94, elapsed: 0.0006339550018310547
ell 93, elapsed: 0.0006120204925537109
ell 92, elapsed: 0.0006010532379150391
ell 91, elapsed: 0.0007679462432861328
ell 90, elapsed: 0.0006470680236816406
ell 89, elapsed: 0.0006909370422363281
ell 88, elapsed: 0.0007100105285644531
ell 87, elapsed: 0.0006830692291259766
ell 86, elapsed: 0.0006489753723144531
ell 85, elapsed: 0.0006079673767089844
ell 84, elapsed: 0.0005819797515869141
ell 83, elapsed: 0.0006418228149414062
ell 82, elapsed: 0.00080108642578125
ell 81, elapsed: 0.0007879734039306641
ell 80, elapsed: 0.0006718635559082031
ell 79, elapsed: 0.0006079673767089844
ell 78, elapsed: 0.0006978511810302734
ell 77, elapsed: 0.0007190704345703125
ell 76, elapsed: 0.00067901611328125
ell 75, elapsed: 0.0006959438323974609
ell 74, elapsed: 0.0006670951843261719
ell 73, elapsed: 0.0006852149963378906
ell 72, elapsed: 0.0007050037384033203
ell 71, elapsed: 0.004517078399658203
ell 70, elapsed: 0.0006430149078369141
ell 69, elapsed: 0.0006189346313476562
ell 68, elapsed: 0.0006799697875976562
ell 67, elapsed: 0.0006070137023925781
ell 66, elapsed: 0.0006530284881591797
ell 65, elapsed: 0.0006039142608642578
ell 64, elapsed: 0.0006949901580810547
ell 63, elapsed: 0.0006229877471923828
ell 62, elapsed: 0.0006508827209472656
ell 61, elapsed: 0.0076580047607421875
ell 60, elapsed: 0.0007472038269042969
ell 59, elapsed: 0.0006539821624755859
ell 58, elapsed: 0.0007359981536865234
ell 57, elapsed: 0.0006771087646484375
ell 56, elapsed: 0.0007061958312988281
ell 55, elapsed: 0.0006361007690429688
ell 54, elapsed: 0.0006439685821533203
ell 53, elapsed: 0.0006411075592041016
ell 52, elapsed: 0.0009529590606689453
ell 51, elapsed: 0.0007917881011962891
ell 50, elapsed: 0.0006959438323974609
ell 49, elapsed: 0.0006759166717529297
ell 48, elapsed: 0.0006339550018310547
ell 47, elapsed: 0.0006389617919921875
ell 46, elapsed: 0.0006859302520751953
ell 45, elapsed: 0.0006270408630371094
ell 44, elapsed: 0.0007309913635253906
ell 43, elapsed: 0.0006351470947265625
ell 42, elapsed: 0.0006799697875976562
ell 41, elapsed: 0.0007641315460205078
ell 40, elapsed: 0.0006160736083984375
ell 39, elapsed: 0.0006098747253417969
ell 38, elapsed: 0.0006749629974365234
ell 37, elapsed: 0.0007050037384033203
ell 36, elapsed: 0.0007481575012207031
ell 35, elapsed: 0.0007581710815429688
ell 34, elapsed: 0.0006330013275146484
ell 33, elapsed: 0.0006220340728759766
ell 32, elapsed: 0.0007300376892089844
ell 31, elapsed: 0.0006351470947265625
ell 30, elapsed: 0.0006229877471923828
ell 29, elapsed: 0.0006802082061767578
ell 28, elapsed: 0.0006279945373535156
ell 27, elapsed: 0.0006330013275146484
ell 26, elapsed: 0.0007321834564208984
ell 25, elapsed: 0.0006289482116699219
ell 24, elapsed: 0.0006229877471923828
ell 23, elapsed: 0.0006821155548095703
ell 22, elapsed: 0.0006270408630371094
ell 21, elapsed: 0.000621795654296875
ell 20, elapsed: 0.0006198883056640625
ell 19, elapsed: 0.0006248950958251953
ell 18, elapsed: 0.0006389617919921875
ell 17, elapsed: 0.0007030963897705078
ell 16, elapsed: 0.0007009506225585938
ell 15, elapsed: 0.0006840229034423828
ell 14, elapsed: 0.004827976226806641
ell 13, elapsed: 0.0008008480072021484
ell 12, elapsed: 0.0006949901580810547
ell 11, elapsed: 0.0007159709930419922
ell 10, elapsed: 0.0007059574127197266
ell 9, elapsed: 0.0006849765777587891
ell 8, elapsed: 0.0006480216979980469
ell 7, elapsed: 0.0007748603820800781
ell 6, elapsed: 0.0006511211395263672
ell 5, elapsed: 0.0006620883941650391
ell 4, elapsed: 0.0007030963897705078
ell 3, elapsed: 0.0006670951843261719
ell 2, elapsed: 0.0006380081176757812
ell 1, elapsed: 0.0007889270782470703
ell 0, elapsed: 0.0007710456848144531
  1.888760 seconds (1.29 M allocations: 70.492 MiB, 2.33% gc time)
elapsed: 0.0016379356384277344
step:          0.310596 sec (306.811 k allocations: 16.665 MB, 0.0% gc time)
swapping:      0.000517 sec (0 allocations: 0 byte, 0.0% gc time)
calc_Mellell!: 0.122529 sec (133.213 k allocations: 7.256 MB, 0.0% gc time)
  t0 :  0.0 sec (0 allocations: 0 byte, 0.0% gc time)
  tm2 : 0.0 sec (0 allocations: 0 byte, 0.0% gc time)
  tm2s: 0.0 sec (0 allocations: 0 byte, 0.0% gc time)
  tm4 : 0.0 sec (0 allocations: 0 byte, 0.0% gc time)
  tp2 : 0.0 sec (0 allocations: 0 byte, 0.0% gc time)
  tp2s: 0.0 sec (0 allocations: 0 byte, 0.0% gc time)
  tp4 : 0.0 sec (0 allocations: 0 byte, 0.0% gc time)
calc_wtdll!:   0.877552 sec (509.616 k allocations: 28.196 MB, 2.65% gc time)
calc_wljj!:    0.003963 sec (6 allocations: 96 byte, 0.0% gc time)
mult_prefac!:  0.0 sec (0 allocations: 0 byte, 0.0% gc time)
convert:       0.0 sec (0 allocations: 0 byte, 0.0% gc time)
write:         0.004241 sec (0 allocations: 0 byte, 0.0% gc time)
test_rand_2f1: 0.0 sec (0 allocations: 0 byte, 0.0% gc time)
Closing outfile out/Ml21-cache.bin...   0.000008 seconds
  1.095216 seconds (246.35 k allocations: 14.222 MiB)
make_phi():   0.012955 seconds (8.18 k allocations: 237.844 KiB)
  0.303528 seconds (87.57 k allocations: 4.748 MiB, 7.47% gc time)
tskip:       3.0e-5 sec (0 allocations: 0 byte, 0.0% gc time)
tread:       0.003151 sec (17 allocations: 2.125 KB, 0.0% gc time)
tmultphi:    0.038967 sec (21.425 k allocations: 1.287 MB, 0.0% gc time)
tbrfft:      0.005497 sec (0 allocations: 0 byte, 0.0% gc time)
tmultprefac: 0.005224 sec (0 allocations: 0 byte, 0.0% gc time)
toutfunc:    0.210247 sec (64.485 k allocations: 3.33 MB, 10.78% gc time)
Testing R=1.1 ... passed
Calculating fmax: 
  dlrec    = 4
  dlrecRg1 = -4
  q=1.1, R=1.0:	  0.001796 seconds (3.20 k allocations: 275.344 KiB)

  0.004220 seconds (3.34 k allocations: 311.422 KiB)
ℓ = 1202
Δℓ = 4
ΔℓRg1 = -4
N = 1600
q = 1.1
kmin = 1.0e-5
kmax = 100000.00000000004
χ0 = 0.023029999999999995
RR = RR.tsv
ℓmax = ℓmax.bin
f21 = f21.bin
kmin = 1.0e-5
kmax = 100000.0
dlrec    = 4
dlrecRg1 = -4
Output size: 61465536 bytes = 0.05724424123764038 GiB
Output size: 51264 bytes = 4.774332046508789e-5 GiB
Reading 'out/F21EllCache'...   0.001115 seconds (197 allocations: 84.203 KiB)
ellmax: 1202
lmaxcache: 1202
fell[:,1,1] = ComplexF64[809.6031528389767 - 1.9829558194077161e-13im, 0.0 + 0.0im]
ell 1202, elapsed: 4.410743713378906e-5
ell 1201, elapsed: 0.014977216720581055
ell 1200, elapsed: 0.015137195587158203
ell 1199, elapsed: 0.0006449222564697266
ell 1198, elapsed: 0.0005769729614257812
ell 1197, elapsed: 0.0005679130554199219
ell 1196, elapsed: 0.0007328987121582031
ell 1195, elapsed: 0.0007369518280029297
ell 1194, elapsed: 0.0006840229034423828
ell 1193, elapsed: 0.0005059242248535156
ell 1192, elapsed: 0.0004980564117431641
ell 1191, elapsed: 0.0004909038543701172
ell 1190, elapsed: 0.0005040168762207031
ell 1189, elapsed: 0.0006899833679199219
ell 1188, elapsed: 0.0006859302520751953
ell 1187, elapsed: 0.0007650852203369141
ell 1186, elapsed: 0.0006628036499023438
ell 1185, elapsed: 0.0005078315734863281
ell 1184, elapsed: 0.0006799697875976562
ell 1183, elapsed: 0.0007941722869873047
ell 1182, elapsed: 0.0005869865417480469
ell 1181, elapsed: 0.0005099773406982422
ell 1180, elapsed: 0.0005199909210205078
ell 1179, elapsed: 0.0004940032958984375
ell 1178, elapsed: 0.0005178451538085938
ell 1177, elapsed: 0.00049591064453125
ell 1176, elapsed: 0.0004980564117431641
ell 1175, elapsed: 0.00049591064453125
ell 1174, elapsed: 0.0005011558532714844
ell 1173, elapsed: 0.0004928112030029297
ell 1172, elapsed: 0.0006258487701416016
ell 1171, elapsed: 0.0005300045013427734
ell 1170, elapsed: 0.0007147789001464844
ell 1169, elapsed: 0.0005168914794921875
ell 1168, elapsed: 0.0006330013275146484
ell 1167, elapsed: 0.0005459785461425781
ell 1166, elapsed: 0.0007328987121582031
ell 1165, elapsed: 0.0006730556488037109
ell 1164, elapsed: 0.0005528926849365234
ell 1163, elapsed: 0.0005030632019042969
ell 1162, elapsed: 0.0005249977111816406
ell 1161, elapsed: 0.00051116943359375
ell 1160, elapsed: 0.0005009174346923828
ell 1159, elapsed: 0.0006320476531982422
ell 1158, elapsed: 0.0006451606750488281
ell 1157, elapsed: 0.0006251335144042969
ell 1156, elapsed: 0.0005300045013427734
ell 1155, elapsed: 0.00047898292541503906
ell 1154, elapsed: 0.0006568431854248047
ell 1153, elapsed: 0.0006320476531982422
ell 1152, elapsed: 0.00055694580078125
ell 1151, elapsed: 0.0006999969482421875
ell 1150, elapsed: 0.0006330013275146484
ell 1149, elapsed: 0.0005431175231933594
ell 1148, elapsed: 0.0005278587341308594
ell 1147, elapsed: 0.0007350444793701172
ell 1146, elapsed: 0.0007359981536865234
ell 1145, elapsed: 0.0006501674652099609
ell 1144, elapsed: 0.0007030963897705078
ell 1143, elapsed: 0.000701904296875
ell 1142, elapsed: 0.0005271434783935547
ell 1141, elapsed: 0.0006470680236816406
ell 1140, elapsed: 0.0005319118499755859
ell 1139, elapsed: 0.0006291866302490234
ell 1138, elapsed: 0.0007700920104980469
ell 1137, elapsed: 0.0007169246673583984
ell 1136, elapsed: 0.0006830692291259766
ell 1135, elapsed: 0.0005559921264648438
ell 1134, elapsed: 0.0006418228149414062
ell 1133, elapsed: 0.0005280971527099609
ell 1132, elapsed: 0.0005140304565429688
ell 1131, elapsed: 0.0005190372467041016
ell 1130, elapsed: 0.0007228851318359375
ell 1129, elapsed: 0.0005338191986083984
ell 1128, elapsed: 0.0007441043853759766
ell 1127, elapsed: 0.0006639957427978516
ell 1126, elapsed: 0.0005280971527099609
ell 1125, elapsed: 0.0007131099700927734
ell 1124, elapsed: 0.0005211830139160156
ell 1123, elapsed: 0.0007040500640869141
ell 1122, elapsed: 0.0005199909210205078
ell 1121, elapsed: 0.0005340576171875
ell 1120, elapsed: 0.0005090236663818359
ell 1119, elapsed: 0.0005118846893310547
ell 1118, elapsed: 0.0005140304565429688
ell 1117, elapsed: 0.0006899833679199219
ell 1116, elapsed: 0.0007281303405761719
ell 1115, elapsed: 0.00074005126953125
ell 1114, elapsed: 0.0005171298980712891
ell 1113, elapsed: 0.0006189346313476562
ell 1112, elapsed: 0.0005428791046142578
ell 1111, elapsed: 0.0007410049438476562
ell 1110, elapsed: 0.0005319118499755859
ell 1109, elapsed: 0.0005059242248535156
ell 1108, elapsed: 0.0005171298980712891
ell 1107, elapsed: 0.0006959438323974609
ell 1106, elapsed: 0.0005588531494140625
ell 1105, elapsed: 0.0006260871887207031
ell 1104, elapsed: 0.0006058216094970703
ell 1103, elapsed: 0.0007550716400146484
ell 1102, elapsed: 0.0007908344268798828
ell 1101, elapsed: 0.0007710456848144531
ell 1100, elapsed: 0.0007719993591308594
ell 1099, elapsed: 0.0005109310150146484
ell 1098, elapsed: 0.0005137920379638672
ell 1097, elapsed: 0.0004999637603759766
ell 1096, elapsed: 0.0004980564117431641
ell 1095, elapsed: 0.0005009174346923828
ell 1094, elapsed: 0.0004949569702148438
ell 1093, elapsed: 0.00051116943359375
ell 1092, elapsed: 0.0005180835723876953
ell 1091, elapsed: 0.0004999637603759766
ell 1090, elapsed: 0.0005810260772705078
ell 1089, elapsed: 0.0007550716400146484
ell 1088, elapsed: 0.0006809234619140625
ell 1087, elapsed: 0.0006949901580810547
ell 1086, elapsed: 0.0006940364837646484
ell 1085, elapsed: 0.0007410049438476562
ell 1084, elapsed: 0.0005240440368652344
ell 1083, elapsed: 0.0007460117340087891
ell 1082, elapsed: 0.0007531642913818359
ell 1081, elapsed: 0.0007271766662597656
ell 1080, elapsed: 0.0005211830139160156
ell 1079, elapsed: 0.0005118846893310547
ell 1078, elapsed: 0.0006051063537597656
ell 1077, elapsed: 0.0005800724029541016
ell 1076, elapsed: 0.0005090236663818359
ell 1075, elapsed: 0.0005040168762207031
ell 1074, elapsed: 0.0006000995635986328
ell 1073, elapsed: 0.0006539821624755859
ell 1072, elapsed: 0.0005340576171875
ell 1071, elapsed: 0.0004978179931640625
ell 1070, elapsed: 0.0006890296936035156
ell 1069, elapsed: 0.0006239414215087891
ell 1068, elapsed: 0.0006320476531982422
ell 1067, elapsed: 0.0006940364837646484
ell 1066, elapsed: 0.0007851123809814453
ell 1065, elapsed: 0.0005428791046142578
ell 1064, elapsed: 0.0004668235778808594
ell 1063, elapsed: 0.00045680999755859375
ell 1062, elapsed: 0.0006110668182373047
ell 1061, elapsed: 0.0005269050598144531
ell 1060, elapsed: 0.0004489421844482422
ell 1059, elapsed: 0.00044798851013183594
ell 1058, elapsed: 0.0006449222564697266
ell 1057, elapsed: 0.0007171630859375
ell 1056, elapsed: 0.0007169246673583984
ell 1055, elapsed: 0.0005419254302978516
ell 1054, elapsed: 0.0005590915679931641
ell 1053, elapsed: 0.0005919933319091797
ell 1052, elapsed: 0.0006139278411865234
ell 1051, elapsed: 0.0006151199340820312
ell 1050, elapsed: 0.0006318092346191406
ell 1049, elapsed: 0.0004630088806152344
ell 1048, elapsed: 0.0006458759307861328
ell 1047, elapsed: 0.0006129741668701172
ell 1046, elapsed: 0.0006070137023925781
ell 1045, elapsed: 0.00044798851013183594
ell 1044, elapsed: 0.0005598068237304688
ell 1043, elapsed: 0.0005700588226318359
ell 1042, elapsed: 0.0004401206970214844
ell 1041, elapsed: 0.0005619525909423828
ell 1040, elapsed: 0.0006837844848632812
ell 1039, elapsed: 0.0005471706390380859
ell 1038, elapsed: 0.0005500316619873047
ell 1037, elapsed: 0.0005750656127929688
ell 1036, elapsed: 0.0004470348358154297
ell 1035, elapsed: 0.0005350112915039062
ell 1034, elapsed: 0.0006239414215087891
ell 1033, elapsed: 0.0005528926849365234
ell 1032, elapsed: 0.0006461143493652344
ell 1031, elapsed: 0.0006308555603027344
ell 1030, elapsed: 0.0006380081176757812
ell 1029, elapsed: 0.0004949569702148438
ell 1028, elapsed: 0.0005528926849365234
ell 1027, elapsed: 0.0006568431854248047
ell 1026, elapsed: 0.0007839202880859375
ell 1025, elapsed: 0.0005290508270263672
ell 1024, elapsed: 0.0005059242248535156
ell 1023, elapsed: 0.0004999637603759766
ell 1022, elapsed: 0.0004999637603759766
ell 1021, elapsed: 0.0005021095275878906
ell 1020, elapsed: 0.0004858970642089844
ell 1019, elapsed: 0.0005049705505371094
ell 1018, elapsed: 0.0005059242248535156
ell 1017, elapsed: 0.0005018711090087891
ell 1016, elapsed: 0.0005137920379638672
ell 1015, elapsed: 0.0005159378051757812
ell 1014, elapsed: 0.0005009174346923828
ell 1013, elapsed: 0.0004971027374267578
ell 1012, elapsed: 0.0004899501800537109
ell 1011, elapsed: 0.0004951953887939453
ell 1010, elapsed: 0.0005140304565429688
ell 1009, elapsed: 0.0005059242248535156
ell 1008, elapsed: 0.0005018711090087891
ell 1007, elapsed: 0.0004980564117431641
ell 1006, elapsed: 0.0004990100860595703
ell 1005, elapsed: 0.0004940032958984375
ell 1004, elapsed: 0.000514984130859375
ell 1003, elapsed: 0.0004961490631103516
ell 1002, elapsed: 0.00048804283142089844
ell 1001, elapsed: 0.00049591064453125
ell 1000, elapsed: 0.0004858970642089844
ell 999, elapsed: 0.0004990100860595703
ell 998, elapsed: 0.000518798828125
ell 997, elapsed: 0.0005071163177490234
ell 996, elapsed: 0.0004949569702148438
ell 995, elapsed: 0.0005009174346923828
ell 994, elapsed: 0.0004999637603759766
ell 993, elapsed: 0.0004971027374267578
ell 992, elapsed: 0.0004990100860595703
ell 991, elapsed: 0.0004801750183105469
ell 990, elapsed: 0.0004899501800537109
ell 989, elapsed: 0.0004899501800537109
ell 988, elapsed: 0.0005202293395996094
ell 987, elapsed: 0.0005300045013427734
ell 986, elapsed: 0.0005609989166259766
ell 985, elapsed: 0.0005581378936767578
ell 984, elapsed: 0.0005340576171875
ell 983, elapsed: 0.0004999637603759766
ell 982, elapsed: 0.0005168914794921875
ell 981, elapsed: 0.0004971027374267578
ell 980, elapsed: 0.0004930496215820312
ell 979, elapsed: 0.0004839897155761719
ell 978, elapsed: 0.0004951953887939453
ell 977, elapsed: 0.0004870891571044922
ell 976, elapsed: 0.0005102157592773438
ell 975, elapsed: 0.0005040168762207031
ell 974, elapsed: 0.0004909038543701172
ell 973, elapsed: 0.0005030632019042969
ell 972, elapsed: 0.0004849433898925781
ell 971, elapsed: 0.0004971027374267578
ell 970, elapsed: 0.0005021095275878906
ell 969, elapsed: 0.0004949569702148438
ell 968, elapsed: 0.0004940032958984375
ell 967, elapsed: 0.0005040168762207031
ell 966, elapsed: 0.00047707557678222656
ell 965, elapsed: 0.0004990100860595703
ell 964, elapsed: 0.0004630088806152344
ell 963, elapsed: 0.00043511390686035156
ell 962, elapsed: 0.0004401206970214844
ell 961, elapsed: 0.0004360675811767578
ell 960, elapsed: 0.00043892860412597656
ell 959, elapsed: 0.00043201446533203125
ell 958, elapsed: 0.0004360675811767578
ell 957, elapsed: 0.0004398822784423828
ell 956, elapsed: 0.0005261898040771484
ell 955, elapsed: 0.0004360675811767578
ell 954, elapsed: 0.00043201446533203125
ell 953, elapsed: 0.0004298686981201172
ell 952, elapsed: 0.0004470348358154297
ell 951, elapsed: 0.00043201446533203125
ell 950, elapsed: 0.00043892860412597656
ell 949, elapsed: 0.0004329681396484375
ell 948, elapsed: 0.0005290508270263672
ell 947, elapsed: 0.0004570484161376953
ell 946, elapsed: 0.00044083595275878906
ell 945, elapsed: 0.0004391670227050781
ell 944, elapsed: 0.00043702125549316406
ell 943, elapsed: 0.00043511390686035156
ell 942, elapsed: 0.0004451274871826172
ell 941, elapsed: 0.00043702125549316406
ell 940, elapsed: 0.0004429817199707031
ell 939, elapsed: 0.0004451274871826172
ell 938, elapsed: 0.00043702125549316406
ell 937, elapsed: 0.0004429817199707031
ell 936, elapsed: 0.00043892860412597656
ell 935, elapsed: 0.00043892860412597656
ell 934, elapsed: 0.0004382133483886719
ell 933, elapsed: 0.0004360675811767578
ell 932, elapsed: 0.0004429817199707031
ell 931, elapsed: 0.0005431175231933594
ell 930, elapsed: 0.0004401206970214844
ell 929, elapsed: 0.0004379749298095703
ell 928, elapsed: 0.00043392181396484375
ell 927, elapsed: 0.0004451274871826172
ell 926, elapsed: 0.00043511390686035156
ell 925, elapsed: 0.0004420280456542969
ell 924, elapsed: 0.00043511390686035156
ell 923, elapsed: 0.0005528926849365234
ell 922, elapsed: 0.0004391670227050781
ell 921, elapsed: 0.00043892860412597656
ell 920, elapsed: 0.0004391670227050781
ell 919, elapsed: 0.00043892860412597656
ell 918, elapsed: 0.0004379749298095703
ell 917, elapsed: 0.00043392181396484375
ell 916, elapsed: 0.00043511390686035156
ell 915, elapsed: 0.0005240440368652344
ell 914, elapsed: 0.00043511390686035156
ell 913, elapsed: 0.0004420280456542969
ell 912, elapsed: 0.00043392181396484375
ell 911, elapsed: 0.00043702125549316406
ell 910, elapsed: 0.0004398822784423828
ell 909, elapsed: 0.00043511390686035156
ell 908, elapsed: 0.0004379749298095703
ell 907, elapsed: 0.0005178451538085938
ell 906, elapsed: 0.00043702125549316406
ell 905, elapsed: 0.0004420280456542969
ell 904, elapsed: 0.000431060791015625
ell 903, elapsed: 0.00043892860412597656
ell 902, elapsed: 0.00043010711669921875
ell 901, elapsed: 0.0004367828369140625
ell 900, elapsed: 0.0004401206970214844
ell 899, elapsed: 0.0005199909210205078
ell 898, elapsed: 0.0004429817199707031
ell 897, elapsed: 0.0004341602325439453
ell 896, elapsed: 0.0004379749298095703
ell 895, elapsed: 0.00044083595275878906
ell 894, elapsed: 0.0004360675811767578
ell 893, elapsed: 0.00043702125549316406
ell 892, elapsed: 0.0004341602325439453
ell 891, elapsed: 0.0005118846893310547
ell 890, elapsed: 0.0004448890686035156
ell 889, elapsed: 0.00043320655822753906
ell 888, elapsed: 0.0004401206970214844
ell 887, elapsed: 0.00043201446533203125
ell 886, elapsed: 0.00043487548828125
ell 885, elapsed: 0.0004360675811767578
ell 884, elapsed: 0.00043392181396484375
ell 883, elapsed: 0.00043702125549316406
ell 882, elapsed: 0.0005180835723876953
ell 881, elapsed: 0.00043392181396484375
ell 880, elapsed: 0.00043892860412597656
ell 879, elapsed: 0.000431060791015625
ell 878, elapsed: 0.0004379749298095703
ell 877, elapsed: 0.00043892860412597656
ell 876, elapsed: 0.0004379749298095703
ell 875, elapsed: 0.0004379749298095703
ell 874, elapsed: 0.0004489421844482422
ell 873, elapsed: 0.0004367828369140625
ell 872, elapsed: 0.0004360675811767578
ell 871, elapsed: 0.00043511390686035156
ell 870, elapsed: 0.0004410743713378906
ell 869, elapsed: 0.00043511390686035156
ell 868, elapsed: 0.0004439353942871094
ell 867, elapsed: 0.0004420280456542969
ell 866, elapsed: 0.00045108795166015625
ell 865, elapsed: 0.0004420280456542969
ell 864, elapsed: 0.00043582916259765625
ell 863, elapsed: 0.0004410743713378906
ell 862, elapsed: 0.00043320655822753906
ell 861, elapsed: 0.00043892860412597656
ell 860, elapsed: 0.0004329681396484375
ell 859, elapsed: 0.00043201446533203125
ell 858, elapsed: 0.0004489421844482422
ell 857, elapsed: 0.000431060791015625
ell 856, elapsed: 0.0004329681396484375
ell 855, elapsed: 0.000431060791015625
ell 854, elapsed: 0.0004279613494873047
ell 853, elapsed: 0.00043702125549316406
ell 852, elapsed: 0.00042891502380371094
ell 851, elapsed: 0.00043511390686035156
ell 850, elapsed: 0.00043702125549316406
ell 849, elapsed: 0.000453948974609375
ell 848, elapsed: 0.00047278404235839844
ell 847, elapsed: 0.0004360675811767578
ell 846, elapsed: 0.00043511390686035156
ell 845, elapsed: 0.00043392181396484375
ell 844, elapsed: 0.00043201446533203125
ell 843, elapsed: 0.00043892860412597656
ell 842, elapsed: 0.00043201446533203125
ell 841, elapsed: 0.0004508495330810547
ell 840, elapsed: 0.0004382133483886719
ell 839, elapsed: 0.00043201446533203125
ell 838, elapsed: 0.0004360675811767578
ell 837, elapsed: 0.00043201446533203125
ell 836, elapsed: 0.0004360675811767578
ell 835, elapsed: 0.0004329681396484375
ell 834, elapsed: 0.00043487548828125
ell 833, elapsed: 0.00044989585876464844
ell 832, elapsed: 0.0004429817199707031
ell 831, elapsed: 0.0004398822784423828
ell 830, elapsed: 0.00043201446533203125
ell 829, elapsed: 0.00043702125549316406
ell 828, elapsed: 0.0004329681396484375
ell 827, elapsed: 0.00043201446533203125
ell 826, elapsed: 0.00043702125549316406
ell 825, elapsed: 0.000431060791015625
ell 824, elapsed: 0.00045609474182128906
ell 823, elapsed: 0.0004329681396484375
ell 822, elapsed: 0.00043201446533203125
ell 821, elapsed: 0.00043582916259765625
ell 820, elapsed: 0.0004341602325439453
ell 819, elapsed: 0.0004360675811767578
ell 818, elapsed: 0.0004329681396484375
ell 817, elapsed: 0.0004298686981201172
ell 816, elapsed: 0.000453948974609375
ell 815, elapsed: 0.00043201446533203125
ell 814, elapsed: 0.00043511390686035156
ell 813, elapsed: 0.00042700767517089844
ell 812, elapsed: 0.00042891502380371094
ell 811, elapsed: 0.00043201446533203125
ell 810, elapsed: 0.00042891502380371094
ell 809, elapsed: 0.00043511390686035156
ell 808, elapsed: 0.0004298686981201172
ell 807, elapsed: 0.0004470348358154297
ell 806, elapsed: 0.00044083595275878906
ell 805, elapsed: 0.00043201446533203125
ell 804, elapsed: 0.00044083595275878906
ell 803, elapsed: 0.0004360675811767578
ell 802, elapsed: 0.0004341602325439453
ell 801, elapsed: 0.00044083595275878906
ell 800, elapsed: 0.0004329681396484375
ell 799, elapsed: 0.00045490264892578125
ell 798, elapsed: 0.0004341602325439453
ell 797, elapsed: 0.0004439353942871094
ell 796, elapsed: 0.00043702125549316406
ell 795, elapsed: 0.00044083595275878906
ell 794, elapsed: 0.0004458427429199219
ell 793, elapsed: 0.0004420280456542969
ell 792, elapsed: 0.0004420280456542969
ell 791, elapsed: 0.0004620552062988281
ell 790, elapsed: 0.0004420280456542969
ell 789, elapsed: 0.0004429817199707031
ell 788, elapsed: 0.0004398822784423828
ell 787, elapsed: 0.0004451274871826172
ell 786, elapsed: 0.0004398822784423828
ell 785, elapsed: 0.0004429817199707031
ell 784, elapsed: 0.0004448890686035156
ell 783, elapsed: 0.00045490264892578125
ell 782, elapsed: 0.0004451274871826172
ell 781, elapsed: 0.00043702125549316406
ell 780, elapsed: 0.0004379749298095703
ell 779, elapsed: 0.0004451274871826172
ell 778, elapsed: 0.0004398822784423828
ell 777, elapsed: 0.00044417381286621094
ell 776, elapsed: 0.00043892860412597656
ell 775, elapsed: 0.0004401206970214844
ell 774, elapsed: 0.00045609474182128906
ell 773, elapsed: 0.0004367828369140625
ell 772, elapsed: 0.0004398822784423828
ell 771, elapsed: 0.0004341602325439453
ell 770, elapsed: 0.00043892860412597656
ell 769, elapsed: 0.00043392181396484375
ell 768, elapsed: 0.00043487548828125
ell 767, elapsed: 0.0004398822784423828
ell 766, elapsed: 0.0004489421844482422
ell 765, elapsed: 0.00044083595275878906
ell 764, elapsed: 0.0004360675811767578
ell 763, elapsed: 0.00043487548828125
ell 762, elapsed: 0.0004379749298095703
ell 761, elapsed: 0.0004329681396484375
ell 760, elapsed: 0.0004379749298095703
ell 759, elapsed: 0.00043201446533203125
ell 758, elapsed: 0.0004589557647705078
ell 757, elapsed: 0.0004382133483886719
ell 756, elapsed: 0.00043702125549316406
ell 755, elapsed: 0.0004391670227050781
ell 754, elapsed: 0.0004360675811767578
ell 753, elapsed: 0.00043487548828125
ell 752, elapsed: 0.0004420280456542969
ell 751, elapsed: 0.0004341602325439453
ell 750, elapsed: 0.00044798851013183594
ell 749, elapsed: 0.0004620552062988281
ell 748, elapsed: 0.0004398822784423828
ell 747, elapsed: 0.0004391670227050781
ell 746, elapsed: 0.0004391670227050781
ell 745, elapsed: 0.00043892860412597656
ell 744, elapsed: 0.00043702125549316406
ell 743, elapsed: 0.0004341602325439453
ell 742, elapsed: 0.0004391670227050781
ell 741, elapsed: 0.00045299530029296875
ell 740, elapsed: 0.0004410743713378906
ell 739, elapsed: 0.00043392181396484375
ell 738, elapsed: 0.0004391670227050781
ell 737, elapsed: 0.00043702125549316406
ell 736, elapsed: 0.0004360675811767578
ell 735, elapsed: 0.00044083595275878906
ell 734, elapsed: 0.00043582916259765625
ell 733, elapsed: 0.00045800209045410156
ell 732, elapsed: 0.00043392181396484375
ell 731, elapsed: 0.0004391670227050781
ell 730, elapsed: 0.0004360675811767578
ell 729, elapsed: 0.00043702125549316406
ell 728, elapsed: 0.00043892860412597656
ell 727, elapsed: 0.00043702125549316406
ell 726, elapsed: 0.00043487548828125
ell 725, elapsed: 0.0004439353942871094
ell 724, elapsed: 0.00044083595275878906
ell 723, elapsed: 0.0004429817199707031
ell 722, elapsed: 0.00043702125549316406
ell 721, elapsed: 0.0004379749298095703
ell 720, elapsed: 0.0004429817199707031
ell 719, elapsed: 0.0004379749298095703
ell 718, elapsed: 0.00044798851013183594
ell 717, elapsed: 0.00044083595275878906
ell 716, elapsed: 0.0004520416259765625
ell 715, elapsed: 0.00044417381286621094
ell 714, elapsed: 0.00043702125549316406
ell 713, elapsed: 0.0004410743713378906
ell 712, elapsed: 0.0004341602325439453
ell 711, elapsed: 0.00043392181396484375
ell 710, elapsed: 0.00043392181396484375
ell 709, elapsed: 0.00043702125549316406
ell 708, elapsed: 0.0004589557647705078
ell 707, elapsed: 0.0004367828369140625
ell 706, elapsed: 0.0004439353942871094
ell 705, elapsed: 0.0004360675811767578
ell 704, elapsed: 0.00043392181396484375
ell 703, elapsed: 0.0004410743713378906
ell 702, elapsed: 0.00043702125549316406
ell 701, elapsed: 0.0004401206970214844
ell 700, elapsed: 0.00044798851013183594
ell 699, elapsed: 0.0004360675811767578
ell 698, elapsed: 0.0004420280456542969
ell 697, elapsed: 0.00043892860412597656
ell 696, elapsed: 0.00044083595275878906
ell 695, elapsed: 0.0004391670227050781
ell 694, elapsed: 0.0004410743713378906
ell 693, elapsed: 0.0004448890686035156
ell 692, elapsed: 0.0004379749298095703
ell 691, elapsed: 0.00045490264892578125
ell 690, elapsed: 0.0004410743713378906
ell 689, elapsed: 0.0004367828369140625
ell 688, elapsed: 0.00044608116149902344
ell 687, elapsed: 0.00043392181396484375
ell 686, elapsed: 0.00044608116149902344
ell 685, elapsed: 0.0004341602325439453
ell 684, elapsed: 0.0004451274871826172
ell 683, elapsed: 0.0004570484161376953
ell 682, elapsed: 0.0004341602325439453
ell 681, elapsed: 0.00043892860412597656
ell 680, elapsed: 0.00043702125549316406
ell 679, elapsed: 0.00043511390686035156
ell 678, elapsed: 0.0004410743713378906
ell 677, elapsed: 0.00043320655822753906
ell 676, elapsed: 0.0004429817199707031
ell 675, elapsed: 0.00044918060302734375
ell 674, elapsed: 0.0004398822784423828
ell 673, elapsed: 0.0004360675811767578
ell 672, elapsed: 0.00043702125549316406
ell 671, elapsed: 0.00043892860412597656
ell 670, elapsed: 0.0004329681396484375
ell 669, elapsed: 0.0004451274871826172
ell 668, elapsed: 0.0004260540008544922
ell 667, elapsed: 0.00043702125549316406
ell 666, elapsed: 0.0004467964172363281
ell 665, elapsed: 0.00043702125549316406
ell 664, elapsed: 0.0004382133483886719
ell 663, elapsed: 0.0004410743713378906
ell 662, elapsed: 0.00043892860412597656
ell 661, elapsed: 0.0004439353942871094
ell 660, elapsed: 0.0004379749298095703
ell 659, elapsed: 0.0004439353942871094
ell 658, elapsed: 0.0008599758148193359
ell 657, elapsed: 0.00045013427734375
ell 656, elapsed: 0.0004420280456542969
ell 655, elapsed: 0.0004429817199707031
ell 654, elapsed: 0.0004489421844482422
ell 653, elapsed: 0.0004439353942871094
ell 652, elapsed: 0.00043892860412597656
ell 651, elapsed: 0.0004658699035644531
ell 650, elapsed: 0.0004382133483886719
ell 649, elapsed: 0.0004451274871826172
ell 648, elapsed: 0.00043511390686035156
ell 647, elapsed: 0.0004448890686035156
ell 646, elapsed: 0.0004401206970214844
ell 645, elapsed: 0.0004451274871826172
ell 644, elapsed: 0.0004467964172363281
ell 643, elapsed: 0.0004661083221435547
ell 642, elapsed: 0.0004420280456542969
ell 641, elapsed: 0.00043392181396484375
ell 640, elapsed: 0.00043511390686035156
ell 639, elapsed: 0.00043702125549316406
ell 638, elapsed: 0.00043082237243652344
ell 637, elapsed: 0.0004379749298095703
ell 636, elapsed: 0.00043702125549316406
ell 635, elapsed: 0.00043892860412597656
ell 634, elapsed: 0.00044798851013183594
ell 633, elapsed: 0.0004329681396484375
ell 632, elapsed: 0.0004379749298095703
ell 631, elapsed: 0.00043392181396484375
ell 630, elapsed: 0.0004360675811767578
ell 629, elapsed: 0.0004520416259765625
ell 628, elapsed: 0.0005559921264648438
ell 627, elapsed: 0.0007519721984863281
ell 626, elapsed: 0.0006730556488037109
ell 625, elapsed: 0.0006210803985595703
ell 624, elapsed: 0.0005919933319091797
ell 623, elapsed: 0.0006000995635986328
ell 622, elapsed: 0.0004329681396484375
ell 621, elapsed: 0.0005228519439697266
ell 620, elapsed: 0.0004420280456542969
ell 619, elapsed: 0.0004279613494873047
ell 618, elapsed: 0.0005390644073486328
ell 617, elapsed: 0.000553131103515625
ell 616, elapsed: 0.00042891502380371094
ell 615, elapsed: 0.00044608116149902344
ell 614, elapsed: 0.0004382133483886719
ell 613, elapsed: 0.0005171298980712891
ell 612, elapsed: 0.00044798851013183594
ell 611, elapsed: 0.0004391670227050781
ell 610, elapsed: 0.0004429817199707031
ell 609, elapsed: 0.0005478858947753906
ell 608, elapsed: 0.0005440711975097656
ell 607, elapsed: 0.0004439353942871094
ell 606, elapsed: 0.0006840229034423828
ell 605, elapsed: 0.0005068778991699219
ell 604, elapsed: 0.000431060791015625
ell 603, elapsed: 0.0005881786346435547
ell 602, elapsed: 0.0005280971527099609
ell 601, elapsed: 0.0006339550018310547
ell 600, elapsed: 0.0008270740509033203
ell 599, elapsed: 0.0006148815155029297
ell 598, elapsed: 0.0006940364837646484
ell 597, elapsed: 0.0006241798400878906
ell 596, elapsed: 0.000640869140625
ell 595, elapsed: 0.0008180141448974609
ell 594, elapsed: 0.0005478858947753906
ell 593, elapsed: 0.0006999969482421875
ell 592, elapsed: 0.0006079673767089844
ell 591, elapsed: 0.0004420280456542969
ell 590, elapsed: 0.0004401206970214844
ell 589, elapsed: 0.0004341602325439453
ell 588, elapsed: 0.0007030963897705078
ell 587, elapsed: 0.0006341934204101562
ell 586, elapsed: 0.0005350112915039062
ell 585, elapsed: 0.00044608116149902344
ell 584, elapsed: 0.0005860328674316406
ell 583, elapsed: 0.0006709098815917969
ell 582, elapsed: 0.0006461143493652344
ell 581, elapsed: 0.0005791187286376953
ell 580, elapsed: 0.00061798095703125
ell 579, elapsed: 0.00043892860412597656
ell 578, elapsed: 0.00044083595275878906
ell 577, elapsed: 0.00043487548828125
ell 576, elapsed: 0.00043702125549316406
ell 575, elapsed: 0.0005419254302978516
ell 574, elapsed: 0.0004420280456542969
ell 573, elapsed: 0.0004451274871826172
ell 572, elapsed: 0.00043582916259765625
ell 571, elapsed: 0.0004360675811767578
ell 570, elapsed: 0.0004398822784423828
ell 569, elapsed: 0.00043487548828125
ell 568, elapsed: 0.0004391670227050781
ell 567, elapsed: 0.0005040168762207031
ell 566, elapsed: 0.0004432201385498047
ell 565, elapsed: 0.0004398822784423828
ell 564, elapsed: 0.00043702125549316406
ell 563, elapsed: 0.0004360675811767578
ell 562, elapsed: 0.0004329681396484375
ell 561, elapsed: 0.00043392181396484375
ell 560, elapsed: 0.0004439353942871094
ell 559, elapsed: 0.0005300045013427734
ell 558, elapsed: 0.0004451274871826172
ell 557, elapsed: 0.00043511390686035156
ell 556, elapsed: 0.0004410743713378906
ell 555, elapsed: 0.00043392181396484375
ell 554, elapsed: 0.0004341602325439453
ell 553, elapsed: 0.0004398822784423828
ell 552, elapsed: 0.00043702125549316406
ell 551, elapsed: 0.0005280971527099609
ell 550, elapsed: 0.0004420280456542969
ell 549, elapsed: 0.0004329681396484375
ell 548, elapsed: 0.00043892860412597656
ell 547, elapsed: 0.0004379749298095703
ell 546, elapsed: 0.0004401206970214844
ell 545, elapsed: 0.00043702125549316406
ell 544, elapsed: 0.0004329681396484375
ell 543, elapsed: 0.00044417381286621094
ell 542, elapsed: 0.0004458427429199219
ell 541, elapsed: 0.0004451274871826172
ell 540, elapsed: 0.00043511390686035156
ell 539, elapsed: 0.0004329681396484375
ell 538, elapsed: 0.000431060791015625
ell 537, elapsed: 0.00043582916259765625
ell 536, elapsed: 0.0004410743713378906
ell 535, elapsed: 0.0004379749298095703
ell 534, elapsed: 0.0005309581756591797
ell 533, elapsed: 0.0004451274871826172
ell 532, elapsed: 0.0004329681396484375
ell 531, elapsed: 0.0004398822784423828
ell 530, elapsed: 0.00043582916259765625
ell 529, elapsed: 0.00043892860412597656
ell 528, elapsed: 0.0004317760467529297
ell 527, elapsed: 0.00043702125549316406
ell 526, elapsed: 0.0005328655242919922
ell 525, elapsed: 0.0004360675811767578
ell 524, elapsed: 0.00043702125549316406
ell 523, elapsed: 0.00043892860412597656
ell 522, elapsed: 0.00043511390686035156
ell 521, elapsed: 0.00044417381286621094
ell 520, elapsed: 0.00043702125549316406
ell 519, elapsed: 0.0004429817199707031
ell 518, elapsed: 0.0005300045013427734
ell 517, elapsed: 0.0004429817199707031
ell 516, elapsed: 0.0004448890686035156
ell 515, elapsed: 0.0004360675811767578
ell 514, elapsed: 0.000598907470703125
ell 513, elapsed: 0.0006740093231201172
ell 512, elapsed: 0.0005040168762207031
ell 511, elapsed: 0.0005469322204589844
ell 510, elapsed: 0.0005750656127929688
ell 509, elapsed: 0.00051116943359375
ell 508, elapsed: 0.0004448890686035156
ell 507, elapsed: 0.00043010711669921875
ell 506, elapsed: 0.0004401206970214844
ell 505, elapsed: 0.00043702125549316406
ell 504, elapsed: 0.0005478858947753906
ell 503, elapsed: 0.0004429817199707031
ell 502, elapsed: 0.0004379749298095703
ell 501, elapsed: 0.0004420280456542969
ell 500, elapsed: 0.0004439353942871094
ell 499, elapsed: 0.0005970001220703125
ell 498, elapsed: 0.0005309581756591797
ell 497, elapsed: 0.0007381439208984375
ell 496, elapsed: 0.0006060600280761719
ell 495, elapsed: 0.0006780624389648438
ell 494, elapsed: 0.0006990432739257812
ell 493, elapsed: 0.0006780624389648438
ell 492, elapsed: 0.0006859302520751953
ell 491, elapsed: 0.0006849765777587891
ell 490, elapsed: 0.0006129741668701172
ell 489, elapsed: 0.0005719661712646484
ell 488, elapsed: 0.0006098747253417969
ell 487, elapsed: 0.0006320476531982422
ell 486, elapsed: 0.0007870197296142578
ell 485, elapsed: 0.00046896934509277344
ell 484, elapsed: 0.00043392181396484375
ell 483, elapsed: 0.0006110668182373047
ell 482, elapsed: 0.0005121231079101562
ell 481, elapsed: 0.00043010711669921875
ell 480, elapsed: 0.0004360675811767578
ell 479, elapsed: 0.0005500316619873047
ell 478, elapsed: 0.0004360675811767578
ell 477, elapsed: 0.0005099773406982422
ell 476, elapsed: 0.0006909370422363281
ell 475, elapsed: 0.0006730556488037109
ell 474, elapsed: 0.0006780624389648438
ell 473, elapsed: 0.0007259845733642578
ell 472, elapsed: 0.0006840229034423828
ell 471, elapsed: 0.0005090236663818359
ell 470, elapsed: 0.0006320476531982422
ell 469, elapsed: 0.0005459785461425781
ell 468, elapsed: 0.0004401206970214844
ell 467, elapsed: 0.00045990943908691406
ell 466, elapsed: 0.0004401206970214844
ell 465, elapsed: 0.0004630088806152344
ell 464, elapsed: 0.00044608116149902344
ell 463, elapsed: 0.0004429817199707031
ell 462, elapsed: 0.00044608116149902344
ell 461, elapsed: 0.0004439353942871094
ell 460, elapsed: 0.0004439353942871094
ell 459, elapsed: 0.0004439353942871094
ell 458, elapsed: 0.0004451274871826172
ell 457, elapsed: 0.00044989585876464844
ell 456, elapsed: 0.0004420280456542969
ell 455, elapsed: 0.0004451274871826172
ell 454, elapsed: 0.00044083595275878906
ell 453, elapsed: 0.0004379749298095703
ell 452, elapsed: 0.00045108795166015625
ell 451, elapsed: 0.0004401206970214844
ell 450, elapsed: 0.00044417381286621094
ell 449, elapsed: 0.0004458427429199219
ell 448, elapsed: 0.0004360675811767578
ell 447, elapsed: 0.0004458427429199219
ell 446, elapsed: 0.00044798851013183594
ell 445, elapsed: 0.00044798851013183594
ell 444, elapsed: 0.0004429817199707031
ell 443, elapsed: 0.00045609474182128906
ell 442, elapsed: 0.0006601810455322266
ell 441, elapsed: 0.0006799697875976562
ell 440, elapsed: 0.0006899833679199219
ell 439, elapsed: 0.0006768703460693359
ell 438, elapsed: 0.0006201267242431641
ell 437, elapsed: 0.0005259513854980469
ell 436, elapsed: 0.00044608116149902344
ell 435, elapsed: 0.000598907470703125
ell 434, elapsed: 0.0005471706390380859
ell 433, elapsed: 0.0004410743713378906
ell 432, elapsed: 0.0005011558532714844
ell 431, elapsed: 0.0006279945373535156
ell 430, elapsed: 0.0005199909210205078
ell 429, elapsed: 0.000370025634765625
ell 428, elapsed: 0.0003619194030761719
ell 427, elapsed: 0.0003600120544433594
ell 426, elapsed: 0.00036406517028808594
ell 425, elapsed: 0.0003600120544433594
ell 424, elapsed: 0.00036406517028808594
ell 423, elapsed: 0.0003600120544433594
ell 422, elapsed: 0.0006039142608642578
ell 421, elapsed: 0.0005669593811035156
ell 420, elapsed: 0.0003352165222167969
ell 419, elapsed: 0.00045609474182128906
ell 418, elapsed: 0.0005540847778320312
ell 417, elapsed: 0.0006220340728759766
ell 416, elapsed: 0.0005021095275878906
ell 415, elapsed: 0.00034809112548828125
ell 414, elapsed: 0.0003609657287597656
ell 413, elapsed: 0.0004329681396484375
ell 412, elapsed: 0.0004360675811767578
ell 411, elapsed: 0.0004489421844482422
ell 410, elapsed: 0.00044608116149902344
ell 409, elapsed: 0.0004448890686035156
ell 408, elapsed: 0.0004420280456542969
ell 407, elapsed: 0.0004429817199707031
ell 406, elapsed: 0.0004448890686035156
ell 405, elapsed: 0.0004642009735107422
ell 404, elapsed: 0.00044918060302734375
ell 403, elapsed: 0.0004420280456542969
ell 402, elapsed: 0.0004420280456542969
ell 401, elapsed: 0.0004379749298095703
ell 400, elapsed: 0.00043702125549316406
ell 399, elapsed: 0.0004439353942871094
ell 398, elapsed: 0.0004379749298095703
ell 397, elapsed: 0.0004730224609375
ell 396, elapsed: 0.0006201267242431641
ell 395, elapsed: 0.0006060600280761719
ell 394, elapsed: 0.00043511390686035156
ell 393, elapsed: 0.0004360675811767578
ell 392, elapsed: 0.0005121231079101562
ell 391, elapsed: 0.0007469654083251953
ell 390, elapsed: 0.0005459785461425781
ell 389, elapsed: 0.0004439353942871094
ell 388, elapsed: 0.0005040168762207031
ell 387, elapsed: 0.0005998611450195312
ell 386, elapsed: 0.00043487548828125
ell 385, elapsed: 0.00043201446533203125
ell 384, elapsed: 0.00048089027404785156
ell 383, elapsed: 0.0004448890686035156
ell 382, elapsed: 0.00044417381286621094
ell 381, elapsed: 0.00043702125549316406
ell 380, elapsed: 0.00043487548828125
ell 379, elapsed: 0.0004401206970214844
ell 378, elapsed: 0.0004360675811767578
ell 377, elapsed: 0.0004420280456542969
ell 376, elapsed: 0.0004360675811767578
ell 375, elapsed: 0.0004639625549316406
ell 374, elapsed: 0.00044989585876464844
ell 373, elapsed: 0.00043702125549316406
ell 372, elapsed: 0.00044608116149902344
ell 371, elapsed: 0.00043702125549316406
ell 370, elapsed: 0.0004439353942871094
ell 369, elapsed: 0.00041794776916503906
ell 368, elapsed: 0.0005550384521484375
ell 367, elapsed: 0.0005030632019042969
ell 366, elapsed: 0.0004458427429199219
ell 365, elapsed: 0.0004429817199707031
ell 364, elapsed: 0.00043582916259765625
ell 363, elapsed: 0.0004379749298095703
ell 362, elapsed: 0.0004439353942871094
ell 361, elapsed: 0.000431060791015625
ell 360, elapsed: 0.0006461143493652344
ell 359, elapsed: 0.0005779266357421875
ell 358, elapsed: 0.0005910396575927734
ell 357, elapsed: 0.00044798851013183594
ell 356, elapsed: 0.0005571842193603516
ell 355, elapsed: 0.0005550384521484375
ell 354, elapsed: 0.0004401206970214844
ell 353, elapsed: 0.0006549358367919922
ell 352, elapsed: 0.0006530284881591797
ell 351, elapsed: 0.0005140304565429688
ell 350, elapsed: 0.00045013427734375
ell 349, elapsed: 0.0004458427429199219
ell 348, elapsed: 0.0006182193756103516
ell 347, elapsed: 0.0005431175231933594
ell 346, elapsed: 0.0004990100860595703
ell 345, elapsed: 0.0006167888641357422
ell 344, elapsed: 0.0005171298980712891
ell 343, elapsed: 0.0006890296936035156
ell 342, elapsed: 0.0005860328674316406
ell 341, elapsed: 0.0005831718444824219
ell 340, elapsed: 0.0004439353942871094
ell 339, elapsed: 0.00043892860412597656
ell 338, elapsed: 0.0004551410675048828
ell 337, elapsed: 0.0005910396575927734
ell 336, elapsed: 0.0005359649658203125
ell 335, elapsed: 0.0005919933319091797
ell 334, elapsed: 0.0005209445953369141
ell 333, elapsed: 0.0006241798400878906
ell 332, elapsed: 0.0004918575286865234
ell 331, elapsed: 0.0006139278411865234
ell 330, elapsed: 0.0006859302520751953
ell 329, elapsed: 0.0005469322204589844
ell 328, elapsed: 0.0006918907165527344
ell 327, elapsed: 0.0004818439483642578
ell 326, elapsed: 0.0004379749298095703
ell 325, elapsed: 0.0004410743713378906
ell 324, elapsed: 0.00043702125549316406
ell 323, elapsed: 0.00044083595275878906
ell 322, elapsed: 0.0005979537963867188
ell 321, elapsed: 0.0004379749298095703
ell 320, elapsed: 0.0004749298095703125
ell 319, elapsed: 0.0004398822784423828
ell 318, elapsed: 0.00044417381286621094
ell 317, elapsed: 0.00043201446533203125
ell 316, elapsed: 0.0004379749298095703
ell 315, elapsed: 0.00043892860412597656
ell 314, elapsed: 0.0004360675811767578
ell 313, elapsed: 0.0004429817199707031
ell 312, elapsed: 0.00047898292541503906
ell 311, elapsed: 0.0004429817199707031
ell 310, elapsed: 0.0004401206970214844
ell 309, elapsed: 0.00043487548828125
ell 308, elapsed: 0.0004420280456542969
ell 307, elapsed: 0.0004379749298095703
ell 306, elapsed: 0.0005040168762207031
ell 305, elapsed: 0.0006110668182373047
ell 304, elapsed: 0.0004718303680419922
ell 303, elapsed: 0.0004429817199707031
ell 302, elapsed: 0.00044083595275878906
ell 301, elapsed: 0.0006499290466308594
ell 300, elapsed: 0.0004799365997314453
ell 299, elapsed: 0.0004391670227050781
ell 298, elapsed: 0.0004451274871826172
ell 297, elapsed: 0.00045299530029296875
ell 296, elapsed: 0.00044798851013183594
ell 295, elapsed: 0.0004398822784423828
ell 294, elapsed: 0.0004520416259765625
ell 293, elapsed: 0.0004398822784423828
ell 292, elapsed: 0.0004401206970214844
ell 291, elapsed: 0.0004429817199707031
ell 290, elapsed: 0.0004401206970214844
ell 289, elapsed: 0.00045609474182128906
ell 288, elapsed: 0.00044417381286621094
ell 287, elapsed: 0.0004382133483886719
ell 286, elapsed: 0.0004470348358154297
ell 285, elapsed: 0.0004401206970214844
ell 284, elapsed: 0.0004417896270751953
ell 283, elapsed: 0.00044989585876464844
ell 282, elapsed: 0.0004410743713378906
ell 281, elapsed: 0.00044798851013183594
ell 280, elapsed: 0.0004448890686035156
ell 279, elapsed: 0.00044798851013183594
ell 278, elapsed: 0.00044083595275878906
ell 277, elapsed: 0.0004420280456542969
ell 276, elapsed: 0.0004420280456542969
ell 275, elapsed: 0.0004451274871826172
ell 274, elapsed: 0.0004451274871826172
ell 273, elapsed: 0.00044083595275878906
ell 272, elapsed: 0.0011849403381347656
ell 271, elapsed: 0.0004439353942871094
ell 270, elapsed: 0.00044083595275878906
ell 269, elapsed: 0.00043702125549316406
ell 268, elapsed: 0.00043702125549316406
ell 267, elapsed: 0.0005650520324707031
ell 266, elapsed: 0.0006220340728759766
ell 265, elapsed: 0.0004470348358154297
ell 264, elapsed: 0.00043511390686035156
ell 263, elapsed: 0.0004420280456542969
ell 262, elapsed: 0.00044608116149902344
ell 261, elapsed: 0.0004420280456542969
ell 260, elapsed: 0.0004451274871826172
ell 259, elapsed: 0.0006108283996582031
ell 258, elapsed: 0.0005810260772705078
ell 257, elapsed: 0.00043010711669921875
ell 256, elapsed: 0.00042700767517089844
ell 255, elapsed: 0.0006039142608642578
ell 254, elapsed: 0.0006589889526367188
ell 253, elapsed: 0.0005350112915039062
ell 252, elapsed: 0.0004961490631103516
ell 251, elapsed: 0.0007071495056152344
ell 250, elapsed: 0.00045609474182128906
ell 249, elapsed: 0.0004220008850097656
ell 248, elapsed: 0.0004508495330810547
ell 247, elapsed: 0.0004379749298095703
ell 246, elapsed: 0.0004398822784423828
ell 245, elapsed: 0.00044798851013183594
ell 244, elapsed: 0.00046706199645996094
ell 243, elapsed: 0.0004508495330810547
ell 242, elapsed: 0.00044417381286621094
ell 241, elapsed: 0.0004391670227050781
ell 240, elapsed: 0.00044798851013183594
ell 239, elapsed: 0.0004391670227050781
ell 238, elapsed: 0.0004401206970214844
ell 237, elapsed: 0.0004360675811767578
ell 236, elapsed: 0.00045418739318847656
ell 235, elapsed: 0.00043702125549316406
ell 234, elapsed: 0.00043702125549316406
ell 233, elapsed: 0.0004360675811767578
ell 232, elapsed: 0.0004382133483886719
ell 231, elapsed: 0.000431060791015625
ell 230, elapsed: 0.0004391670227050781
ell 229, elapsed: 0.00043487548828125
ell 228, elapsed: 0.00045800209045410156
ell 227, elapsed: 0.00044417381286621094
ell 226, elapsed: 0.0004439353942871094
ell 225, elapsed: 0.0004439353942871094
ell 224, elapsed: 0.0004420280456542969
ell 223, elapsed: 0.00044798851013183594
ell 222, elapsed: 0.0004420280456542969
ell 221, elapsed: 0.0004448890686035156
ell 220, elapsed: 0.00047898292541503906
ell 219, elapsed: 0.0004420280456542969
ell 218, elapsed: 0.0004420280456542969
ell 217, elapsed: 0.00043487548828125
ell 216, elapsed: 0.0006399154663085938
ell 215, elapsed: 0.0006849765777587891
ell 214, elapsed: 0.0005679130554199219
ell 213, elapsed: 0.0004639625549316406
ell 212, elapsed: 0.00044608116149902344
ell 211, elapsed: 0.0004470348358154297
ell 210, elapsed: 0.00043392181396484375
ell 209, elapsed: 0.0004379749298095703
ell 208, elapsed: 0.0004410743713378906
ell 207, elapsed: 0.00043892860412597656
ell 206, elapsed: 0.0004398822784423828
ell 205, elapsed: 0.0004611015319824219
ell 204, elapsed: 0.0004417896270751953
ell 203, elapsed: 0.0004439353942871094
ell 202, elapsed: 0.0004398822784423828
ell 201, elapsed: 0.00044417381286621094
ell 200, elapsed: 0.00043892860412597656
ell 199, elapsed: 0.0004470348358154297
ell 198, elapsed: 0.0004489421844482422
ell 197, elapsed: 0.0004742145538330078
ell 196, elapsed: 0.0004940032958984375
ell 195, elapsed: 0.0006480216979980469
ell 194, elapsed: 0.000492095947265625
ell 193, elapsed: 0.0005290508270263672
ell 192, elapsed: 0.0004401206970214844
ell 191, elapsed: 0.00043702125549316406
ell 190, elapsed: 0.00047087669372558594
ell 189, elapsed: 0.00044608116149902344
ell 188, elapsed: 0.0004489421844482422
ell 187, elapsed: 0.00043702125549316406
ell 186, elapsed: 0.0004420280456542969
ell 185, elapsed: 0.0004448890686035156
ell 184, elapsed: 0.0004458427429199219
ell 183, elapsed: 0.00043892860412597656
ell 182, elapsed: 0.0004401206970214844
ell 181, elapsed: 0.0004489421844482422
ell 180, elapsed: 0.0004379749298095703
ell 179, elapsed: 0.0004410743713378906
ell 178, elapsed: 0.0004398822784423828
ell 177, elapsed: 0.00051116943359375
ell 176, elapsed: 0.0006129741668701172
ell 175, elapsed: 0.0004391670227050781
ell 174, elapsed: 0.00045800209045410156
ell 173, elapsed: 0.00043702125549316406
ell 172, elapsed: 0.00043582916259765625
ell 171, elapsed: 0.00043892860412597656
ell 170, elapsed: 0.0004382133483886719
ell 169, elapsed: 0.0004420280456542969
ell 168, elapsed: 0.00043702125549316406
ell 167, elapsed: 0.00043392181396484375
ell 166, elapsed: 0.00045180320739746094
ell 165, elapsed: 0.0004391670227050781
ell 164, elapsed: 0.0004439353942871094
ell 163, elapsed: 0.00044083595275878906
ell 162, elapsed: 0.0004420280456542969
ell 161, elapsed: 0.0004360675811767578
ell 160, elapsed: 0.0004398822784423828
ell 159, elapsed: 0.0006210803985595703
ell 158, elapsed: 0.0005271434783935547
ell 157, elapsed: 0.0004417896270751953
ell 156, elapsed: 0.0004391670227050781
ell 155, elapsed: 0.0004410743713378906
ell 154, elapsed: 0.00044417381286621094
ell 153, elapsed: 0.0004448890686035156
ell 152, elapsed: 0.0004410743713378906
ell 151, elapsed: 0.0004398822784423828
ell 150, elapsed: 0.0006258487701416016
ell 149, elapsed: 0.0005428791046142578
ell 148, elapsed: 0.00043487548828125
ell 147, elapsed: 0.00044798851013183594
ell 146, elapsed: 0.00043487548828125
ell 145, elapsed: 0.0004398822784423828
ell 144, elapsed: 0.00043702125549316406
ell 143, elapsed: 0.0004398822784423828
ell 142, elapsed: 0.00045800209045410156
ell 141, elapsed: 0.0004420280456542969
ell 140, elapsed: 0.0004508495330810547
ell 139, elapsed: 0.0004470348358154297
ell 138, elapsed: 0.0005979537963867188
ell 137, elapsed: 0.0005180835723876953
ell 136, elapsed: 0.00043010711669921875
ell 135, elapsed: 0.00047206878662109375
ell 134, elapsed: 0.00043702125549316406
ell 133, elapsed: 0.00043320655822753906
ell 132, elapsed: 0.0004410743713378906
ell 131, elapsed: 0.00043082237243652344
ell 130, elapsed: 0.0004401206970214844
ell 129, elapsed: 0.00043487548828125
ell 128, elapsed: 0.0004360675811767578
ell 127, elapsed: 0.00043892860412597656
ell 126, elapsed: 0.0004570484161376953
ell 125, elapsed: 0.0004420280456542969
ell 124, elapsed: 0.00043892860412597656
ell 123, elapsed: 0.0004391670227050781
ell 122, elapsed: 0.0004649162292480469
ell 121, elapsed: 0.0004341602325439453
ell 120, elapsed: 0.0004448890686035156
ell 119, elapsed: 0.0004379749298095703
ell 118, elapsed: 0.0004639625549316406
ell 117, elapsed: 0.0004398822784423828
ell 116, elapsed: 0.00044417381286621094
ell 115, elapsed: 0.0004439353942871094
ell 114, elapsed: 0.000453948974609375
ell 113, elapsed: 0.0004391670227050781
ell 112, elapsed: 0.00044918060302734375
ell 111, elapsed: 0.00043702125549316406
ell 110, elapsed: 0.0006639957427978516
ell 109, elapsed: 0.00043702125549316406
ell 108, elapsed: 0.0004401206970214844
ell 107, elapsed: 0.0004420280456542969
ell 106, elapsed: 0.0004401206970214844
ell 105, elapsed: 0.00045800209045410156
ell 104, elapsed: 0.0004379749298095703
ell 103, elapsed: 0.0004448890686035156
ell 102, elapsed: 0.0009908676147460938
ell 101, elapsed: 0.0004999637603759766
ell 100, elapsed: 0.0006921291351318359
ell 99, elapsed: 0.0005140304565429688
ell 98, elapsed: 0.00044989585876464844
ell 97, elapsed: 0.0004520416259765625
ell 96, elapsed: 0.0008969306945800781
ell 95, elapsed: 0.0004489421844482422
ell 94, elapsed: 0.00045299530029296875
ell 93, elapsed: 0.0004429817199707031
ell 92, elapsed: 0.0004360675811767578
ell 91, elapsed: 0.0004379749298095703
ell 90, elapsed: 0.0004451274871826172
ell 89, elapsed: 0.0009670257568359375
ell 88, elapsed: 0.0004439353942871094
ell 87, elapsed: 0.0004410743713378906
ell 86, elapsed: 0.0004379749298095703
ell 85, elapsed: 0.0004432201385498047
ell 84, elapsed: 0.00043511390686035156
ell 83, elapsed: 0.0004429817199707031
ell 82, elapsed: 0.0010251998901367188
ell 81, elapsed: 0.0006709098815917969
ell 80, elapsed: 0.0004999637603759766
ell 79, elapsed: 0.0004379749298095703
ell 78, elapsed: 0.0004429817199707031
ell 77, elapsed: 0.0004379749298095703
ell 76, elapsed: 0.00043511390686035156
ell 75, elapsed: 0.0009889602661132812
ell 74, elapsed: 0.00044083595275878906
ell 73, elapsed: 0.00045013427734375
ell 72, elapsed: 0.0004360675811767578
ell 71, elapsed: 0.0004410743713378906
ell 70, elapsed: 0.0004420280456542969
ell 69, elapsed: 0.0004420280456542969
ell 68, elapsed: 0.0008821487426757812
ell 67, elapsed: 0.0004398822784423828
ell 66, elapsed: 0.0006289482116699219
ell 65, elapsed: 0.00049591064453125
ell 64, elapsed: 0.0004410743713378906
ell 63, elapsed: 0.0006229877471923828
ell 62, elapsed: 0.0010249614715576172
ell 61, elapsed: 0.0004448890686035156
ell 60, elapsed: 0.0004410743713378906
ell 59, elapsed: 0.00043511390686035156
ell 58, elapsed: 0.0004420280456542969
ell 57, elapsed: 0.00043702125549316406
ell 56, elapsed: 0.00044083595275878906
ell 55, elapsed: 0.0009050369262695312
ell 54, elapsed: 0.0004150867462158203
ell 53, elapsed: 0.0004448890686035156
ell 52, elapsed: 0.0004379749298095703
ell 51, elapsed: 0.0004420280456542969
ell 50, elapsed: 0.0004379749298095703
ell 49, elapsed: 0.0004379749298095703
ell 48, elapsed: 0.0004429817199707031
ell 47, elapsed: 0.00045299530029296875
ell 46, elapsed: 0.00044798851013183594
ell 45, elapsed: 0.00043892860412597656
ell 44, elapsed: 0.0004420280456542969
ell 43, elapsed: 0.00043892860412597656
ell 42, elapsed: 0.00043702125549316406
ell 41, elapsed: 0.00043892860412597656
ell 40, elapsed: 0.0009109973907470703
ell 39, elapsed: 0.0004448890686035156
ell 38, elapsed: 0.0004420280456542969
ell 37, elapsed: 0.0005528926849365234
ell 36, elapsed: 0.0004458427429199219
ell 35, elapsed: 0.0004410743713378906
ell 34, elapsed: 0.00044798851013183594
ell 33, elapsed: 0.0009272098541259766
ell 32, elapsed: 0.0004448890686035156
ell 31, elapsed: 0.0004508495330810547
ell 30, elapsed: 0.0004398822784423828
ell 29, elapsed: 0.0004458427429199219
ell 28, elapsed: 0.0004410743713378906
ell 27, elapsed: 0.0004451274871826172
ell 26, elapsed: 0.0009169578552246094
ell 25, elapsed: 0.0004429817199707031
ell 24, elapsed: 0.0004448890686035156
ell 23, elapsed: 0.0004420280456542969
ell 22, elapsed: 0.0004489421844482422
ell 21, elapsed: 0.0005841255187988281
ell 20, elapsed: 0.0011501312255859375
ell 19, elapsed: 0.0004630088806152344
ell 18, elapsed: 0.0005578994750976562
ell 17, elapsed: 0.0005559921264648438
ell 16, elapsed: 0.0004401206970214844
ell 15, elapsed: 0.0004398822784423828
ell 14, elapsed: 0.00044798851013183594
ell 13, elapsed: 0.0009229183197021484
ell 12, elapsed: 0.0004439353942871094
ell 11, elapsed: 0.0004439353942871094
ell 10, elapsed: 0.0004439353942871094
ell 9, elapsed: 0.0004458427429199219
ell 8, elapsed: 0.00043892860412597656
ell 7, elapsed: 0.0004470348358154297
ell 6, elapsed: 0.0009088516235351562
ell 5, elapsed: 0.0004420280456542969
ell 4, elapsed: 0.0004458427429199219
ell 3, elapsed: 0.0004520416259765625
ell 2, elapsed: 0.0004467964172363281
ell 1, elapsed: 0.0004429817199707031
ell 0, elapsed: 0.0004420280456542969
  0.722424 seconds (103.48 k allocations: 3.968 MiB)
elapsed: 0.0009992122650146484
step:          0.071 sec (0 allocations: 0 byte, 0.0% gc time)
swapping:      0.000692 sec (0 allocations: 0 byte, 0.0% gc time)
calc_Mellell!: 0.012274 sec (0 allocations: 0 byte, 0.0% gc time)
  t0 :  0.002288 sec (0 allocations: 0 byte, 0.0% gc time)
  tm2 : 0.101053 sec (0 allocations: 0 byte, 0.0% gc time)
  tm2s: 0.001532 sec (0 allocations: 0 byte, 0.0% gc time)
  tm4 : 0.276503 sec (0 allocations: 0 byte, 0.0% gc time)
  tp2 : 0.0 sec (0 allocations: 0 byte, 0.0% gc time)
  tp2s: 0.0 sec (0 allocations: 0 byte, 0.0% gc time)
  tp4 : 0.0 sec (0 allocations: 0 byte, 0.0% gc time)
calc_wtdll!:   0.414308 sec (9.9 k allocations: 1.047 MB, 0.0% gc time)
calc_wljj!:    0.046148 sec (689 allocations: 10.766 KB, 0.0% gc time)
mult_prefac!:  0.0 sec (0 allocations: 0 byte, 0.0% gc time)
convert:       0.0 sec (0 allocations: 0 byte, 0.0% gc time)
write:         0.042752 sec (0 allocations: 0 byte, 0.0% gc time)
test_rand_2f1: 2.0e-6 sec (0 allocations: 0 byte, 0.0% gc time)
Closing outfile out/Ml21-cache.bin...   0.000007 seconds
  0.000607 seconds (36 allocations: 27.953 KiB)
make_phi():   0.002828 seconds (8.18 k allocations: 237.844 KiB)
  0.290486 seconds (141.90 k allocations: 3.483 MiB)
tskip:       0.001389 sec (0 allocations: 0 byte, 0.0% gc time)
tread:       0.037029 sec (17 allocations: 10.641 KB, 0.0% gc time)
tmultphi:    0.020849 sec (0 allocations: 0 byte, 0.0% gc time)
tbrfft:      0.067983 sec (0 allocations: 0 byte, 0.0% gc time)
tmultprefac: 0.064907 sec (0 allocations: 0 byte, 0.0% gc time)
toutfunc:    0.092315 sec (127.507 k allocations: 2.312 MB, 0.0% gc time)
Testing R=1.0 ... passed
Calculating fmax: 
  dlrec    = 4
  dlrecRg1 = -4
  q=1.1, R=0.9:	  0.486788 seconds (105.76 k allocations: 15.287 MiB)

  0.488984 seconds (105.98 k allocations: 15.323 MiB)
ℓ = 1202
Δℓ = 4
ΔℓRg1 = -4
N = 1600
q = 1.1
kmin = 1.0e-5
kmax = 100000.00000000004
χ0 = 0.023029999999999995
RR = RR.tsv
ℓmax = ℓmax.bin
f21 = f21.bin
kmin = 1.0e-5
kmax = 100000.0
dlrec    = 4
dlrecRg1 = -4
Output size: 5741568 bytes = 0.005347251892089844 GiB
Output size: 51264 bytes = 4.774332046508789e-5 GiB
Reading 'out/F21EllCache'...   0.001192 seconds (197 allocations: 84.203 KiB)
ellmax: 1202
lmaxcache: 1202
fell[:,1,1] = ComplexF64[1.3482014726274674e-57 - 3.302141236118086e-73im, 1.357860004724329e-57 - 3.3257978169518355e-73im]
ell 1202, elapsed: 0.0001590251922607422
ell 1201, elapsed: 0.0005450248718261719
ell 1200, elapsed: 0.0006358623504638672
ell 1199, elapsed: 0.0006389617919921875
ell 1198, elapsed: 0.0006270408630371094
ell 1002, elapsed: 0.010797977447509766
ell 1001, elapsed: 0.0007011890411376953
ell 1000, elapsed: 0.0005910396575927734
ell 999, elapsed: 0.0004241466522216797
ell 998, elapsed: 0.0005168914794921875
ell 902, elapsed: 0.005843162536621094
ell 901, elapsed: 0.00038909912109375
ell 900, elapsed: 0.0005328655242919922
ell 899, elapsed: 0.0005559921264648438
ell 898, elapsed: 0.0004999637603759766
ell 802, elapsed: 0.00533294677734375
ell 801, elapsed: 0.0003809928894042969
ell 800, elapsed: 0.00036907196044921875
ell 799, elapsed: 0.00036787986755371094
ell 798, elapsed: 0.00037407875061035156
ell 702, elapsed: 0.005506038665771484
ell 701, elapsed: 0.0006041526794433594
ell 700, elapsed: 0.0007140636444091797
ell 699, elapsed: 0.0006060600280761719
ell 698, elapsed: 0.0006067752838134766
ell 602, elapsed: 0.005854129791259766
ell 601, elapsed: 0.0008938312530517578
ell 600, elapsed: 0.0009140968322753906
ell 599, elapsed: 0.0006988048553466797
ell 598, elapsed: 0.0006749629974365234
ell 502, elapsed: 0.005978822708129883
ell 501, elapsed: 0.0004591941833496094
ell 500, elapsed: 0.0008831024169921875
ell 499, elapsed: 0.0007431507110595703
ell 498, elapsed: 0.001088857650756836
ell 402, elapsed: 0.005454063415527344
ell 401, elapsed: 0.00048804283142089844
ell 400, elapsed: 0.00047898292541503906
ell 399, elapsed: 0.0004589557647705078
ell 398, elapsed: 0.0006351470947265625
ell 302, elapsed: 0.005666017532348633
ell 301, elapsed: 0.0006661415100097656
ell 300, elapsed: 0.0006229877471923828
ell 299, elapsed: 0.0006439685821533203
ell 298, elapsed: 0.0005209445953369141
ell 202, elapsed: 0.005366802215576172
ell 201, elapsed: 0.0006361007690429688
ell 200, elapsed: 0.0006108283996582031
ell 199, elapsed: 0.0006520748138427734
ell 198, elapsed: 0.0007150173187255859
ell 152, elapsed: 0.0033919811248779297
ell 151, elapsed: 0.0006392002105712891
ell 150, elapsed: 0.0004630088806152344
ell 149, elapsed: 0.0006539821624755859
ell 148, elapsed: 0.0004551410675048828
ell 127, elapsed: 0.0016109943389892578
ell 126, elapsed: 0.00040602684020996094
ell 125, elapsed: 0.0003979206085205078
ell 124, elapsed: 0.0003771781921386719
ell 123, elapsed: 0.0004248619079589844
ell 114, elapsed: 0.0009179115295410156
ell 113, elapsed: 0.00037598609924316406
ell 112, elapsed: 0.0003821849822998047
ell 111, elapsed: 0.0003769397735595703
ell 110, elapsed: 0.0003788471221923828
ell 102, elapsed: 0.0008478164672851562
ell 101, elapsed: 0.0003769397735595703
ell 100, elapsed: 0.00037288665771484375
ell 99, elapsed: 0.0004398822784423828
ell 98, elapsed: 0.0004150867462158203
ell 97, elapsed: 0.0005960464477539062
ell 96, elapsed: 0.0005600452423095703
ell 95, elapsed: 0.0004911422729492188
ell 94, elapsed: 0.00047898292541503906
ell 93, elapsed: 0.0005538463592529297
ell 92, elapsed: 0.0005249977111816406
ell 91, elapsed: 0.0005221366882324219
ell 90, elapsed: 0.0005238056182861328
ell 89, elapsed: 0.0005278587341308594
ell 88, elapsed: 0.0005729198455810547
ell 87, elapsed: 0.0005469322204589844
ell 86, elapsed: 0.0005340576171875
ell 85, elapsed: 0.0006289482116699219
ell 84, elapsed: 0.0005869865417480469
ell 83, elapsed: 0.0005810260772705078
ell 82, elapsed: 0.0005910396575927734
ell 81, elapsed: 0.0005960464477539062
ell 80, elapsed: 0.000598907470703125
ell 79, elapsed: 0.0005400180816650391
ell 78, elapsed: 0.0005500316619873047
ell 77, elapsed: 0.0005660057067871094
ell 76, elapsed: 0.0005362033843994141
ell 75, elapsed: 0.0005919933319091797
ell 74, elapsed: 0.0005347728729248047
ell 73, elapsed: 0.0006198883056640625
ell 72, elapsed: 0.0005970001220703125
ell 71, elapsed: 0.0005471706390380859
ell 70, elapsed: 0.0005240440368652344
ell 69, elapsed: 0.0005471706390380859
ell 68, elapsed: 0.0005300045013427734
ell 67, elapsed: 0.0005230903625488281
ell 66, elapsed: 0.0005309581756591797
ell 65, elapsed: 0.0005400180816650391
ell 64, elapsed: 0.0005259513854980469
ell 63, elapsed: 0.0005240440368652344
ell 62, elapsed: 0.0005190372467041016
ell 61, elapsed: 0.0005259513854980469
ell 60, elapsed: 0.0006470680236816406
ell 59, elapsed: 0.0008158683776855469
ell 58, elapsed: 0.0008130073547363281
ell 57, elapsed: 0.0008020401000976562
ell 56, elapsed: 0.0007359981536865234
ell 55, elapsed: 0.0005669593811035156
ell 54, elapsed: 0.0006740093231201172
ell 53, elapsed: 0.0008029937744140625
ell 52, elapsed: 0.0007779598236083984
ell 51, elapsed: 0.0005609989166259766
ell 50, elapsed: 0.0005481243133544922
ell 49, elapsed: 0.00055694580078125
ell 48, elapsed: 0.000659942626953125
ell 47, elapsed: 0.0006401538848876953
ell 46, elapsed: 0.0006248950958251953
ell 45, elapsed: 0.0007081031799316406
ell 44, elapsed: 0.0009129047393798828
ell 43, elapsed: 0.0009200572967529297
ell 42, elapsed: 0.0009331703186035156
ell 41, elapsed: 0.0006639957427978516
ell 40, elapsed: 0.0006527900695800781
ell 39, elapsed: 0.0009899139404296875
ell 38, elapsed: 0.0008828639984130859
ell 37, elapsed: 0.0009529590606689453
ell 36, elapsed: 0.0009248256683349609
ell 35, elapsed: 0.0009770393371582031
ell 34, elapsed: 0.0008859634399414062
ell 33, elapsed: 0.0006480216979980469
ell 32, elapsed: 0.0008809566497802734
ell 31, elapsed: 0.0009450912475585938
ell 30, elapsed: 0.0008871555328369141
ell 29, elapsed: 0.0005550384521484375
ell 28, elapsed: 0.0009160041809082031
ell 27, elapsed: 0.0006489753723144531
ell 26, elapsed: 0.0008800029754638672
ell 25, elapsed: 0.00045108795166015625
ell 24, elapsed: 0.0008380413055419922
ell 23, elapsed: 0.0005879402160644531
ell 22, elapsed: 0.0005738735198974609
ell 21, elapsed: 0.0005710124969482422
ell 20, elapsed: 0.0005719661712646484
ell 19, elapsed: 0.0005488395690917969
ell 18, elapsed: 0.0005259513854980469
ell 17, elapsed: 0.0005400180816650391
ell 16, elapsed: 0.0005359649658203125
ell 15, elapsed: 0.0005469322204589844
ell 14, elapsed: 0.0005629062652587891
ell 13, elapsed: 0.0005240440368652344
ell 12, elapsed: 0.0004451274871826172
ell 11, elapsed: 0.0005171298980712891
ell 10, elapsed: 0.0005018711090087891
ell 9, elapsed: 0.0005121231079101562
ell 8, elapsed: 0.000621795654296875
ell 7, elapsed: 0.0005359649658203125
ell 6, elapsed: 0.0007991790771484375
ell 5, elapsed: 0.0007631778717041016
ell 4, elapsed: 0.0006799697875976562
ell 3, elapsed: 0.0005600452423095703
ell 2, elapsed: 0.0007798671722412109
ell 1, elapsed: 0.0008490085601806641
ell 0, elapsed: 0.0005540847778320312
  0.206666 seconds (19.39 k allocations: 842.797 KiB)
elapsed: 0.0015139579772949219
step:          0.063288 sec (0 allocations: 0 byte, 0.0% gc time)
swapping:      0.000515 sec (0 allocations: 0 byte, 0.0% gc time)
calc_Mellell!: 0.002247 sec (0 allocations: 0 byte, 0.0% gc time)
  t0 :  0.00049 sec (0 allocations: 0 byte, 0.0% gc time)
  tm2 : 0.015416 sec (0 allocations: 0 byte, 0.0% gc time)
  tm2s: 0.000322 sec (0 allocations: 0 byte, 0.0% gc time)
  tm4 : 0.040458 sec (0 allocations: 0 byte, 0.0% gc time)
  tp2 : 0.0 sec (0 allocations: 0 byte, 0.0% gc time)
  tp2s: 0.0 sec (0 allocations: 0 byte, 0.0% gc time)
  tp4 : 0.0 sec (0 allocations: 0 byte, 0.0% gc time)
calc_wtdll!:   0.057533 sec (1.344 k allocations: 147.0 KB, 0.0% gc time)
calc_wljj!:    0.004223 sec (6 allocations: 96 byte, 0.0% gc time)
mult_prefac!:  0.0 sec (0 allocations: 0 byte, 0.0% gc time)
convert:       0.0 sec (0 allocations: 0 byte, 0.0% gc time)
write:         0.004738 sec (0 allocations: 0 byte, 0.0% gc time)
test_rand_2f1: 0.0 sec (0 allocations: 0 byte, 0.0% gc time)
Closing outfile out/Ml21-cache.bin...   0.000008 seconds
  0.000298 seconds (36 allocations: 27.953 KiB)
make_phi():   0.014262 seconds (8.18 k allocations: 237.844 KiB)
  0.028736 seconds (11.65 k allocations: 308.688 KiB)
tskip:       3.1e-5 sec (0 allocations: 0 byte, 0.0% gc time)
tread:       0.003516 sec (17 allocations: 2.125 KB, 0.0% gc time)
tmultphi:    0.002231 sec (0 allocations: 0 byte, 0.0% gc time)
tbrfft:      0.006744 sec (0 allocations: 0 byte, 0.0% gc time)
tmultprefac: 0.006239 sec (0 allocations: 0 byte, 0.0% gc time)
toutfunc:    0.00937 sec (10.304 k allocations: 196.0 KB, 0.0% gc time)
Testing R=0.9 ... passed
Calculating fmax: 
  dlrec    = 4
  dlrecRg1 = -4
  q=1.1, R=0.8:	  0.368669 seconds (103.25 k allocations: 14.856 MiB)

  0.369004 seconds (103.48 k allocations: 14.893 MiB)
ℓ = 1202
Δℓ = 4
ΔℓRg1 = -4
N = 1600
q = 1.1
kmin = 1.0e-5
kmax = 100000.00000000004
χ0 = 0.023029999999999995
RR = RR.tsv
ℓmax = ℓmax.bin
f21 = f21.bin
kmin = 1.0e-5
kmax = 100000.0
dlrec    = 4
dlrecRg1 = -4
Output size: 5741568 bytes = 0.005347251892089844 GiB
Output size: 51264 bytes = 4.774332046508789e-5 GiB
Reading 'out/F21EllCache'...   0.001138 seconds (197 allocations: 84.203 KiB)
ellmax: 1202
lmaxcache: 1202
fell[:,1,1] = ComplexF64[7.519068145690986e-120 - 1.8416405474382574e-135im, 7.541664537386155e-120 - 1.847175067190611e-135im]
ell 1202, elapsed: 3.314018249511719e-5
ell 1201, elapsed: 0.000637054443359375
ell 1200, elapsed: 0.0005259513854980469
ell 1199, elapsed: 0.0005788803100585938
ell 1198, elapsed: 0.0006439685821533203
ell 1002, elapsed: 0.011101007461547852
ell 1001, elapsed: 0.000553131103515625
ell 1000, elapsed: 0.0004520416259765625
ell 999, elapsed: 0.0004899501800537109
ell 998, elapsed: 0.00067901611328125
ell 902, elapsed: 0.005810976028442383
ell 901, elapsed: 0.0003681182861328125
ell 900, elapsed: 0.0003559589385986328
ell 899, elapsed: 0.00035190582275390625
ell 898, elapsed: 0.0004239082336425781
ell 802, elapsed: 0.0057070255279541016
ell 801, elapsed: 0.0004978179931640625
ell 800, elapsed: 0.0005941390991210938
ell 799, elapsed: 0.0005049705505371094
ell 798, elapsed: 0.0006330013275146484
ell 702, elapsed: 0.005630016326904297
ell 701, elapsed: 0.0005540847778320312
ell 700, elapsed: 0.0006000995635986328
ell 699, elapsed: 0.0006320476531982422
ell 698, elapsed: 0.0003578662872314453
ell 602, elapsed: 0.005666971206665039
ell 601, elapsed: 0.0005371570587158203
ell 600, elapsed: 0.0005049705505371094
ell 599, elapsed: 0.0006220340728759766
ell 598, elapsed: 0.00047206878662109375
ell 502, elapsed: 0.005794048309326172
ell 501, elapsed: 0.0003600120544433594
ell 500, elapsed: 0.00035500526428222656
ell 499, elapsed: 0.00035500526428222656
ell 498, elapsed: 0.0005080699920654297
ell 402, elapsed: 0.005605936050415039
ell 401, elapsed: 0.0004439353942871094
ell 400, elapsed: 0.0005841255187988281
ell 399, elapsed: 0.0005831718444824219
ell 398, elapsed: 0.0005919933319091797
ell 302, elapsed: 0.006256103515625
ell 301, elapsed: 0.0005028247833251953
ell 300, elapsed: 0.0006880760192871094
ell 299, elapsed: 0.00041222572326660156
ell 298, elapsed: 0.0003540515899658203
ell 202, elapsed: 0.005704164505004883
ell 201, elapsed: 0.0005748271942138672
ell 200, elapsed: 0.0007081031799316406
ell 199, elapsed: 0.0005729198455810547
ell 198, elapsed: 0.0005829334259033203
ell 152, elapsed: 0.003226041793823242
ell 151, elapsed: 0.0005390644073486328
ell 150, elapsed: 0.0005950927734375
ell 149, elapsed: 0.0005650520324707031
ell 148, elapsed: 0.0005309581756591797
ell 127, elapsed: 0.0017120838165283203
ell 126, elapsed: 0.00036406517028808594
ell 125, elapsed: 0.0003540515899658203
ell 124, elapsed: 0.0003509521484375
ell 123, elapsed: 0.00035500526428222656
ell 114, elapsed: 0.000843048095703125
ell 113, elapsed: 0.0005309581756591797
ell 112, elapsed: 0.000453948974609375
ell 111, elapsed: 0.0005161762237548828
ell 110, elapsed: 0.00048804283142089844
ell 102, elapsed: 0.0011420249938964844
ell 101, elapsed: 0.0006239414215087891
ell 100, elapsed: 0.0005059242248535156
ell 99, elapsed: 0.0004940032958984375
ell 98, elapsed: 0.00048804283142089844
ell 97, elapsed: 0.0006508827209472656
ell 96, elapsed: 0.0006930828094482422
ell 95, elapsed: 0.0008189678192138672
ell 94, elapsed: 0.0005049705505371094
ell 93, elapsed: 0.0004210472106933594
ell 92, elapsed: 0.0004181861877441406
ell 91, elapsed: 0.0004119873046875
ell 90, elapsed: 0.0004191398620605469
ell 89, elapsed: 0.00041484832763671875
ell 88, elapsed: 0.0004150867462158203
ell 87, elapsed: 0.0005729198455810547
ell 86, elapsed: 0.0007159709930419922
ell 85, elapsed: 0.0006761550903320312
ell 84, elapsed: 0.0006730556488037109
ell 83, elapsed: 0.0006091594696044922
ell 82, elapsed: 0.0005500316619873047
ell 81, elapsed: 0.0007941722869873047
ell 80, elapsed: 0.0006401538848876953
ell 79, elapsed: 0.0006880760192871094
ell 78, elapsed: 0.0007159709930419922
ell 77, elapsed: 0.0006821155548095703
ell 76, elapsed: 0.0006029605865478516
ell 75, elapsed: 0.0006241798400878906
ell 74, elapsed: 0.000698089599609375
ell 73, elapsed: 0.0006749629974365234
ell 72, elapsed: 0.0006580352783203125
ell 71, elapsed: 0.0008339881896972656
ell 70, elapsed: 0.0005631446838378906
ell 69, elapsed: 0.0005619525909423828
ell 68, elapsed: 0.0006778240203857422
ell 67, elapsed: 0.0006818771362304688
ell 66, elapsed: 0.0006771087646484375
ell 65, elapsed: 0.0006368160247802734
ell 64, elapsed: 0.00041794776916503906
ell 63, elapsed: 0.00041294097900390625
ell 62, elapsed: 0.0004181861877441406
ell 61, elapsed: 0.00041413307189941406
ell 60, elapsed: 0.00041794776916503906
ell 59, elapsed: 0.0004189014434814453
ell 58, elapsed: 0.00041413307189941406
ell 57, elapsed: 0.0006239414215087891
ell 56, elapsed: 0.0006909370422363281
ell 55, elapsed: 0.0006690025329589844
ell 54, elapsed: 0.0006990432739257812
ell 53, elapsed: 0.0007109642028808594
ell 52, elapsed: 0.0007860660552978516
ell 51, elapsed: 0.0006160736083984375
ell 50, elapsed: 0.0006821155548095703
ell 49, elapsed: 0.0005199909210205078
ell 48, elapsed: 0.0006310939788818359
ell 47, elapsed: 0.0006649494171142578
ell 46, elapsed: 0.0007960796356201172
ell 45, elapsed: 0.0006160736083984375
[...]
ell 789, elapsed: 0.0008258819580078125
ell 788, elapsed: 0.0008358955383300781
ell 782, elapsed: 0.0015308856964111328
ell 781, elapsed: 0.0008568763732910156
ell 780, elapsed: 0.0008339881896972656
ell 779, elapsed: 0.000823974609375
ell 778, elapsed: 0.0008580684661865234
ell 772, elapsed: 0.0015478134155273438
ell 771, elapsed: 0.0008292198181152344
ell 770, elapsed: 0.0008180141448974609
ell 769, elapsed: 0.0008420944213867188
ell 768, elapsed: 0.004900217056274414
ell 762, elapsed: 0.0018639564514160156
ell 761, elapsed: 0.0007929801940917969
ell 760, elapsed: 0.0008649826049804688
ell 759, elapsed: 0.0008392333984375
ell 758, elapsed: 0.0008361339569091797
ell 752, elapsed: 0.0015130043029785156
ell 751, elapsed: 0.001318216323852539
ell 750, elapsed: 0.0008549690246582031
ell 749, elapsed: 0.0008299350738525391
ell 748, elapsed: 0.0008499622344970703
ell 742, elapsed: 0.002262115478515625
ell 741, elapsed: 0.0007889270782470703
ell 740, elapsed: 0.0008280277252197266
ell 739, elapsed: 0.0009558200836181641
ell 738, elapsed: 0.0008409023284912109
ell 732, elapsed: 0.0016999244689941406
ell 731, elapsed: 0.0009307861328125
ell 730, elapsed: 0.0008389949798583984
ell 729, elapsed: 0.0008370876312255859
ell 728, elapsed: 0.0010669231414794922
ell 722, elapsed: 0.001825094223022461
ell 721, elapsed: 0.000782012939453125
ell 720, elapsed: 0.0008349418640136719
ell 719, elapsed: 0.0008320808410644531
ell 718, elapsed: 0.0009350776672363281
ell 712, elapsed: 0.0017230510711669922
ell 711, elapsed: 0.0007839202880859375
ell 710, elapsed: 0.0009729862213134766
ell 709, elapsed: 0.000823974609375
ell 708, elapsed: 0.0008389949798583984
ell 702, elapsed: 0.001708984375
ell 701, elapsed: 0.0007758140563964844
ell 700, elapsed: 0.0008320808410644531
ell 699, elapsed: 0.0008261203765869141
ell 698, elapsed: 0.0008289813995361328
ell 692, elapsed: 0.0017969608306884766
ell 691, elapsed: 0.0007758140563964844
ell 690, elapsed: 0.0008330345153808594
ell 689, elapsed: 0.000823974609375
ell 688, elapsed: 0.0008668899536132812
ell 682, elapsed: 0.0017511844635009766
ell 681, elapsed: 0.0007791519165039062
ell 680, elapsed: 0.0008509159088134766
ell 679, elapsed: 0.0008311271667480469
ell 678, elapsed: 0.000843048095703125
ell 672, elapsed: 0.002084970474243164
ell 671, elapsed: 0.0007910728454589844
ell 670, elapsed: 0.0008409023284912109
ell 669, elapsed: 0.0008409023284912109
ell 668, elapsed: 0.0011529922485351562
ell 662, elapsed: 0.0015139579772949219
ell 661, elapsed: 0.0008308887481689453
ell 660, elapsed: 0.0008358955383300781
ell 659, elapsed: 0.00084686279296875
ell 658, elapsed: 0.0008440017700195312
ell 652, elapsed: 0.0017039775848388672
ell 651, elapsed: 0.000885009765625
ell 650, elapsed: 0.0008471012115478516
ell 649, elapsed: 0.0008418560028076172
ell 648, elapsed: 0.0008380413055419922
ell 642, elapsed: 0.0015299320220947266
ell 641, elapsed: 0.0008530616760253906
ell 640, elapsed: 0.0008540153503417969
ell 639, elapsed: 0.0008349418640136719
ell 638, elapsed: 0.0008568763732910156
ell 632, elapsed: 0.0017058849334716797
ell 631, elapsed: 0.0007948875427246094
ell 630, elapsed: 0.0008552074432373047
ell 629, elapsed: 0.0008139610290527344
ell 628, elapsed: 0.000698089599609375
ell 622, elapsed: 0.001154184341430664
ell 621, elapsed: 0.0006451606750488281
ell 620, elapsed: 0.005608081817626953
ell 619, elapsed: 0.0008769035339355469
ell 618, elapsed: 0.0008471012115478516
ell 612, elapsed: 0.0029790401458740234
ell 611, elapsed: 0.0008141994476318359
ell 610, elapsed: 0.0008599758148193359
ell 609, elapsed: 0.0008490085601806641
ell 608, elapsed: 0.0008411407470703125
ell 602, elapsed: 0.0017538070678710938
ell 601, elapsed: 0.0022699832916259766
ell 600, elapsed: 0.0008549690246582031
ell 599, elapsed: 0.0008540153503417969
ell 598, elapsed: 0.0008909702301025391
ell 592, elapsed: 0.001728057861328125
ell 591, elapsed: 0.0007951259613037109
ell 590, elapsed: 0.0012018680572509766
ell 589, elapsed: 0.0008299350738525391
ell 588, elapsed: 0.0008339881896972656
ell 582, elapsed: 0.0020291805267333984
ell 581, elapsed: 0.0007779598236083984
ell 580, elapsed: 0.0008289813995361328
ell 579, elapsed: 0.000823974609375
ell 578, elapsed: 0.0008358955383300781
ell 572, elapsed: 0.0020949840545654297
ell 571, elapsed: 0.0008420944213867188
ell 570, elapsed: 0.0008418560028076172
ell 569, elapsed: 0.002276182174682617
ell 568, elapsed: 0.0008349418640136719
ell 562, elapsed: 0.0016849040985107422
ell 561, elapsed: 0.0007948875427246094
ell 560, elapsed: 0.0008361339569091797
ell 559, elapsed: 0.0008108615875244141
ell 558, elapsed: 0.009379863739013672
ell 552, elapsed: 0.0017621517181396484
ell 551, elapsed: 0.0007870197296142578
ell 550, elapsed: 0.0009310245513916016
ell 549, elapsed: 0.000843048095703125
ell 548, elapsed: 0.0008339881896972656
ell 542, elapsed: 0.0017120838165283203
ell 541, elapsed: 0.0007979869842529297
ell 540, elapsed: 0.0008540153503417969
ell 539, elapsed: 0.0008409023284912109
ell 538, elapsed: 0.0008449554443359375
ell 532, elapsed: 0.0018448829650878906
ell 531, elapsed: 0.0008301734924316406
ell 530, elapsed: 0.0008268356323242188
ell 529, elapsed: 0.0009260177612304688
ell 528, elapsed: 0.0008358955383300781
ell 522, elapsed: 0.001486063003540039
ell 521, elapsed: 0.0008330345153808594
ell 520, elapsed: 0.0009298324584960938
ell 519, elapsed: 0.0008330345153808594
ell 518, elapsed: 0.0009400844573974609
ell 512, elapsed: 0.0011551380157470703
ell 511, elapsed: 0.0006639957427978516
ell 510, elapsed: 0.0006480216979980469
ell 509, elapsed: 0.0006470680236816406
ell 508, elapsed: 0.0006439685821533203
ell 502, elapsed: 0.0011348724365234375
ell 501, elapsed: 0.0006539821624755859
ell 500, elapsed: 0.0006389617919921875
ell 499, elapsed: 0.0006389617919921875
ell 498, elapsed: 0.0006349086761474609
ell 492, elapsed: 0.001157999038696289
ell 491, elapsed: 0.0007648468017578125
ell 490, elapsed: 0.0006558895111083984
ell 489, elapsed: 0.0006458759307861328
ell 488, elapsed: 0.0006468296051025391
ell 482, elapsed: 0.0011420249938964844
ell 481, elapsed: 0.0009989738464355469
ell 480, elapsed: 0.0006418228149414062
ell 479, elapsed: 0.0006251335144042969
ell 478, elapsed: 0.0006330013275146484
ell 472, elapsed: 0.0011539459228515625
ell 471, elapsed: 0.0006461143493652344
ell 470, elapsed: 0.0006589889526367188
ell 469, elapsed: 0.0006470680236816406
ell 468, elapsed: 0.0006420612335205078
ell 462, elapsed: 0.0011398792266845703
ell 461, elapsed: 0.0006449222564697266
ell 460, elapsed: 0.0006589889526367188
ell 459, elapsed: 0.0006167888641357422
ell 458, elapsed: 0.0006170272827148438
ell 452, elapsed: 0.0011019706726074219
ell 451, elapsed: 0.0010120868682861328
ell 450, elapsed: 0.0009717941284179688
ell 449, elapsed: 0.0009698867797851562
ell 448, elapsed: 0.0010380744934082031
ell 442, elapsed: 0.0018150806427001953
ell 441, elapsed: 0.0007979869842529297
ell 440, elapsed: 0.0009250640869140625
ell 439, elapsed: 0.0009260177612304688
ell 438, elapsed: 0.0009589195251464844
ell 432, elapsed: 0.001767873764038086
ell 431, elapsed: 0.0009500980377197266
ell 430, elapsed: 0.0009648799896240234
ell 429, elapsed: 0.0009629726409912109
ell 428, elapsed: 0.0008499622344970703
ell 422, elapsed: 0.0017611980438232422
ell 421, elapsed: 0.0007951259613037109
ell 420, elapsed: 0.0008580684661865234
ell 419, elapsed: 0.0009098052978515625
ell 418, elapsed: 0.000965118408203125
ell 412, elapsed: 0.00177001953125
ell 411, elapsed: 0.0010690689086914062
ell 410, elapsed: 0.000820159912109375
ell 409, elapsed: 0.0008089542388916016
ell 408, elapsed: 0.0008141994476318359
ell 402, elapsed: 0.002168893814086914
ell 401, elapsed: 0.0009119510650634766
ell 400, elapsed: 0.0008459091186523438
ell 399, elapsed: 0.004930019378662109
ell 398, elapsed: 0.0008571147918701172
ell 392, elapsed: 0.0017919540405273438
ell 391, elapsed: 0.0013577938079833984
ell 390, elapsed: 0.0009770393371582031
ell 389, elapsed: 0.0009539127349853516
ell 388, elapsed: 0.0009679794311523438
ell 382, elapsed: 0.002254009246826172
ell 381, elapsed: 0.0009548664093017578
ell 380, elapsed: 0.0014688968658447266
ell 379, elapsed: 0.0008690357208251953
ell 378, elapsed: 0.0008440017700195312
ell 372, elapsed: 0.0022208690643310547
ell 371, elapsed: 0.0009109973907470703
ell 370, elapsed: 0.0009620189666748047
ell 369, elapsed: 0.0009620189666748047
ell 368, elapsed: 0.0014500617980957031
ell 362, elapsed: 0.0017719268798828125
ell 361, elapsed: 0.0013680458068847656
ell 360, elapsed: 0.0008480548858642578
ell 359, elapsed: 0.0008399486541748047
ell 358, elapsed: 0.000843048095703125
ell 352, elapsed: 0.002171039581298828
ell 351, elapsed: 0.0009598731994628906
ell 350, elapsed: 0.0009551048278808594
ell 349, elapsed: 0.0013968944549560547
ell 348, elapsed: 0.0009860992431640625
ell 342, elapsed: 0.0016551017761230469
ell 341, elapsed: 0.001500844955444336
ell 340, elapsed: 0.0009801387786865234
ell 339, elapsed: 0.0009710788726806641
ell 338, elapsed: 0.0014100074768066406
ell 332, elapsed: 0.0017540454864501953
ell 331, elapsed: 0.0008170604705810547
ell 330, elapsed: 0.001344919204711914
ell 329, elapsed: 0.0008180141448974609
ell 328, elapsed: 0.0008151531219482422
ell 322, elapsed: 0.002184152603149414
ell 321, elapsed: 0.000982046127319336
ell 320, elapsed: 0.0009679794311523438
ell 319, elapsed: 0.0014700889587402344
ell 318, elapsed: 0.0009601116180419922
ell 312, elapsed: 0.0015411376953125
ell 311, elapsed: 0.0013079643249511719
ell 310, elapsed: 0.0008177757263183594
ell 309, elapsed: 0.0008180141448974609
ell 308, elapsed: 0.0008571147918701172
ell 302, elapsed: 0.0020759105682373047
ell 301, elapsed: 0.0008230209350585938
ell 300, elapsed: 0.0008530616760253906
ell 299, elapsed: 0.0013871192932128906
ell 298, elapsed: 0.0009710788726806641
ell 292, elapsed: 0.0016829967498779297
ell 291, elapsed: 0.0014111995697021484
ell 290, elapsed: 0.0009610652923583984
ell 289, elapsed: 0.0008609294891357422
ell 288, elapsed: 0.0008459091186523438
ell 282, elapsed: 0.0018410682678222656
ell 281, elapsed: 0.0007560253143310547
ell 280, elapsed: 0.0013120174407958984
ell 279, elapsed: 0.0009760856628417969
ell 278, elapsed: 0.0009150505065917969
ell 272, elapsed: 0.0023131370544433594
ell 271, elapsed: 0.0009050369262695312
ell 270, elapsed: 0.0008070468902587891
ell 269, elapsed: 0.0007998943328857422
ell 268, elapsed: 0.0008559226989746094
ell 262, elapsed: 0.0016150474548339844
ell 261, elapsed: 0.0008969306945800781
ell 260, elapsed: 0.000982046127319336
ell 259, elapsed: 0.0008981227874755859
ell 258, elapsed: 0.0008990764617919922
ell 252, elapsed: 0.0016329288482666016
ell 251, elapsed: 0.0009489059448242188
ell 250, elapsed: 0.000823974609375
ell 249, elapsed: 0.0008168220520019531
ell 248, elapsed: 0.0008168220520019531
ell 242, elapsed: 0.0017170906066894531
ell 241, elapsed: 0.0008969306945800781
ell 240, elapsed: 0.0009000301361083984
ell 239, elapsed: 0.0009779930114746094
ell 238, elapsed: 0.0008831024169921875
ell 232, elapsed: 0.0017528533935546875
ell 231, elapsed: 0.0007760524749755859
ell 230, elapsed: 0.0010099411010742188
ell 229, elapsed: 0.0008940696716308594
ell 228, elapsed: 0.0008969306945800781
ell 222, elapsed: 0.001703023910522461
ell 221, elapsed: 0.0008051395416259766
ell 220, elapsed: 0.0007979869842529297
ell 219, elapsed: 0.0007951259613037109
ell 218, elapsed: 0.0008080005645751953
ell 212, elapsed: 0.0016219615936279297
ell 211, elapsed: 0.0008931159973144531
ell 210, elapsed: 0.0008978843688964844
ell 209, elapsed: 0.0009770393371582031
ell 208, elapsed: 0.0008780956268310547
ell 202, elapsed: 0.0018110275268554688
ell 201, elapsed: 0.0008420944213867188
ell 200, elapsed: 0.0009200572967529297
ell 199, elapsed: 0.0008981227874755859
ell 198, elapsed: 0.0008978843688964844
ell 192, elapsed: 0.001672983169555664
ell 191, elapsed: 0.0008020401000976562
ell 190, elapsed: 0.0008180141448974609
ell 189, elapsed: 0.0008068084716796875
ell 188, elapsed: 0.0010199546813964844
ell 182, elapsed: 0.0017039775848388672
ell 181, elapsed: 0.0008029937744140625
ell 180, elapsed: 0.0009119510650634766
ell 179, elapsed: 0.0008111000061035156
ell 178, elapsed: 0.0008029937744140625
ell 172, elapsed: 0.001438140869140625
ell 171, elapsed: 0.0008580684661865234
ell 170, elapsed: 0.000823974609375
ell 169, elapsed: 0.0008699893951416016
ell 168, elapsed: 0.0008211135864257812
ell 162, elapsed: 0.0017960071563720703
ell 161, elapsed: 0.0007581710815429688
ell 160, elapsed: 0.0008089542388916016
ell 159, elapsed: 0.0008089542388916016
ell 158, elapsed: 0.0009610652923583984
ell 152, elapsed: 0.001703023910522461
ell 151, elapsed: 0.000762939453125
ell 150, elapsed: 0.0008928775787353516
ell 149, elapsed: 0.0009229183197021484
ell 148, elapsed: 0.0009109973907470703
ell 142, elapsed: 0.0015418529510498047
ell 141, elapsed: 0.0009989738464355469
ell 140, elapsed: 0.0009071826934814453
ell 139, elapsed: 0.0008790493011474609
ell 138, elapsed: 0.0008459091186523438
ell 132, elapsed: 0.0018968582153320312
ell 131, elapsed: 0.0008070468902587891
ell 130, elapsed: 0.0008730888366699219
ell 129, elapsed: 0.0009191036224365234
ell 128, elapsed: 0.0009179115295410156
ell 122, elapsed: 0.001661062240600586
ell 121, elapsed: 0.0010061264038085938
ell 120, elapsed: 0.0009009838104248047
ell 119, elapsed: 0.0009009838104248047
ell 118, elapsed: 0.0009050369262695312
ell 112, elapsed: 0.0016829967498779297
ell 111, elapsed: 0.0008189678192138672
ell 110, elapsed: 0.0008180141448974609
ell 109, elapsed: 0.0008130073547363281
ell 108, elapsed: 0.0009109973907470703
ell 102, elapsed: 0.0014998912811279297
ell 101, elapsed: 0.003799915313720703
ell 100, elapsed: 0.0038611888885498047
ell 99, elapsed: 0.004456996917724609
ell 98, elapsed: 0.0038099288940429688
ell 92, elapsed: 0.007016181945800781
ell 91, elapsed: 0.0033559799194335938
ell 90, elapsed: 0.004449129104614258
ell 89, elapsed: 0.004094839096069336
ell 88, elapsed: 0.004333972930908203
ell 82, elapsed: 0.0076639652252197266
ell 81, elapsed: 0.0038328170776367188
ell 80, elapsed: 0.0038449764251708984
ell 79, elapsed: 0.004054069519042969
ell 78, elapsed: 0.0038080215454101562
ell 72, elapsed: 0.00704503059387207
ell 71, elapsed: 0.0038568973541259766
ell 70, elapsed: 0.0036919116973876953
ell 69, elapsed: 0.0036630630493164062
ell 68, elapsed: 0.003906965255737305
ell 62, elapsed: 0.006941080093383789
ell 61, elapsed: 0.0039958953857421875
ell 60, elapsed: 0.0037279129028320312
ell 59, elapsed: 0.0037419795989990234
ell 58, elapsed: 0.003741025924682617
ell 52, elapsed: 0.007254123687744141
ell 51, elapsed: 0.0040090084075927734
ell 50, elapsed: 0.003751993179321289
ell 49, elapsed: 0.0037658214569091797
ell 48, elapsed: 0.0037648677825927734
ell 42, elapsed: 0.0070629119873046875
ell 41, elapsed: 0.003773212432861328
ell 40, elapsed: 0.0037441253662109375
ell 39, elapsed: 0.00374603271484375
ell 38, elapsed: 0.003751039505004883
ell 32, elapsed: 0.006499052047729492
ell 31, elapsed: 0.0034401416778564453
ell 30, elapsed: 0.0037081241607666016
ell 29, elapsed: 0.003520965576171875
ell 28, elapsed: 0.0035338401794433594
ell 22, elapsed: 0.00629115104675293
ell 21, elapsed: 0.004500865936279297
ell 20, elapsed: 0.006203889846801758
ell 19, elapsed: 0.0033888816833496094
ell 18, elapsed: 0.0037391185760498047
ell 12, elapsed: 0.006350994110107422
ell 11, elapsed: 0.003409862518310547
ell 10, elapsed: 0.0035429000854492188
ell 9, elapsed: 0.0035071372985839844
ell 8, elapsed: 0.003592967987060547
  0.886052 seconds (97.45 k allocations: 12.617 MiB)
elapsed: 0.0047168731689453125
step:          0.07138 sec (0 allocations: 0 byte, 0.0% gc time)
swapping:      0.000737 sec (0 allocations: 0 byte, 0.0% gc time)
calc_Mellell!: 0.039857 sec (0 allocations: 0 byte, 0.0% gc time)
  t0 :  0.026479 sec (0 allocations: 0 byte, 0.0% gc time)
  tm2 : 0.089438 sec (0 allocations: 0 byte, 0.0% gc time)
  tm2s: 0.008372 sec (0 allocations: 0 byte, 0.0% gc time)
  tm4 : 0.195741 sec (0 allocations: 0 byte, 0.0% gc time)
  tp2 : 0.0 sec (0 allocations: 0 byte, 0.0% gc time)
  tp2s: 0.0 sec (0 allocations: 0 byte, 0.0% gc time)
  tp4 : 0.0 sec (0 allocations: 0 byte, 0.0% gc time)
calc_wtdll!:   0.614083 sec (48.6 k allocations: 11.096 MB, 0.0% gc time)
calc_wljj!:    0.04149 sec (69 allocations: 1.078 KB, 0.0% gc time)
mult_prefac!:  0.0 sec (0 allocations: 0 byte, 0.0% gc time)
convert:       0.0 sec (0 allocations: 0 byte, 0.0% gc time)
write:         0.040306 sec (0 allocations: 0 byte, 0.0% gc time)
test_rand_2f1: 0.0 sec (0 allocations: 0 byte, 0.0% gc time)
Closing outfile out/MlCache/MlCache.bin...   0.000007 seconds
xi, l=0, nu=0:   0.424545 seconds (602.85 k allocations: 32.933 MiB)
xi, l=0, nu=-2:  0.003315 seconds (114 allocations: 148.969 KiB)
Created 'out/xi.tsv'.
  q=1.1, R=0.6:	  0.855692 seconds (264.52 k allocations: 38.099 MiB)
  q=1.1, R=0.7:	  0.956502 seconds (276.46 k allocations: 40.114 MiB, 1.36% gc time)
  q=1.1, R=0.8:	  1.069745 seconds (271.68 k allocations: 39.302 MiB, 0.98% gc time)
  q=1.1, R=0.9:	  1.162743 seconds (266.62 k allocations: 38.459 MiB, 0.66% gc time)
  q=1.1, R=0.998:	 21.826499 seconds (114.96 k allocations: 7.588 MiB)
  q=1.1, R=1.0:	  0.004045 seconds (8.20 k allocations: 704.344 KiB)

ℓ = 1000
Δℓ = 4
ΔℓRg1 = -4
N = 4096
q = 1.1
kmin = 1.0e-5
kmax = 1000.0
χ0 = 0.001
RR = RR.tsv
ℓmax = ℓmax.bin
f21 = f21.bin
kmin = 1.0e-5
kmax = 1000.0
dlrec    = 4
dlrecRg1 = -4
Output size: 1573632 bytes = 0.0014655590057373047 GiB
Output size: 786816 bytes = 0.0007327795028686523 GiB
Reading 'out/F21EllCache'...   0.001673 seconds (198 allocations: 533.078 KiB)
ellmax: 1002
lmaxcache: 1000
fell[:,1,1] = ComplexF64[1.7262928128202118e-224 - 4.2281979352226944e-240im, 1.7282693092099662e-224 - 4.233038955177176e-240im]
ell 1002, elapsed: 4.291534423828125e-5
ell 1001, elapsed: 0.0007679462432861328
ell 1000, elapsed: 0.0012249946594238281
ell 999, elapsed: 0.007361173629760742
ell 998, elapsed: 0.00790095329284668
ell 44, elapsed: 0.7869219779968262
ell 43, elapsed: 0.006468057632446289
ell 42, elapsed: 0.005953073501586914
ell 41, elapsed: 0.006342172622680664
ell 40, elapsed: 0.0064280033111572266
  0.838215 seconds (15.87 k allocations: 1019.580 KiB, 2.53% gc time)
elapsed: 0.008095026016235352
step:          0.720036 sec (0 allocations: 0 byte, 0.0% gc time)
swapping:      0.000567 sec (0 allocations: 0 byte, 0.0% gc time)
calc_Mellell!: 0.001318 sec (0 allocations: 0 byte, 0.0% gc time)
  t0 :  0.000566 sec (0 allocations: 0 byte, 0.0% gc time)
  tm2 : 0.012295 sec (0 allocations: 0 byte, 0.0% gc time)
  tm2s: 0.00039 sec (0 allocations: 0 byte, 0.0% gc time)
  tm4 : 0.03451 sec (0 allocations: 0 byte, 0.0% gc time)
  tp2 : 0.0 sec (0 allocations: 0 byte, 0.0% gc time)
  tp2s: 0.0 sec (0 allocations: 0 byte, 0.0% gc time)
  tp4 : 0.0 sec (0 allocations: 0 byte, 0.0% gc time)
calc_wtdll!:   0.047984 sec (480 allocations: 52.5 KB, 0.0% gc time)
calc_wljj!:    0.002087 sec (1 allocations: 16 byte, 0.0% gc time)
mult_prefac!:  0.0 sec (0 allocations: 0 byte, 0.0% gc time)
convert:       0.0 sec (0 allocations: 0 byte, 0.0% gc time)
write:         0.001143 sec (0 allocations: 0 byte, 0.0% gc time)
test_rand_2f1: 0.0 sec (0 allocations: 0 byte, 0.0% gc time)
Closing outfile out/MlCache/MlCache.bin...   0.000009 seconds
  0.559887 seconds (38 allocations: 66.859 KiB)
make_phi():   0.010559 seconds (65 allocations: 275.984 KiB)
  0.044730 seconds (11.42 k allocations: 711.851 KiB)
tskip:       1.0e-6 sec (0 allocations: 0 byte, 0.0% gc time)
tread:       0.000965 sec (17 allocations: 1.266 KB, 0.0% gc time)
tmultphi:    0.000346 sec (0 allocations: 0 byte, 0.0% gc time)
tbrfft:      0.001364 sec (0 allocations: 0 byte, 0.0% gc time)
tmultprefac: 0.001468 sec (0 allocations: 0 byte, 0.0% gc time)
toutfunc:    0.000116 sec (0 allocations: 0 byte, 0.0% gc time)
Created 'out/wl42_jj00.tsv'.
Created 'out/wl42_jj02.tsv'.
    Testing TwoFAST tests passed 
