Julia Version 1.6.0-DEV.1076
Commit da1d8373cd (2020-09-29 17:47 UTC)
Platform Info:
  OS: Linux (x86_64-linux-gnu)
  CPU: Intel(R) Xeon(R) Silver 4114 CPU @ 2.20GHz
  WORD_SIZE: 64
  LIBM: libopenlibm
  LLVM: libLLVM-10.0.1 (ORCJIT, skylake-avx512)
Environment:
  JULIA_DEPOT_PATH = ::/usr/local/share/julia
  JULIA_NUM_THREADS = 2

  Resolving package versions...
  Installed Readables ──────────────────── v0.3.3
  Installed MKL_jll ────────────────────── v2020.2.254+0
  Installed CompilerSupportLibraries_jll ─ v0.3.3+0
  Installed AbstractFFTs ───────────────── v0.5.0
  Installed FFTW ───────────────────────── v1.2.4
  Installed GenericSchur ───────────────── v0.4.0
  Installed ArbNumerics ────────────────── v1.2.1
  Installed OpenSpecFun_jll ────────────── v0.5.3+3
  Installed Reexport ───────────────────── v0.2.0
  Installed GenericSVD ─────────────────── v0.3.0
  Installed IntelOpenMP_jll ────────────── v2018.0.3+0
  Installed SpecialFunctions ───────────── v0.10.3
  Installed FFTW_jll ───────────────────── v3.3.9+5
  Installed BinaryProvider ─────────────── v0.5.10
  Installed TwoFAST ────────────────────── v0.1.3
Updating `~/.julia/environments/v1.6/Project.toml`
  [0dd23c3e] + TwoFAST v0.1.3
Updating `~/.julia/environments/v1.6/Manifest.toml`
  [621f4979] + AbstractFFTs v0.5.0
  [7e558dbc] + ArbNumerics v1.2.1
  [b99e7846] + BinaryProvider v0.5.10
  [e66e0078] + CompilerSupportLibraries_jll v0.3.3+0
  [7a1cc6ca] + FFTW v1.2.4
  [f5851436] + FFTW_jll v3.3.9+5
  [01680d73] + GenericSVD v0.3.0
  [c145ed77] + GenericSchur v0.4.0
  [1d5cc7b8] + IntelOpenMP_jll v2018.0.3+0
  [856f044c] + MKL_jll v2020.2.254+0
  [efe28fd5] + OpenSpecFun_jll v0.5.3+3
  [0d4725de] + Readables v0.3.3
  [189a3867] + Reexport v0.2.0
  [276daf66] + SpecialFunctions v0.10.3
  [0dd23c3e] + TwoFAST v0.1.3
  [56f22d72] + Artifacts
  [2a0f44e3] + Base64
  [ade2ca70] + Dates
  [8bb1440f] + DelimitedFiles
  [8ba89e20] + Distributed
  [b77e0a4c] + InteractiveUtils
  [76f85450] + LibGit2
  [8f399da3] + Libdl
  [37e2e46d] + LinearAlgebra
  [56ddb016] + Logging
  [d6f4376e] + Markdown
  [a63ad114] + Mmap
  [44cfe95a] + Pkg
  [de0858da] + Printf
  [3fa0cd96] + REPL
  [9a3f8284] + Random
  [ea8e919c] + SHA
  [9e88b42a] + Serialization
  [6462fe0b] + Sockets
  [fa267f1f] + TOML
  [8dfed614] + Test
  [cf7118a7] + UUIDs
  [4ec0a83e] + Unicode
   Building FFTW ───────→ `~/.julia/scratchspaces/44cfe95a-1eb2-52ea-b672-e2afdf69b78f/8b7c16b56936047ca41bf25effa137ae0b381ae8/build.log`
   Building ArbNumerics → `~/.julia/scratchspaces/44cfe95a-1eb2-52ea-b672-e2afdf69b78f/329a81d67c64e3a51c176a243b6424fbe39213d0/build.log`
    Testing TwoFAST
Status `/tmp/jl_m6gCvQ/Project.toml`
  [7e558dbc] ArbNumerics v1.2.1
  [39dd38d3] Dierckx v0.5.0
  [7a1cc6ca] FFTW v1.2.4
  [276daf66] SpecialFunctions v0.10.3
  [0dd23c3e] TwoFAST v0.1.3
  [8bb1440f] DelimitedFiles
  [37e2e46d] LinearAlgebra
  [56ddb016] Logging
  [8dfed614] Test
Status `/tmp/jl_m6gCvQ/Manifest.toml`
  [621f4979] AbstractFFTs v0.5.0
  [7e558dbc] ArbNumerics v1.2.1
  [b99e7846] BinaryProvider v0.5.10
  [e66e0078] CompilerSupportLibraries_jll v0.3.3+0
  [39dd38d3] Dierckx v0.5.0
  [cd4c43a9] Dierckx_jll v0.0.1+0
  [7a1cc6ca] FFTW v1.2.4
  [f5851436] FFTW_jll v3.3.9+5
  [01680d73] GenericSVD v0.3.0
  [c145ed77] GenericSchur v0.4.0
  [1d5cc7b8] IntelOpenMP_jll v2018.0.3+0
  [856f044c] MKL_jll v2020.2.254+0
  [efe28fd5] OpenSpecFun_jll v0.5.3+3
  [0d4725de] Readables v0.3.3
  [189a3867] Reexport v0.2.0
  [276daf66] SpecialFunctions v0.10.3
  [0dd23c3e] TwoFAST v0.1.3
  [56f22d72] Artifacts
  [2a0f44e3] Base64
  [ade2ca70] Dates
  [8bb1440f] DelimitedFiles
  [8ba89e20] Distributed
  [b77e0a4c] InteractiveUtils
  [76f85450] LibGit2
  [8f399da3] Libdl
  [37e2e46d] LinearAlgebra
  [56ddb016] Logging
  [d6f4376e] Markdown
  [a63ad114] Mmap
  [44cfe95a] Pkg
  [de0858da] Printf
  [3fa0cd96] REPL
  [9a3f8284] Random
  [ea8e919c] SHA
  [9e88b42a] Serialization
  [6462fe0b] Sockets
  [fa267f1f] TOML
  [8dfed614] Test
  [cf7118a7] UUIDs
  [4ec0a83e] Unicode
    Testing Running tests...
WARNING: could not import Printf.ini_hex into ArbNumerics
WARNING: could not import Printf.ini_HEX into ArbNumerics
t = 0.0 sec (0 allocations: 0 byte, 0.0% gc time)
typeof(t) = NamedTuple{(:value, :time, :bytes, :gctime, :gcstats), Tuple{DataType, Float64, Int64, Float64, Base.GC_Diff}}
TwoFAST.PerformanceStats.TimedType = Union{NamedTuple{(:value, :time, :bytes, :gctime, :gcstats), Tuple{T, Float64, Int64, Float64, Base.GC_Diff}}, Tuple{Any, Float64, Int64, Float64, Base.GC_Diff}} where T
t = 0.0 sec (0 allocations: 0 byte, 0.0% gc time)
t: 0.0 sec (0 allocations: 0 byte, 0.0% gc time)
Testing ξ(r), ℓ=0, ν=-1 ... passed
Testing ξ(r), ℓ=0, ν=0 ... passed
Testing ξ(r), ℓ=0, ν=1 ... passed
Testing ξ(r), ℓ=0, ν=2 ... passed
Testing ξ(r), ℓ=0, ν=3 ... passed
Testing ξ(r), ℓ=1, ν=0 ... passed
Testing ξ(r), ℓ=1, ν=1 ... passed
Testing ξ(r), ℓ=1, ν=2 ... passed
Testing ξ(r), ℓ=1, ν=3 ... passed
Testing ξ(r), ℓ=2, ν=-1 ... passed
Testing ξ(r), ℓ=2, ν=0 ... passed
Testing ξ(r), ℓ=2, ν=1 ... passed
Testing ξ(r), ℓ=2, ν=2 ... passed
Testing ξ(r), ℓ=2, ν=3 ... passed
Testing ξ(r), ℓ=3, ν=-1 ... passed
Testing ξ(r), ℓ=3, ν=0 ... passed
Testing ξ(r), ℓ=3, ν=1 ... passed
Testing ξ(r), ℓ=3, ν=2 ... passed
Testing ξ(r), ℓ=3, ν=3 ... passed
Testing ξ(r), ℓ=4, ν=-1 ... passed
Testing ξ(r), ℓ=4, ν=0 ... passed
Testing ξ(r), ℓ=4, ν=1 ... passed
Testing ξ(r), ℓ=4, ν=2 ... passed
Testing ξ(r), ℓ=4, ν=3 ... passed
Testing ξ(r) ... passed
Testing ξ′(r) ... passed
Testing ξ″(r) ... passed
Calculating fmax: 
  dlrec    = 4
  dlrecRg1 = -4
  q=1.1, R=1.1:	  4.193497 seconds (844.46 k allocations: 53.981 MiB)

  4.211945 seconds (856.94 k allocations: 54.768 MiB)
ℓ = 1202
Δℓ = 4
ΔℓRg1 = -4
N = 1600
q = 1.1
kmin = 1.0e-5
kmax = 100000.00000000004
χ0 = 0.023029999999999995
RR = RR.tsv
ℓmax = ℓmax.bin
f21 = f21.bin
kmin = 1.0e-5
kmax = 100000.0
dlrec    = 4
dlrecRg1 = -4
Output size: 5741568 bytes = 0.005347251892089844 GiB
Output size: 51264 bytes = 4.774332046508789e-5 GiB
Reading 'out/F21EllCache'...   0.722008 seconds (395.09 k allocations: 23.196 MiB, 2.97% gc time)
ellmax: 1202
lmaxcache: 1202
fell[:,1,1] = ComplexF64[3.9583795592771634e-52 - 9.695233714158177e-68im, 3.990121772925759e-52 - 9.772979714843386e-68im]
ell 1202, elapsed: 4.291534423828125e-5
ell 1201, elapsed: 1.4292099475860596
ell 1200, elapsed: 0.0004799365997314453
ell 1199, elapsed: 0.00045108795166015625
ell 1198, elapsed: 0.00044989585876464844
ell 1002, elapsed: 0.009366035461425781
ell 1001, elapsed: 0.00045609474182128906
ell 1000, elapsed: 0.0005087852478027344
ell 999, elapsed: 0.0005009174346923828
ell 998, elapsed: 0.00044083595275878906
ell 902, elapsed: 0.004976034164428711
ell 901, elapsed: 0.0005249977111816406
ell 900, elapsed: 0.0005738735198974609
ell 899, elapsed: 0.0006000995635986328
ell 898, elapsed: 0.0006010532379150391
ell 802, elapsed: 0.006754875183105469
ell 801, elapsed: 0.0005970001220703125
ell 800, elapsed: 0.0005819797515869141
ell 799, elapsed: 0.0006060600280761719
ell 798, elapsed: 0.0006129741668701172
ell 702, elapsed: 0.0064198970794677734
ell 701, elapsed: 0.0005919933319091797
ell 700, elapsed: 0.0006079673767089844
ell 699, elapsed: 0.0005841255187988281
ell 698, elapsed: 0.000576019287109375
ell 602, elapsed: 0.006000041961669922
ell 601, elapsed: 0.0007250308990478516
ell 600, elapsed: 0.0005729198455810547
ell 599, elapsed: 0.0006589889526367188
ell 598, elapsed: 0.0008130073547363281
ell 502, elapsed: 0.007153034210205078
ell 501, elapsed: 0.0009758472442626953
ell 500, elapsed: 0.0008862018585205078
ell 499, elapsed: 0.0008509159088134766
ell 498, elapsed: 0.0005979537963867188
ell 402, elapsed: 0.008664846420288086
ell 401, elapsed: 0.0007581710815429688
ell 400, elapsed: 0.0008950233459472656
ell 399, elapsed: 0.0006940364837646484
ell 398, elapsed: 0.0005438327789306641
ell 302, elapsed: 0.00617218017578125
ell 301, elapsed: 0.000698089599609375
ell 300, elapsed: 0.0006721019744873047
ell 299, elapsed: 0.0006730556488037109
ell 298, elapsed: 0.0005860328674316406
ell 202, elapsed: 0.0068018436431884766
ell 201, elapsed: 0.0005140304565429688
ell 200, elapsed: 0.0004999637603759766
ell 199, elapsed: 0.0005021095275878906
ell 198, elapsed: 0.0004999637603759766
ell 152, elapsed: 0.0029478073120117188
ell 151, elapsed: 0.0005071163177490234
ell 150, elapsed: 0.0004978179931640625
ell 149, elapsed: 0.0004980564117431641
ell 148, elapsed: 0.0005080699920654297
ell 127, elapsed: 0.0016129016876220703
ell 126, elapsed: 0.0004999637603759766
ell 125, elapsed: 0.0004968643188476562
ell 124, elapsed: 0.0004980564117431641
ell 123, elapsed: 0.0005128383636474609
ell 114, elapsed: 0.0009930133819580078
ell 113, elapsed: 0.0004999637603759766
ell 112, elapsed: 0.0004990100860595703
ell 111, elapsed: 0.0004961490631103516
ell 110, elapsed: 0.0004968643188476562
ell 102, elapsed: 0.0009369850158691406
ell 101, elapsed: 0.0004999637603759766
ell 100, elapsed: 0.0004999637603759766
ell 99, elapsed: 0.0004980564117431641
ell 98, elapsed: 0.0004990100860595703
ell 97, elapsed: 0.0005681514739990234
ell 96, elapsed: 0.00055694580078125
ell 95, elapsed: 0.0005710124969482422
ell 94, elapsed: 0.0005588531494140625
ell 93, elapsed: 0.0005609989166259766
ell 92, elapsed: 0.0005640983581542969
ell 91, elapsed: 0.0005550384521484375
ell 90, elapsed: 0.0005660057067871094
ell 89, elapsed: 0.0005629062652587891
ell 88, elapsed: 0.0005691051483154297
ell 87, elapsed: 0.0005638599395751953
ell 86, elapsed: 0.0005588531494140625
ell 85, elapsed: 0.0005578994750976562
ell 84, elapsed: 0.0005660057067871094
ell 83, elapsed: 0.0006082057952880859
ell 82, elapsed: 0.0006051063537597656
ell 81, elapsed: 0.0005698204040527344
ell 80, elapsed: 0.00055694580078125
ell 79, elapsed: 0.0005660057067871094
ell 78, elapsed: 0.0005619525909423828
ell 77, elapsed: 0.0005629062652587891
ell 76, elapsed: 0.0005600452423095703
ell 75, elapsed: 0.0005571842193603516
ell 74, elapsed: 0.0005960464477539062
ell 73, elapsed: 0.0005588531494140625
ell 72, elapsed: 0.0005738735198974609
ell 71, elapsed: 0.0005590915679931641
ell 70, elapsed: 0.0005650520324707031
ell 69, elapsed: 0.0005609989166259766
ell 68, elapsed: 0.0006499290466308594
ell 67, elapsed: 0.0005640983581542969
ell 66, elapsed: 0.0005578994750976562
ell 65, elapsed: 0.0005609989166259766
ell 64, elapsed: 0.0005629062652587891
ell 63, elapsed: 0.00055694580078125
ell 62, elapsed: 0.0005631446838378906
ell 61, elapsed: 0.0006351470947265625
ell 60, elapsed: 0.0005590915679931641
ell 59, elapsed: 0.0005629062652587891
ell 58, elapsed: 0.0005540847778320312
ell 57, elapsed: 0.0006229877471923828
ell 56, elapsed: 0.0006020069122314453
ell 55, elapsed: 0.0006489753723144531
ell 54, elapsed: 0.0005691051483154297
ell 53, elapsed: 0.0005600452423095703
ell 52, elapsed: 0.0005788803100585938
ell 51, elapsed: 0.0005598068237304688
ell 50, elapsed: 0.0005731582641601562
ell 49, elapsed: 0.0005660057067871094
ell 48, elapsed: 0.0006871223449707031
ell 47, elapsed: 0.0005621910095214844
ell 46, elapsed: 0.0005669593811035156
ell 45, elapsed: 0.0005590915679931641
ell 44, elapsed: 0.0005600452423095703
ell 43, elapsed: 0.0005688667297363281
ell 42, elapsed: 0.0005638599395751953
ell 41, elapsed: 0.000598907470703125
ell 40, elapsed: 0.0006399154663085938
ell 39, elapsed: 0.0005970001220703125
ell 38, elapsed: 0.00061798095703125
ell 37, elapsed: 0.0006628036499023438
ell 36, elapsed: 0.0006380081176757812
ell 35, elapsed: 0.0006830692291259766
ell 34, elapsed: 0.0006358623504638672
ell 33, elapsed: 0.0006320476531982422
ell 32, elapsed: 0.0006508827209472656
ell 31, elapsed: 0.0006439685821533203
ell 30, elapsed: 0.0006439685821533203
ell 29, elapsed: 0.0006780624389648438
ell 28, elapsed: 0.0006320476531982422
ell 27, elapsed: 0.0006430149078369141
ell 26, elapsed: 0.0006349086761474609
ell 25, elapsed: 0.0006358623504638672
ell 24, elapsed: 0.0006330013275146484
ell 23, elapsed: 0.0006320476531982422
ell 22, elapsed: 0.0006361007690429688
ell 21, elapsed: 0.0006310939788818359
ell 20, elapsed: 0.0006380081176757812
ell 19, elapsed: 0.0006339550018310547
ell 18, elapsed: 0.0008831024169921875
ell 17, elapsed: 0.0005669593811035156
ell 16, elapsed: 0.0005650520324707031
ell 15, elapsed: 0.0005609989166259766
ell 14, elapsed: 0.0005588531494140625
ell 13, elapsed: 0.0005679130554199219
ell 12, elapsed: 0.0005679130554199219
ell 11, elapsed: 0.0005810260772705078
ell 10, elapsed: 0.0005660057067871094
ell 9, elapsed: 0.0005698204040527344
ell 8, elapsed: 0.0005619525909423828
ell 7, elapsed: 0.0005650520324707031
ell 6, elapsed: 0.0005619525909423828
ell 5, elapsed: 0.0005650520324707031
ell 4, elapsed: 0.0005719661712646484
ell 3, elapsed: 0.0005631446838378906
ell 2, elapsed: 0.0005698204040527344
ell 1, elapsed: 0.0005600452423095703
ell 0, elapsed: 0.0005669593811035156
  2.045691 seconds (1.38 M allocations: 74.485 MiB, 1.83% gc time)
elapsed: 0.0006649494171142578
step:          0.365362 sec (311.142 k allocations: 16.962 MB, 5.6% gc time)
swapping:      0.000527 sec (0 allocations: 0 byte, 0.0% gc time)
calc_Mellell!: 0.12618 sec (135.742 k allocations: 7.433 MB, 0.0% gc time)
  t0 :  0.0 sec (0 allocations: 0 byte, 0.0% gc time)
  tm2 : 0.0 sec (0 allocations: 0 byte, 0.0% gc time)
  tm2s: 0.0 sec (0 allocations: 0 byte, 0.0% gc time)
  tm4 : 0.0 sec (0 allocations: 0 byte, 0.0% gc time)
  tp2 : 0.0 sec (0 allocations: 0 byte, 0.0% gc time)
  tp2s: 0.0 sec (0 allocations: 0 byte, 0.0% gc time)
  tp4 : 0.0 sec (0 allocations: 0 byte, 0.0% gc time)
calc_wtdll!:   1.083986 sec (509.615 k allocations: 28.195 MB, 0.0% gc time)
calc_wljj!:    0.003474 sec (6 allocations: 96 byte, 0.0% gc time)
mult_prefac!:  0.0 sec (0 allocations: 0 byte, 0.0% gc time)
convert:       0.0 sec (0 allocations: 0 byte, 0.0% gc time)
write:         0.003618 sec (0 allocations: 0 byte, 0.0% gc time)
test_rand_2f1: 0.0 sec (0 allocations: 0 byte, 0.0% gc time)
Closing outfile out/Ml21-cache.bin...   0.000007 seconds
  1.030413 seconds (246.50 k allocations: 14.232 MiB)
make_phi():   0.013714 seconds (8.18 k allocations: 237.844 KiB)
  0.260427 seconds (87.57 k allocations: 4.765 MiB)
tskip:       1.9e-5 sec (0 allocations: 0 byte, 0.0% gc time)
tread:       0.002498 sec (17 allocations: 2.125 KB, 0.0% gc time)
tmultphi:    0.049207 sec (21.425 k allocations: 1.287 MB, 0.0% gc time)
tbrfft:      0.00442 sec (0 allocations: 0 byte, 0.0% gc time)
tmultprefac: 0.004247 sec (0 allocations: 0 byte, 0.0% gc time)
toutfunc:    0.161075 sec (64.486 k allocations: 3.347 MB, 0.0% gc time)
Testing R=1.1 ... passed
Calculating fmax: 
  dlrec    = 4
  dlrecRg1 = -4
  q=1.1, R=1.0:	  0.001520 seconds (3.20 k allocations: 275.344 KiB)

  0.001690 seconds (3.25 k allocations: 310.312 KiB)
ℓ = 1202
Δℓ = 4
ΔℓRg1 = -4
N = 1600
q = 1.1
kmin = 1.0e-5
kmax = 100000.00000000004
χ0 = 0.023029999999999995
RR = RR.tsv
ℓmax = ℓmax.bin
f21 = f21.bin
kmin = 1.0e-5
kmax = 100000.0
dlrec    = 4
dlrecRg1 = -4
Output size: 61465536 bytes = 0.05724424123764038 GiB
Output size: 51264 bytes = 4.774332046508789e-5 GiB
Reading 'out/F21EllCache'...   0.001186 seconds (197 allocations: 84.203 KiB)
ellmax: 1202
lmaxcache: 1202
fell[:,1,1] = ComplexF64[809.6031528389767 - 1.9829558194077161e-13im, 0.0 + 0.0im]
ell 1202, elapsed: 3.504753112792969e-5
ell 1201, elapsed: 0.01110696792602539
ell 1200, elapsed: 0.010704994201660156
ell 1199, elapsed: 0.0002779960632324219
ell 1198, elapsed: 0.00026798248291015625
ell 1197, elapsed: 0.0003399848937988281
ell 1196, elapsed: 0.0003108978271484375
ell 1195, elapsed: 0.0003070831298828125
ell 1194, elapsed: 0.0003070831298828125
ell 1193, elapsed: 0.0003638267517089844
ell 1192, elapsed: 0.00031280517578125
ell 1191, elapsed: 0.000308990478515625
ell 1190, elapsed: 0.00030803680419921875
ell 1189, elapsed: 0.0003249645233154297
ell 1188, elapsed: 0.0003108978271484375
ell 1187, elapsed: 0.00032591819763183594
ell 1186, elapsed: 0.0003571510314941406
ell 1185, elapsed: 0.00031304359436035156
ell 1184, elapsed: 0.0003070831298828125
ell 1183, elapsed: 0.00030994415283203125
ell 1182, elapsed: 0.00030994415283203125
ell 1181, elapsed: 0.0003139972686767578
ell 1180, elapsed: 0.00030803680419921875
ell 1179, elapsed: 0.00031304359436035156
ell 1178, elapsed: 0.00031280517578125
ell 1177, elapsed: 0.00032711029052734375
ell 1176, elapsed: 0.00031304359436035156
ell 1175, elapsed: 0.000308990478515625
ell 1174, elapsed: 0.00030803680419921875
ell 1173, elapsed: 0.00030303001403808594
ell 1172, elapsed: 0.0003039836883544922
ell 1171, elapsed: 0.0003058910369873047
ell 1170, elapsed: 0.00030493736267089844
ell 1169, elapsed: 0.00031185150146484375
ell 1168, elapsed: 0.0003829002380371094
ell 1167, elapsed: 0.0003077983856201172
ell 1166, elapsed: 0.00032401084899902344
ell 1165, elapsed: 0.00030803680419921875
ell 1164, elapsed: 0.00031113624572753906
ell 1163, elapsed: 0.000308990478515625
ell 1162, elapsed: 0.0003077983856201172
ell 1161, elapsed: 0.0003170967102050781
ell 1160, elapsed: 0.00030803680419921875
ell 1159, elapsed: 0.0003120899200439453
ell 1158, elapsed: 0.00030803680419921875
ell 1157, elapsed: 0.000308990478515625
ell 1156, elapsed: 0.0003139972686767578
ell 1155, elapsed: 0.00031113624572753906
ell 1154, elapsed: 0.0003600120544433594
ell 1153, elapsed: 0.00044798851013183594
ell 1152, elapsed: 0.00049591064453125
ell 1151, elapsed: 0.0004839897155761719
ell 1150, elapsed: 0.00047397613525390625
ell 1149, elapsed: 0.0004718303680419922
ell 1148, elapsed: 0.000492095947265625
ell 1147, elapsed: 0.0004298686981201172
ell 1146, elapsed: 0.0004849433898925781
ell 1145, elapsed: 0.0004379749298095703
ell 1144, elapsed: 0.0004761219024658203
ell 1143, elapsed: 0.0004630088806152344
ell 1142, elapsed: 0.0005381107330322266
ell 1141, elapsed: 0.0004649162292480469
ell 1140, elapsed: 0.0005478858947753906
ell 1139, elapsed: 0.00043487548828125
ell 1138, elapsed: 0.0004909038543701172
ell 1137, elapsed: 0.00046515464782714844
ell 1136, elapsed: 0.0005400180816650391
ell 1135, elapsed: 0.0004429817199707031
ell 1134, elapsed: 0.0004780292510986328
ell 1133, elapsed: 0.00045609474182128906
ell 1132, elapsed: 0.0005490779876708984
ell 1131, elapsed: 0.00042700767517089844
ell 1130, elapsed: 0.0004508495330810547
ell 1129, elapsed: 0.0004699230194091797
ell 1128, elapsed: 0.0005369186401367188
ell 1127, elapsed: 0.00043702125549316406
ell 1126, elapsed: 0.0004761219024658203
ell 1125, elapsed: 0.00043392181396484375
ell 1124, elapsed: 0.0004851818084716797
ell 1123, elapsed: 0.00044608116149902344
ell 1122, elapsed: 0.0005571842193603516
ell 1121, elapsed: 0.0004329681396484375
ell 1120, elapsed: 0.0004680156707763672
ell 1119, elapsed: 0.00043511390686035156
ell 1118, elapsed: 0.00047588348388671875
ell 1117, elapsed: 0.0004360675811767578
ell 1116, elapsed: 0.0004799365997314453
ell 1115, elapsed: 0.00044608116149902344
ell 1114, elapsed: 0.0005588531494140625
ell 1113, elapsed: 0.00042891502380371094
ell 1112, elapsed: 0.0004990100860595703
ell 1111, elapsed: 0.0005018711090087891
ell 1110, elapsed: 0.0004718303680419922
ell 1109, elapsed: 0.00047588348388671875
ell 1108, elapsed: 0.0005338191986083984
ell 1107, elapsed: 0.00043892860412597656
ell 1106, elapsed: 0.00047588348388671875
ell 1105, elapsed: 0.0004379749298095703
ell 1104, elapsed: 0.0004680156707763672
ell 1103, elapsed: 0.00046706199645996094
ell 1102, elapsed: 0.0005409717559814453
ell 1101, elapsed: 0.0004749298095703125
ell 1100, elapsed: 0.00051116943359375
ell 1099, elapsed: 0.00048089027404785156
ell 1098, elapsed: 0.0004658699035644531
ell 1097, elapsed: 0.0005359649658203125
ell 1096, elapsed: 0.0004279613494873047
ell 1095, elapsed: 0.0004889965057373047
ell 1094, elapsed: 0.0004990100860595703
ell 1093, elapsed: 0.0004360675811767578
ell 1092, elapsed: 0.0005309581756591797
ell 1091, elapsed: 0.0004999637603759766
ell 1090, elapsed: 0.0004780292510986328
ell 1089, elapsed: 0.00043892860412597656
ell 1088, elapsed: 0.0004699230194091797
ell 1087, elapsed: 0.0004909038543701172
ell 1086, elapsed: 0.0004870891571044922
ell 1085, elapsed: 0.00048804283142089844
ell 1084, elapsed: 0.0004868507385253906
ell 1083, elapsed: 0.0004971027374267578
ell 1082, elapsed: 0.000492095947265625
ell 1081, elapsed: 0.0004830360412597656
ell 1080, elapsed: 0.0004909038543701172
ell 1079, elapsed: 0.0004830360412597656
ell 1078, elapsed: 0.0004868507385253906
ell 1077, elapsed: 0.0004870891571044922
ell 1076, elapsed: 0.0004870891571044922
ell 1075, elapsed: 0.0004909038543701172
ell 1074, elapsed: 0.00048804283142089844
ell 1073, elapsed: 0.0004830360412597656
ell 1072, elapsed: 0.0005490779876708984
ell 1071, elapsed: 0.0005428791046142578
ell 1070, elapsed: 0.0005550384521484375
ell 1069, elapsed: 0.0005469322204589844
ell 1068, elapsed: 0.0005619525909423828
ell 1067, elapsed: 0.0005519390106201172
ell 1066, elapsed: 0.0005490779876708984
ell 1065, elapsed: 0.0007598400115966797
ell 1064, elapsed: 0.0004930496215820312
ell 1063, elapsed: 0.00048422813415527344
ell 1062, elapsed: 0.0005009174346923828
ell 1061, elapsed: 0.0004818439483642578
ell 1060, elapsed: 0.0004889965057373047
ell 1059, elapsed: 0.0005218982696533203
ell 1058, elapsed: 0.0005249977111816406
ell 1057, elapsed: 0.0004889965057373047
ell 1056, elapsed: 0.0004911422729492188
ell 1055, elapsed: 0.0004928112030029297
ell 1054, elapsed: 0.0004940032958984375
ell 1053, elapsed: 0.00048613548278808594
ell 1052, elapsed: 0.0004870891571044922
ell 1051, elapsed: 0.0004928112030029297
ell 1050, elapsed: 0.0004889965057373047
ell 1049, elapsed: 0.00048804283142089844
ell 1048, elapsed: 0.0004870891571044922
ell 1047, elapsed: 0.0005049705505371094
ell 1046, elapsed: 0.0005011558532714844
ell 1045, elapsed: 0.0004909038543701172
ell 1044, elapsed: 0.0004858970642089844
ell 1043, elapsed: 0.00049591064453125
ell 1042, elapsed: 0.0004858970642089844
ell 1041, elapsed: 0.0004909038543701172
ell 1040, elapsed: 0.0004928112030029297
ell 1039, elapsed: 0.0005028247833251953
ell 1038, elapsed: 0.0004930496215820312
ell 1037, elapsed: 0.00049591064453125
ell 1036, elapsed: 0.00047516822814941406
ell 1035, elapsed: 0.0004730224609375
ell 1034, elapsed: 0.0005009174346923828
ell 1033, elapsed: 0.0005309581756591797
ell 1032, elapsed: 0.00047516822814941406
ell 1031, elapsed: 0.0005061626434326172
ell 1030, elapsed: 0.00047898292541503906
ell 1029, elapsed: 0.00047707557678222656
ell 1028, elapsed: 0.0003399848937988281
ell 1027, elapsed: 0.0003209114074707031
ell 1026, elapsed: 0.0003178119659423828
ell 1025, elapsed: 0.0003249645233154297
ell 1024, elapsed: 0.00031304359436035156
ell 1023, elapsed: 0.00032711029052734375
ell 1022, elapsed: 0.00037407875061035156
ell 1021, elapsed: 0.00037288665771484375
ell 1020, elapsed: 0.0003609657287597656
ell 1019, elapsed: 0.00036597251892089844
ell 1018, elapsed: 0.00037407875061035156
ell 1017, elapsed: 0.00036406517028808594
ell 1016, elapsed: 0.00036597251892089844
ell 1015, elapsed: 0.00037479400634765625
ell 1014, elapsed: 0.0003719329833984375
ell 1013, elapsed: 0.0003769397735595703
ell 1012, elapsed: 0.00034999847412109375
ell 1011, elapsed: 0.00034117698669433594
ell 1010, elapsed: 0.0004749298095703125
ell 1009, elapsed: 0.0004820823669433594
ell 1008, elapsed: 0.0004878044128417969
ell 1007, elapsed: 0.0004889965057373047
ell 1006, elapsed: 0.0004899501800537109
ell 1005, elapsed: 0.0004899501800537109
ell 1004, elapsed: 0.0004899501800537109
ell 1003, elapsed: 0.0005109310150146484
ell 1002, elapsed: 0.00047397613525390625
ell 1001, elapsed: 0.00047087669372558594
ell 1000, elapsed: 0.0004811286926269531
ell 999, elapsed: 0.00047898292541503906
ell 998, elapsed: 0.0004830360412597656
ell 997, elapsed: 0.0004730224609375
ell 996, elapsed: 0.0004870891571044922
ell 995, elapsed: 0.00047087669372558594
ell 994, elapsed: 0.00035881996154785156
ell 993, elapsed: 0.0003478527069091797
ell 992, elapsed: 0.0003590583801269531
ell 991, elapsed: 0.00035500526428222656
ell 990, elapsed: 0.00032210350036621094
ell 989, elapsed: 0.00035500526428222656
ell 988, elapsed: 0.0003509521484375
ell 987, elapsed: 0.0003540515899658203
ell 986, elapsed: 0.0003139972686767578
ell 985, elapsed: 0.00033092498779296875
ell 984, elapsed: 0.0003578662872314453
ell 983, elapsed: 0.00035500526428222656
ell 982, elapsed: 0.00031495094299316406
ell 981, elapsed: 0.00031280517578125
ell 980, elapsed: 0.00031185150146484375
ell 979, elapsed: 0.00035500526428222656
ell 978, elapsed: 0.00035309791564941406
ell 977, elapsed: 0.00036406517028808594
ell 976, elapsed: 0.00034999847412109375
ell 975, elapsed: 0.00035500526428222656
ell 974, elapsed: 0.0003819465637207031
ell 973, elapsed: 0.00031304359436035156
ell 972, elapsed: 0.0003039836883544922
ell 971, elapsed: 0.00030803680419921875
ell 970, elapsed: 0.00030303001403808594
ell 969, elapsed: 0.00030517578125
ell 968, elapsed: 0.0004150867462158203
ell 967, elapsed: 0.0004968643188476562
ell 966, elapsed: 0.0004949569702148438
ell 965, elapsed: 0.00047588348388671875
ell 964, elapsed: 0.0005049705505371094
ell 963, elapsed: 0.0004742145538330078
ell 962, elapsed: 0.00047206878662109375
ell 961, elapsed: 0.00047397613525390625
ell 960, elapsed: 0.00047206878662109375
ell 959, elapsed: 0.00046896934509277344
ell 958, elapsed: 0.0004749298095703125
ell 957, elapsed: 0.0004980564117431641
ell 956, elapsed: 0.00047397613525390625
ell 955, elapsed: 0.0004680156707763672
ell 954, elapsed: 0.00047278404235839844
ell 953, elapsed: 0.0004680156707763672
ell 952, elapsed: 0.0003559589385986328
ell 951, elapsed: 0.00033092498779296875
ell 950, elapsed: 0.00030112266540527344
ell 949, elapsed: 0.00030112266540527344
ell 948, elapsed: 0.00030493736267089844
ell 947, elapsed: 0.0003418922424316406
ell 946, elapsed: 0.00044608116149902344
ell 945, elapsed: 0.00047206878662109375
ell 944, elapsed: 0.0004780292510986328
ell 943, elapsed: 0.0004661083221435547
ell 942, elapsed: 0.00047707557678222656
ell 941, elapsed: 0.00043392181396484375
ell 940, elapsed: 0.0004417896270751953
ell 939, elapsed: 0.0005362033843994141
ell 938, elapsed: 0.0004570484161376953
ell 937, elapsed: 0.00044989585876464844
ell 936, elapsed: 0.0004620552062988281
ell 935, elapsed: 0.0004601478576660156
ell 934, elapsed: 0.0004551410675048828
ell 933, elapsed: 0.0004639625549316406
ell 932, elapsed: 0.0004401206970214844
ell 931, elapsed: 0.0005199909210205078
ell 930, elapsed: 0.0004978179931640625
ell 929, elapsed: 0.0005559921264648438
ell 928, elapsed: 0.0006759166717529297
ell 927, elapsed: 0.0004940032958984375
ell 926, elapsed: 0.0004901885986328125
ell 925, elapsed: 0.0004949569702148438
ell 924, elapsed: 0.0005099773406982422
ell 923, elapsed: 0.0004830360412597656
ell 922, elapsed: 0.0005249977111816406
ell 921, elapsed: 0.0004611015319824219
ell 920, elapsed: 0.0005397796630859375
ell 919, elapsed: 0.00043511390686035156
ell 918, elapsed: 0.0005269050598144531
ell 917, elapsed: 0.00049591064453125
ell 916, elapsed: 0.0005609989166259766
ell 915, elapsed: 0.00046515464782714844
ell 914, elapsed: 0.0005269050598144531
ell 913, elapsed: 0.0004639625549316406
ell 912, elapsed: 0.00046706199645996094
ell 911, elapsed: 0.0005109310150146484
ell 910, elapsed: 0.0005319118499755859
ell 909, elapsed: 0.00046515464782714844
ell 908, elapsed: 0.00047278404235839844
ell 907, elapsed: 0.00044417381286621094
ell 906, elapsed: 0.0004730224609375
ell 905, elapsed: 0.00044608116149902344
ell 904, elapsed: 0.0005490779876708984
ell 903, elapsed: 0.000453948974609375
ell 902, elapsed: 0.0005409717559814453
ell 901, elapsed: 0.0004551410675048828
ell 900, elapsed: 0.0004780292510986328
ell 899, elapsed: 0.0004329681396484375
ell 898, elapsed: 0.0004799365997314453
ell 897, elapsed: 0.0004279613494873047
ell 896, elapsed: 0.0004818439483642578
ell 895, elapsed: 0.00045180320739746094
ell 894, elapsed: 0.0005550384521484375
ell 893, elapsed: 0.0004830360412597656
ell 892, elapsed: 0.0005450248718261719
ell 891, elapsed: 0.00043487548828125
ell 890, elapsed: 0.0004820823669433594
ell 889, elapsed: 0.00042700767517089844
ell 888, elapsed: 0.0004780292510986328
ell 887, elapsed: 0.0004878044128417969
ell 886, elapsed: 0.0005190372467041016
ell 885, elapsed: 0.0004589557647705078
ell 884, elapsed: 0.0005550384521484375
ell 883, elapsed: 0.00045299530029296875
ell 882, elapsed: 0.0005478858947753906
ell 881, elapsed: 0.0004398822784423828
ell 880, elapsed: 0.0004718303680419922
ell 879, elapsed: 0.0004420280456542969
ell 878, elapsed: 0.0004780292510986328
ell 877, elapsed: 0.0004901885986328125
ell 876, elapsed: 0.0005381107330322266
ell 875, elapsed: 0.0004830360412597656
ell 874, elapsed: 0.0005481243133544922
ell 873, elapsed: 0.0005459785461425781
ell 872, elapsed: 0.0005550384521484375
ell 871, elapsed: 0.0005810260772705078
ell 870, elapsed: 0.0006999969482421875
ell 869, elapsed: 0.0005168914794921875
ell 868, elapsed: 0.0004980564117431641
ell 867, elapsed: 0.0004980564117431641
ell 866, elapsed: 0.0004899501800537109
ell 865, elapsed: 0.00049591064453125
ell 864, elapsed: 0.0004971027374267578
ell 863, elapsed: 0.0005218982696533203
ell 862, elapsed: 0.0005021095275878906
ell 861, elapsed: 0.0004971027374267578
ell 860, elapsed: 0.0004980564117431641
ell 859, elapsed: 0.00049591064453125
ell 858, elapsed: 0.0004909038543701172
ell 857, elapsed: 0.0004971027374267578
ell 856, elapsed: 0.0005068778991699219
ell 855, elapsed: 0.0005390644073486328
ell 854, elapsed: 0.0005409717559814453
ell 853, elapsed: 0.0005519390106201172
ell 852, elapsed: 0.0005540847778320312
ell 851, elapsed: 0.0005478858947753906
ell 850, elapsed: 0.0005490779876708984
ell 849, elapsed: 0.0005719661712646484
ell 848, elapsed: 0.0005478858947753906
ell 847, elapsed: 0.0005550384521484375
ell 846, elapsed: 0.0005500316619873047
ell 845, elapsed: 0.0005528926849365234
ell 844, elapsed: 0.0005509853363037109
ell 843, elapsed: 0.0005519390106201172
ell 842, elapsed: 0.0005638599395751953
ell 841, elapsed: 0.0005509853363037109
ell 840, elapsed: 0.0005478858947753906
ell 839, elapsed: 0.0005559921264648438
ell 838, elapsed: 0.0005509853363037109
ell 837, elapsed: 0.0005550384521484375
ell 836, elapsed: 0.0005519390106201172
ell 835, elapsed: 0.00055694580078125
ell 834, elapsed: 0.0005559921264648438
ell 833, elapsed: 0.000553131103515625
ell 832, elapsed: 0.0005581378936767578
ell 831, elapsed: 0.0005500316619873047
ell 830, elapsed: 0.0005280971527099609
ell 829, elapsed: 0.0003540515899658203
ell 828, elapsed: 0.0003631114959716797
ell 827, elapsed: 0.0003540515899658203
ell 826, elapsed: 0.00034809112548828125
ell 825, elapsed: 0.0003540515899658203
ell 824, elapsed: 0.0003631114959716797
ell 823, elapsed: 0.00034880638122558594
ell 822, elapsed: 0.0003528594970703125
ell 821, elapsed: 0.0003509521484375
ell 820, elapsed: 0.0003521442413330078
ell 819, elapsed: 0.00034689903259277344
ell 818, elapsed: 0.0003609657287597656
ell 817, elapsed: 0.00041794776916503906
ell 816, elapsed: 0.00034999847412109375
ell 815, elapsed: 0.00034689903259277344
ell 814, elapsed: 0.0003490447998046875
ell 813, elapsed: 0.0003478527069091797
ell 812, elapsed: 0.0003478527069091797
ell 811, elapsed: 0.0003459453582763672
ell 810, elapsed: 0.0003490447998046875
ell 809, elapsed: 0.0003478527069091797
ell 808, elapsed: 0.0003490447998046875
ell 807, elapsed: 0.0003650188446044922
ell 806, elapsed: 0.00034809112548828125
ell 805, elapsed: 0.0003490447998046875
ell 804, elapsed: 0.0003478527069091797
ell 803, elapsed: 0.0003421306610107422
ell 802, elapsed: 0.0003330707550048828
ell 801, elapsed: 0.0003311634063720703
ell 800, elapsed: 0.0003428459167480469
ell 799, elapsed: 0.0003421306610107422
ell 798, elapsed: 0.00034308433532714844
ell 797, elapsed: 0.0003609657287597656
ell 796, elapsed: 0.00036787986755371094
ell 795, elapsed: 0.00034689903259277344
ell 794, elapsed: 0.00033593177795410156
ell 793, elapsed: 0.0003361701965332031
ell 792, elapsed: 0.00034809112548828125
ell 791, elapsed: 0.0003421306610107422
ell 790, elapsed: 0.0003399848937988281
ell 789, elapsed: 0.0003371238708496094
ell 788, elapsed: 0.00033593177795410156
ell 787, elapsed: 0.00034689903259277344
ell 786, elapsed: 0.00033593177795410156
ell 785, elapsed: 0.0003478527069091797
ell 784, elapsed: 0.0003437995910644531
ell 783, elapsed: 0.0003459453582763672
ell 782, elapsed: 0.0003638267517089844
ell 781, elapsed: 0.0003528594970703125
ell 780, elapsed: 0.0003459453582763672
ell 779, elapsed: 0.00034499168395996094
ell 778, elapsed: 0.0003409385681152344
ell 777, elapsed: 0.0003619194030761719
ell 776, elapsed: 0.00035500526428222656
ell 775, elapsed: 0.0003800392150878906
ell 774, elapsed: 0.0003421306610107422
ell 773, elapsed: 0.00035309791564941406
ell 772, elapsed: 0.00034999847412109375
ell 771, elapsed: 0.0003440380096435547
ell 770, elapsed: 0.00035500526428222656
ell 769, elapsed: 0.00034499168395996094
ell 768, elapsed: 0.00035881996154785156
ell 767, elapsed: 0.00034499168395996094
ell 766, elapsed: 0.0003478527069091797
ell 765, elapsed: 0.0003559589385986328
ell 764, elapsed: 0.0003597736358642578
ell 763, elapsed: 0.0003509521484375
ell 762, elapsed: 0.0003440380096435547
ell 761, elapsed: 0.0003440380096435547
ell 760, elapsed: 0.0003490447998046875
ell 759, elapsed: 0.0003459453582763672
ell 758, elapsed: 0.0004019737243652344
ell 757, elapsed: 0.00035190582275390625
ell 756, elapsed: 0.0003459453582763672
ell 755, elapsed: 0.00034999847412109375
ell 754, elapsed: 0.0003578662872314453
ell 753, elapsed: 0.0003509521484375
ell 752, elapsed: 0.000347137451171875
ell 751, elapsed: 0.0003440380096435547
ell 750, elapsed: 0.0003459453582763672
ell 749, elapsed: 0.0003421306610107422
ell 748, elapsed: 0.0003459453582763672
ell 747, elapsed: 0.0003409385681152344
ell 746, elapsed: 0.0003418922424316406
ell 745, elapsed: 0.00034999847412109375
ell 744, elapsed: 0.0003440380096435547
ell 743, elapsed: 0.00036406517028808594
ell 742, elapsed: 0.00034689903259277344
ell 741, elapsed: 0.0003421306610107422
ell 740, elapsed: 0.0003459453582763672
ell 739, elapsed: 0.0003437995910644531
ell 738, elapsed: 0.0003750324249267578
ell 737, elapsed: 0.0003571510314941406
ell 736, elapsed: 0.0003409385681152344
ell 735, elapsed: 0.00034308433532714844
ell 734, elapsed: 0.0003380775451660156
ell 733, elapsed: 0.00034308433532714844
ell 732, elapsed: 0.0004169940948486328
ell 731, elapsed: 0.0006699562072753906
ell 730, elapsed: 0.0005288124084472656
ell 729, elapsed: 0.0004680156707763672
ell 728, elapsed: 0.0004858970642089844
ell 727, elapsed: 0.0004611015319824219
ell 726, elapsed: 0.0004780292510986328
ell 725, elapsed: 0.0005009174346923828
ell 724, elapsed: 0.000469207763671875
ell 723, elapsed: 0.0004901885986328125
ell 722, elapsed: 0.0005271434783935547
ell 721, elapsed: 0.0004909038543701172
ell 720, elapsed: 0.0005290508270263672
ell 719, elapsed: 0.00048804283142089844
ell 718, elapsed: 0.0005528926849365234
ell 717, elapsed: 0.0004718303680419922
ell 716, elapsed: 0.000537872314453125
ell 715, elapsed: 0.0004780292510986328
ell 714, elapsed: 0.0005371570587158203
ell 713, elapsed: 0.0005018711090087891
ell 712, elapsed: 0.0005528926849365234
ell 711, elapsed: 0.00042891502380371094
ell 710, elapsed: 0.0004680156707763672
ell 709, elapsed: 0.00042510032653808594
ell 708, elapsed: 0.00047707557678222656
ell 707, elapsed: 0.0004189014434814453
ell 706, elapsed: 0.0004889965057373047
ell 705, elapsed: 0.0004971027374267578
ell 704, elapsed: 0.0004868507385253906
ell 703, elapsed: 0.0005109310150146484
ell 702, elapsed: 0.0004870891571044922
ell 701, elapsed: 0.0004858970642089844
ell 700, elapsed: 0.0004839897155761719
ell 699, elapsed: 0.0004990100860595703
ell 698, elapsed: 0.0004718303680419922
ell 697, elapsed: 0.0005469322204589844
ell 696, elapsed: 0.0004260540008544922
ell 695, elapsed: 0.0004870891571044922
ell 694, elapsed: 0.0004820823669433594
ell 693, elapsed: 0.0005199909210205078
ell 692, elapsed: 0.00041604042053222656
ell 691, elapsed: 0.0004761219024658203
ell 690, elapsed: 0.00047087669372558594
ell 689, elapsed: 0.0005381107330322266
ell 688, elapsed: 0.0004761219024658203
ell 687, elapsed: 0.0005309581756591797
ell 686, elapsed: 0.0004520416259765625
ell 685, elapsed: 0.00045299530029296875
ell 684, elapsed: 0.0004858970642089844
ell 683, elapsed: 0.0005369186401367188
ell 682, elapsed: 0.0004968643188476562
ell 681, elapsed: 0.00048804283142089844
ell 680, elapsed: 0.0005140304565429688
ell 679, elapsed: 0.0005319118499755859
ell 678, elapsed: 0.0004420280456542969
ell 677, elapsed: 0.0004489421844482422
ell 676, elapsed: 0.00045180320739746094
ell 675, elapsed: 0.000453948974609375
ell 674, elapsed: 0.00047588348388671875
ell 673, elapsed: 0.0005590915679931641
ell 672, elapsed: 0.0005090236663818359
ell 671, elapsed: 0.0004611015319824219
ell 670, elapsed: 0.0004630088806152344
ell 669, elapsed: 0.0005230903625488281
ell 668, elapsed: 0.0005040168762207031
ell 667, elapsed: 0.0004508495330810547
ell 666, elapsed: 0.0004620552062988281
ell 665, elapsed: 0.00048279762268066406
ell 664, elapsed: 0.0005450248718261719
ell 663, elapsed: 0.0005400180816650391
ell 662, elapsed: 0.0005428791046142578
ell 661, elapsed: 0.0005381107330322266
ell 660, elapsed: 0.0005340576171875
ell 659, elapsed: 0.0005450248718261719
ell 658, elapsed: 0.0005488395690917969
ell 657, elapsed: 0.0005469322204589844
ell 656, elapsed: 0.0005409717559814453
ell 655, elapsed: 0.0005390644073486328
ell 654, elapsed: 0.0005409717559814453
ell 653, elapsed: 0.0005381107330322266
ell 652, elapsed: 0.0005390644073486328
ell 651, elapsed: 0.0005519390106201172
ell 650, elapsed: 0.0005350112915039062
ell 649, elapsed: 0.0005421638488769531
ell 648, elapsed: 0.0005419254302978516
ell 647, elapsed: 0.0005469322204589844
ell 646, elapsed: 0.0005400180816650391
ell 645, elapsed: 0.0005388259887695312
ell 644, elapsed: 0.0005640983581542969
ell 643, elapsed: 0.0005369186401367188
ell 642, elapsed: 0.0005421638488769531
ell 641, elapsed: 0.0005340576171875
ell 640, elapsed: 0.0005390644073486328
ell 639, elapsed: 0.0005362033843994141
ell 638, elapsed: 0.0005400180816650391
ell 637, elapsed: 0.0005929470062255859
ell 636, elapsed: 0.0006809234619140625
ell 635, elapsed: 0.00048804283142089844
ell 634, elapsed: 0.00048089027404785156
ell 633, elapsed: 0.0004820823669433594
ell 632, elapsed: 0.0005509853363037109
ell 631, elapsed: 0.0005350112915039062
ell 630, elapsed: 0.0005528926849365234
ell 629, elapsed: 0.0005340576171875
ell 628, elapsed: 0.0005328655242919922
ell 627, elapsed: 0.0005359649658203125
ell 626, elapsed: 0.0005340576171875
ell 625, elapsed: 0.0005500316619873047
ell 624, elapsed: 0.0005390644073486328
ell 623, elapsed: 0.00037407875061035156
ell 622, elapsed: 0.0003521442413330078
ell 621, elapsed: 0.0003528594970703125
ell 620, elapsed: 0.0003559589385986328
ell 619, elapsed: 0.00034809112548828125
ell 618, elapsed: 0.000347137451171875
ell 617, elapsed: 0.0003490447998046875
ell 616, elapsed: 0.00034689903259277344
ell 615, elapsed: 0.0003490447998046875
ell 614, elapsed: 0.0003609657287597656
ell 613, elapsed: 0.0003600120544433594
ell 612, elapsed: 0.00035190582275390625
ell 611, elapsed: 0.00035190582275390625
ell 610, elapsed: 0.000347137451171875
ell 609, elapsed: 0.0003459453582763672
ell 608, elapsed: 0.00035190582275390625
ell 607, elapsed: 0.00034809112548828125
ell 606, elapsed: 0.00034618377685546875
ell 605, elapsed: 0.00034999847412109375
ell 604, elapsed: 0.00034308433532714844
ell 603, elapsed: 0.00035190582275390625
ell 602, elapsed: 0.00035691261291503906
ell 601, elapsed: 0.00035500526428222656
ell 600, elapsed: 0.0003490447998046875
ell 599, elapsed: 0.000347137451171875
ell 598, elapsed: 0.00040793418884277344
ell 597, elapsed: 0.0003628730773925781
ell 596, elapsed: 0.0003540515899658203
ell 595, elapsed: 0.0003571510314941406
ell 594, elapsed: 0.0003528594970703125
ell 593, elapsed: 0.00035119056701660156
ell 592, elapsed: 0.0003600120544433594
ell 591, elapsed: 0.00034999847412109375
ell 590, elapsed: 0.00034809112548828125
ell 589, elapsed: 0.0003409385681152344
ell 588, elapsed: 0.0003509521484375
ell 587, elapsed: 0.0003440380096435547
ell 586, elapsed: 0.00034499168395996094
ell 585, elapsed: 0.000347137451171875
ell 584, elapsed: 0.00036215782165527344
ell 583, elapsed: 0.00036406517028808594
ell 582, elapsed: 0.0003478527069091797
ell 581, elapsed: 0.0003628730773925781
ell 580, elapsed: 0.0003571510314941406
ell 579, elapsed: 0.0003478527069091797
ell 578, elapsed: 0.00035309791564941406
ell 577, elapsed: 0.00035691261291503906
ell 576, elapsed: 0.0003490447998046875
ell 575, elapsed: 0.0003452301025390625
ell 574, elapsed: 0.0003459453582763672
ell 573, elapsed: 0.00034499168395996094
ell 572, elapsed: 0.00034499168395996094
ell 571, elapsed: 0.00035500526428222656
ell 570, elapsed: 0.0003440380096435547
ell 569, elapsed: 0.00034308433532714844
ell 568, elapsed: 0.00034618377685546875
ell 567, elapsed: 0.00034499168395996094
ell 566, elapsed: 0.0003490447998046875
ell 565, elapsed: 0.0003418922424316406
ell 564, elapsed: 0.00034499168395996094
ell 563, elapsed: 0.0005600452423095703
ell 562, elapsed: 0.0006639957427978516
ell 561, elapsed: 0.0005130767822265625
ell 560, elapsed: 0.0003600120544433594
ell 559, elapsed: 0.0003561973571777344
ell 558, elapsed: 0.00030994415283203125
ell 557, elapsed: 0.0003070831298828125
ell 556, elapsed: 0.00030803680419921875
ell 555, elapsed: 0.0003178119659423828
ell 554, elapsed: 0.0003020763397216797
ell 553, elapsed: 0.00030803680419921875
ell 552, elapsed: 0.00030303001403808594
ell 551, elapsed: 0.0003058910369873047
ell 550, elapsed: 0.0003209114074707031
ell 549, elapsed: 0.00030303001403808594
ell 548, elapsed: 0.0003120899200439453
ell 547, elapsed: 0.0003039836883544922
ell 546, elapsed: 0.00030303001403808594
ell 545, elapsed: 0.00030303001403808594
ell 544, elapsed: 0.00030303001403808594
ell 543, elapsed: 0.00031113624572753906
ell 542, elapsed: 0.0002989768981933594
ell 541, elapsed: 0.0003020763397216797
ell 540, elapsed: 0.0002980232238769531
ell 539, elapsed: 0.0003027915954589844
ell 538, elapsed: 0.0003108978271484375
ell 537, elapsed: 0.00030112266540527344
ell 536, elapsed: 0.0003001689910888672
ell 535, elapsed: 0.0003020763397216797
ell 534, elapsed: 0.00030303001403808594
ell 533, elapsed: 0.00030112266540527344
ell 532, elapsed: 0.0002989768981933594
ell 531, elapsed: 0.0004010200500488281
ell 530, elapsed: 0.0005030632019042969
ell 529, elapsed: 0.0004999637603759766
ell 528, elapsed: 0.0005059242248535156
ell 527, elapsed: 0.00048804283142089844
ell 526, elapsed: 0.0004420280456542969
ell 525, elapsed: 0.0003669261932373047
ell 524, elapsed: 0.0003428459167480469
ell 523, elapsed: 0.00031304359436035156
ell 522, elapsed: 0.00029587745666503906
ell 521, elapsed: 0.00030303001403808594
ell 520, elapsed: 0.00030303001403808594
ell 519, elapsed: 0.0003161430358886719
ell 518, elapsed: 0.000308990478515625
ell 517, elapsed: 0.00041103363037109375
ell 516, elapsed: 0.0004520416259765625
ell 515, elapsed: 0.0004730224609375
ell 514, elapsed: 0.0004830360412597656
ell 513, elapsed: 0.00044798851013183594
ell 512, elapsed: 0.00047898292541503906
ell 511, elapsed: 0.0004131793975830078
ell 510, elapsed: 0.0004138946533203125
ell 509, elapsed: 0.0004258155822753906
ell 508, elapsed: 0.0004379749298095703
ell 507, elapsed: 0.0004661083221435547
ell 506, elapsed: 0.0004291534423828125
ell 505, elapsed: 0.00045299530029296875
ell 504, elapsed: 0.0004611015319824219
ell 503, elapsed: 0.0004611015319824219
ell 502, elapsed: 0.0004131793975830078
ell 501, elapsed: 0.0004391670227050781
ell 500, elapsed: 0.0005500316619873047
ell 499, elapsed: 0.0004749298095703125
ell 498, elapsed: 0.00047206878662109375
ell 497, elapsed: 0.0004909038543701172
ell 496, elapsed: 0.00047588348388671875
ell 495, elapsed: 0.00047779083251953125
ell 494, elapsed: 0.0004899501800537109
ell 493, elapsed: 0.0004909038543701172
ell 492, elapsed: 0.0004448890686035156
ell 491, elapsed: 0.0004391670227050781
ell 490, elapsed: 0.0004811286926269531
ell 489, elapsed: 0.0004360675811767578
ell 488, elapsed: 0.00051116943359375
ell 487, elapsed: 0.0004839897155761719
ell 486, elapsed: 0.0004780292510986328
ell 485, elapsed: 0.0004971027374267578
ell 484, elapsed: 0.0004911422729492188
ell 483, elapsed: 0.0005369186401367188
ell 482, elapsed: 0.00047707557678222656
ell 481, elapsed: 0.00047516822814941406
ell 480, elapsed: 0.0004730224609375
ell 479, elapsed: 0.0004248619079589844
ell 478, elapsed: 0.0004730224609375
ell 477, elapsed: 0.0004558563232421875
ell 476, elapsed: 0.0004031658172607422
ell 475, elapsed: 0.00041484832763671875
ell 474, elapsed: 0.0004038810729980469
ell 473, elapsed: 0.0004410743713378906
ell 472, elapsed: 0.0004799365997314453
ell 471, elapsed: 0.00040984153747558594
ell 470, elapsed: 0.00045609474182128906
ell 469, elapsed: 0.0005180835723876953
ell 468, elapsed: 0.00048804283142089844
ell 467, elapsed: 0.0005500316619873047
ell 466, elapsed: 0.0005288124084472656
ell 465, elapsed: 0.0005459785461425781
ell 464, elapsed: 0.0005319118499755859
ell 463, elapsed: 0.00048804283142089844
ell 462, elapsed: 0.0004899501800537109
ell 461, elapsed: 0.0005021095275878906
ell 460, elapsed: 0.00046706199645996094
ell 459, elapsed: 0.0005040168762207031
ell 458, elapsed: 0.0005590915679931641
ell 457, elapsed: 0.0004830360412597656
ell 456, elapsed: 0.0004680156707763672
ell 455, elapsed: 0.0005350112915039062
ell 454, elapsed: 0.0005319118499755859
ell 453, elapsed: 0.0004839897155761719
ell 452, elapsed: 0.00048804283142089844
ell 451, elapsed: 0.0004901885986328125
ell 450, elapsed: 0.0004940032958984375
ell 449, elapsed: 0.0004858970642089844
ell 448, elapsed: 0.0004889965057373047
ell 447, elapsed: 0.00048804283142089844
ell 446, elapsed: 0.0004899501800537109
ell 445, elapsed: 0.0005028247833251953
ell 444, elapsed: 0.0005102157592773438
ell 443, elapsed: 0.0005249977111816406
ell 442, elapsed: 0.0005497932434082031
ell 441, elapsed: 0.0005319118499755859
ell 440, elapsed: 0.0004978179931640625
ell 439, elapsed: 0.00047206878662109375
ell 438, elapsed: 0.00048422813415527344
ell 437, elapsed: 0.0004799365997314453
ell 436, elapsed: 0.0004820823669433594
ell 435, elapsed: 0.0004801750183105469
ell 434, elapsed: 0.00047898292541503906
ell 433, elapsed: 0.0004820823669433594
ell 432, elapsed: 0.0004930496215820312
ell 431, elapsed: 0.0004780292510986328
ell 430, elapsed: 0.0004830360412597656
ell 429, elapsed: 0.00047588348388671875
ell 428, elapsed: 0.0004849433898925781
ell 427, elapsed: 0.00047779083251953125
ell 426, elapsed: 0.0005159378051757812
ell 425, elapsed: 0.0004858970642089844
ell 424, elapsed: 0.0005130767822265625
ell 423, elapsed: 0.0005199909210205078
ell 422, elapsed: 0.0004961490631103516
ell 421, elapsed: 0.000492095947265625
ell 420, elapsed: 0.0005240440368652344
ell 419, elapsed: 0.00048089027404785156
ell 418, elapsed: 0.0004889965057373047
ell 417, elapsed: 0.0005300045013427734
ell 416, elapsed: 0.0004971027374267578
ell 415, elapsed: 0.0004918575286865234
ell 414, elapsed: 0.0005319118499755859
ell 413, elapsed: 0.0004811286926269531
ell 412, elapsed: 0.0004851818084716797
ell 411, elapsed: 0.0005178451538085938
ell 410, elapsed: 0.0004940032958984375
ell 409, elapsed: 0.0005311965942382812
ell 408, elapsed: 0.0004980564117431641
ell 407, elapsed: 0.0004429817199707031
ell 406, elapsed: 0.0004508495330810547
ell 405, elapsed: 0.00045108795166015625
ell 404, elapsed: 0.0004620552062988281
ell 403, elapsed: 0.0005350112915039062
ell 402, elapsed: 0.0005121231079101562
ell 401, elapsed: 0.0005419254302978516
ell 400, elapsed: 0.0005462169647216797
ell 399, elapsed: 0.00046706199645996094
ell 398, elapsed: 0.0004639625549316406
ell 397, elapsed: 0.0004639625549316406
ell 396, elapsed: 0.0004649162292480469
ell 395, elapsed: 0.0004658699035644531
ell 394, elapsed: 0.0004799365997314453
ell 393, elapsed: 0.0004658699035644531
ell 392, elapsed: 0.00046706199645996094
ell 391, elapsed: 0.0004749298095703125
ell 390, elapsed: 0.0004677772521972656
ell 389, elapsed: 0.00047087669372558594
ell 388, elapsed: 0.0005021095275878906
ell 387, elapsed: 0.0005347728729248047
ell 386, elapsed: 0.0004930496215820312
ell 385, elapsed: 0.0004780292510986328
ell 384, elapsed: 0.00047588348388671875
ell 383, elapsed: 0.0004680156707763672
ell 382, elapsed: 0.0004711151123046875
ell 381, elapsed: 0.0004811286926269531
ell 380, elapsed: 0.0004742145538330078
ell 379, elapsed: 0.00047898292541503906
ell 378, elapsed: 0.0004811286926269531
ell 377, elapsed: 0.000469207763671875
ell 376, elapsed: 0.0004940032958984375
ell 375, elapsed: 0.00047588348388671875
ell 374, elapsed: 0.0004868507385253906
ell 373, elapsed: 0.00031304359436035156
ell 372, elapsed: 0.0003190040588378906
ell 371, elapsed: 0.0003199577331542969
ell 370, elapsed: 0.0003159046173095703
ell 369, elapsed: 0.00032711029052734375
ell 368, elapsed: 0.0003159046173095703
ell 367, elapsed: 0.0003190040588378906
ell 366, elapsed: 0.0003120899200439453
ell 365, elapsed: 0.0003108978271484375
ell 364, elapsed: 0.0003268718719482422
ell 363, elapsed: 0.0003108978271484375
ell 362, elapsed: 0.00031495094299316406
ell 361, elapsed: 0.000308990478515625
ell 360, elapsed: 0.0003581047058105469
ell 359, elapsed: 0.00034880638122558594
ell 358, elapsed: 0.0003330707550048828
ell 357, elapsed: 0.00032711029052734375
ell 356, elapsed: 0.0003108978271484375
ell 355, elapsed: 0.00031185150146484375
ell 354, elapsed: 0.000308990478515625
ell 353, elapsed: 0.00034999847412109375
ell 352, elapsed: 0.00034999847412109375
ell 351, elapsed: 0.00032401084899902344
ell 350, elapsed: 0.0003390312194824219
ell 349, elapsed: 0.0003490447998046875
ell 348, elapsed: 0.00032782554626464844
ell 347, elapsed: 0.0003199577331542969
ell 346, elapsed: 0.00030517578125
ell 345, elapsed: 0.00030493736267089844
ell 344, elapsed: 0.0003058910369873047
ell 343, elapsed: 0.00030493736267089844
ell 342, elapsed: 0.00030517578125
ell 341, elapsed: 0.0002989768981933594
ell 340, elapsed: 0.0003008842468261719
ell 339, elapsed: 0.0003008842468261719
ell 338, elapsed: 0.00030493736267089844
ell 337, elapsed: 0.00030803680419921875
ell 336, elapsed: 0.0002999305725097656
ell 335, elapsed: 0.00030493736267089844
ell 334, elapsed: 0.00031495094299316406
ell 333, elapsed: 0.0003039836883544922
ell 332, elapsed: 0.0003039836883544922
ell 331, elapsed: 0.00030517578125
ell 330, elapsed: 0.00030684471130371094
ell 329, elapsed: 0.00030303001403808594
ell 328, elapsed: 0.00030303001403808594
ell 327, elapsed: 0.0003120899200439453
ell 326, elapsed: 0.00030493736267089844
ell 325, elapsed: 0.00030803680419921875
ell 324, elapsed: 0.0003058910369873047
ell 323, elapsed: 0.0003077983856201172
ell 322, elapsed: 0.0003139972686767578
ell 321, elapsed: 0.0003008842468261719
ell 320, elapsed: 0.00030303001403808594
ell 319, elapsed: 0.00029778480529785156
ell 318, elapsed: 0.0003008842468261719
ell 317, elapsed: 0.00030112266540527344
ell 316, elapsed: 0.00030112266540527344
ell 315, elapsed: 0.00030303001403808594
ell 314, elapsed: 0.0003020763397216797
ell 313, elapsed: 0.0003001689910888672
ell 312, elapsed: 0.0003039836883544922
ell 311, elapsed: 0.0003008842468261719
ell 310, elapsed: 0.000308990478515625
ell 309, elapsed: 0.0002989768981933594
ell 308, elapsed: 0.0003039836883544922
ell 307, elapsed: 0.0002999305725097656
ell 306, elapsed: 0.0002999305725097656
ell 305, elapsed: 0.0003020763397216797
ell 304, elapsed: 0.00030112266540527344
ell 303, elapsed: 0.0003039836883544922
ell 302, elapsed: 0.0003039836883544922
ell 301, elapsed: 0.0003039836883544922
ell 300, elapsed: 0.000308990478515625
ell 299, elapsed: 0.0003020763397216797
ell 298, elapsed: 0.0003070831298828125
ell 297, elapsed: 0.0004208087921142578
ell 296, elapsed: 0.00043082237243652344
ell 295, elapsed: 0.00043392181396484375
ell 294, elapsed: 0.0004799365997314453
ell 293, elapsed: 0.0004940032958984375
ell 292, elapsed: 0.0004260540008544922
ell 291, elapsed: 0.00041794776916503906
ell 290, elapsed: 0.00044608116149902344
ell 289, elapsed: 0.0004899501800537109
ell 288, elapsed: 0.00043702125549316406
ell 287, elapsed: 0.0004851818084716797
ell 286, elapsed: 0.00047516822814941406
ell 285, elapsed: 0.0004391670227050781
ell 284, elapsed: 0.0004699230194091797
ell 283, elapsed: 0.0004811286926269531
ell 282, elapsed: 0.00046706199645996094
ell 281, elapsed: 0.0004680156707763672
ell 280, elapsed: 0.00045990943908691406
ell 279, elapsed: 0.0004711151123046875
ell 278, elapsed: 0.0004899501800537109
ell 277, elapsed: 0.0004799365997314453
ell 276, elapsed: 0.0004210472106933594
ell 275, elapsed: 0.0004379749298095703
ell 274, elapsed: 0.00047278404235839844
ell 273, elapsed: 0.0004990100860595703
ell 272, elapsed: 0.0004730224609375
ell 271, elapsed: 0.0004630088806152344
ell 270, elapsed: 0.0004889965057373047
ell 269, elapsed: 0.0004699230194091797
ell 268, elapsed: 0.0006580352783203125
ell 267, elapsed: 0.0005710124969482422
ell 266, elapsed: 0.0005409717559814453
ell 265, elapsed: 0.0005190372467041016
ell 264, elapsed: 0.0005061626434326172
ell 263, elapsed: 0.0005309581756591797
ell 262, elapsed: 0.0005002021789550781
ell 261, elapsed: 0.0005431175231933594
ell 260, elapsed: 0.0004911422729492188
ell 259, elapsed: 0.0005321502685546875
ell 258, elapsed: 0.0005109310150146484
ell 257, elapsed: 0.0005400180816650391
ell 256, elapsed: 0.0005059242248535156
ell 255, elapsed: 0.0005331039428710938
ell 254, elapsed: 0.0004911422729492188
ell 253, elapsed: 0.0005419254302978516
ell 252, elapsed: 0.0004918575286865234
ell 251, elapsed: 0.0005230903625488281
ell 250, elapsed: 0.0005080699920654297
ell 249, elapsed: 0.000514984130859375
ell 248, elapsed: 0.0006189346313476562
ell 247, elapsed: 0.0006301403045654297
ell 246, elapsed: 0.0005269050598144531
ell 245, elapsed: 0.0005221366882324219
ell 244, elapsed: 0.0005199909210205078
ell 243, elapsed: 0.0005071163177490234
ell 242, elapsed: 0.0005199909210205078
ell 241, elapsed: 0.0005090236663818359
ell 240, elapsed: 0.0005509853363037109
ell 239, elapsed: 0.0005509853363037109
ell 238, elapsed: 0.0005629062652587891
ell 237, elapsed: 0.0005450248718261719
ell 236, elapsed: 0.0005488395690917969
ell 235, elapsed: 0.0005340576171875
ell 234, elapsed: 0.0005428791046142578
ell 233, elapsed: 0.0005359649658203125
ell 232, elapsed: 0.0005338191986083984
ell 231, elapsed: 0.0005619525909423828
ell 230, elapsed: 0.0005390644073486328
ell 229, elapsed: 0.0006020069122314453
ell 228, elapsed: 0.000659942626953125
ell 227, elapsed: 0.000637054443359375
ell 226, elapsed: 0.0006220340728759766
ell 225, elapsed: 0.0006029605865478516
ell 224, elapsed: 0.0006089210510253906
ell 223, elapsed: 0.0005998611450195312
ell 222, elapsed: 0.0005979537963867188
ell 221, elapsed: 0.00061798095703125
ell 220, elapsed: 0.0007529258728027344
ell 219, elapsed: 0.0006101131439208984
ell 218, elapsed: 0.0006020069122314453
ell 217, elapsed: 0.0006201267242431641
ell 216, elapsed: 0.0006160736083984375
ell 215, elapsed: 0.0006220340728759766
ell 214, elapsed: 0.0006041526794433594
ell 213, elapsed: 0.0006029605865478516
ell 212, elapsed: 0.000614166259765625
ell 211, elapsed: 0.0005609989166259766
ell 210, elapsed: 0.0005381107330322266
ell 209, elapsed: 0.0005431175231933594
ell 208, elapsed: 0.0005319118499755859
ell 207, elapsed: 0.0005419254302978516
ell 206, elapsed: 0.0005769729614257812
ell 205, elapsed: 0.0005359649658203125
ell 204, elapsed: 0.0005850791931152344
ell 203, elapsed: 0.0006101131439208984
ell 202, elapsed: 0.0005698204040527344
ell 201, elapsed: 0.0005800724029541016
ell 200, elapsed: 0.0005609989166259766
ell 199, elapsed: 0.0005400180816650391
ell 198, elapsed: 0.0005300045013427734
ell 197, elapsed: 0.0005509853363037109
ell 196, elapsed: 0.0005390644073486328
ell 195, elapsed: 0.0005371570587158203
ell 194, elapsed: 0.0005428791046142578
ell 193, elapsed: 0.0005359649658203125
ell 192, elapsed: 0.0005431175231933594
ell 191, elapsed: 0.0005350112915039062
ell 190, elapsed: 0.0005478858947753906
ell 189, elapsed: 0.0005359649658203125
ell 188, elapsed: 0.0005359649658203125
ell 187, elapsed: 0.0005440711975097656
ell 186, elapsed: 0.000537872314453125
ell 185, elapsed: 0.0005438327789306641
ell 184, elapsed: 0.0005471706390380859
ell 183, elapsed: 0.0005369186401367188
ell 182, elapsed: 0.0005438327789306641
ell 181, elapsed: 0.00038886070251464844
ell 180, elapsed: 0.0003380775451660156
ell 179, elapsed: 0.0003349781036376953
ell 178, elapsed: 0.0003349781036376953
ell 177, elapsed: 0.00035691261291503906
ell 176, elapsed: 0.0003399848937988281
ell 175, elapsed: 0.0003452301025390625
ell 174, elapsed: 0.00035881996154785156
ell 173, elapsed: 0.0003437995910644531
ell 172, elapsed: 0.000347137451171875
ell 171, elapsed: 0.00034499168395996094
ell 170, elapsed: 0.000347137451171875
ell 169, elapsed: 0.0003409385681152344
ell 168, elapsed: 0.00036215782165527344
ell 167, elapsed: 0.00036406517028808594
ell 166, elapsed: 0.0003399848937988281
ell 165, elapsed: 0.0003578662872314453
ell 164, elapsed: 0.00034618377685546875
ell 163, elapsed: 0.0003590583801269531
ell 162, elapsed: 0.0003490447998046875
ell 161, elapsed: 0.0003440380096435547
ell 160, elapsed: 0.000347137451171875
ell 159, elapsed: 0.0003440380096435547
ell 158, elapsed: 0.0003428459167480469
ell 157, elapsed: 0.00034999847412109375
ell 156, elapsed: 0.0003428459167480469
ell 155, elapsed: 0.0003509521484375
ell 154, elapsed: 0.00034308433532714844
ell 153, elapsed: 0.0003490447998046875
ell 152, elapsed: 0.000347137451171875
ell 151, elapsed: 0.0003440380096435547
ell 150, elapsed: 0.0003421306610107422
ell 149, elapsed: 0.0003490447998046875
ell 148, elapsed: 0.00034689903259277344
ell 147, elapsed: 0.0003490447998046875
ell 146, elapsed: 0.0003440380096435547
ell 145, elapsed: 0.0003490447998046875
ell 144, elapsed: 0.00034499168395996094
ell 143, elapsed: 0.00035190582275390625
ell 142, elapsed: 0.00034999847412109375
ell 141, elapsed: 0.000347137451171875
ell 140, elapsed: 0.00034689903259277344
ell 139, elapsed: 0.00036406517028808594
ell 138, elapsed: 0.0003459453582763672
ell 137, elapsed: 0.00034499168395996094
ell 136, elapsed: 0.0003390312194824219
ell 135, elapsed: 0.000347137451171875
ell 134, elapsed: 0.0003390312194824219
ell 133, elapsed: 0.0003440380096435547
ell 132, elapsed: 0.0003440380096435547
ell 131, elapsed: 0.00035119056701660156
ell 130, elapsed: 0.0003440380096435547
ell 129, elapsed: 0.0003418922424316406
ell 128, elapsed: 0.00035500526428222656
ell 127, elapsed: 0.0003409385681152344
ell 126, elapsed: 0.0003490447998046875
ell 125, elapsed: 0.0003418922424316406
ell 124, elapsed: 0.0003418922424316406
ell 123, elapsed: 0.0003440380096435547
ell 122, elapsed: 0.0003390312194824219
ell 121, elapsed: 0.0003409385681152344
ell 120, elapsed: 0.00035119056701660156
ell 119, elapsed: 0.0003509521484375
ell 118, elapsed: 0.0003421306610107422
ell 117, elapsed: 0.00033783912658691406
ell 116, elapsed: 0.00035691261291503906
ell 115, elapsed: 0.0003409385681152344
ell 114, elapsed: 0.0003402233123779297
ell 113, elapsed: 0.0003409385681152344
ell 112, elapsed: 0.0003380775451660156
ell 111, elapsed: 0.0003781318664550781
ell 110, elapsed: 0.0003409385681152344
ell 109, elapsed: 0.00035190582275390625
ell 108, elapsed: 0.0003428459167480469
ell 107, elapsed: 0.0003368854522705078
ell 106, elapsed: 0.0003428459167480469
ell 105, elapsed: 0.00033593177795410156
ell 104, elapsed: 0.0003390312194824219
ell 103, elapsed: 0.00033783912658691406
ell 102, elapsed: 0.0003368854522705078
ell 101, elapsed: 0.0003390312194824219
ell 100, elapsed: 0.0003380775451660156
ell 99, elapsed: 0.00034117698669433594
ell 98, elapsed: 0.0004680156707763672
ell 97, elapsed: 0.0004868507385253906
ell 96, elapsed: 0.0006020069122314453
ell 95, elapsed: 0.0005340576171875
ell 94, elapsed: 0.0004210472106933594
ell 93, elapsed: 0.0004470348358154297
ell 92, elapsed: 0.00046181678771972656
ell 91, elapsed: 0.0004718303680419922
ell 90, elapsed: 0.0004639625549316406
ell 89, elapsed: 0.00043201446533203125
ell 88, elapsed: 0.00046896934509277344
ell 87, elapsed: 0.00047206878662109375
ell 86, elapsed: 0.0005209445953369141
ell 85, elapsed: 0.00045108795166015625
ell 84, elapsed: 0.0005350112915039062
ell 83, elapsed: 0.0005061626434326172
ell 82, elapsed: 0.0004291534423828125
ell 81, elapsed: 0.00047898292541503906
ell 80, elapsed: 0.000431060791015625
ell 79, elapsed: 0.0004849433898925781
ell 78, elapsed: 0.00045800209045410156
ell 77, elapsed: 0.0005428791046142578
ell 76, elapsed: 0.0004658699035644531
ell 75, elapsed: 0.0005600452423095703
ell 74, elapsed: 0.00047707557678222656
ell 73, elapsed: 0.0005319118499755859
ell 72, elapsed: 0.00042510032653808594
ell 71, elapsed: 0.0004858970642089844
ell 70, elapsed: 0.0004489421844482422
ell 69, elapsed: 0.00055694580078125
ell 68, elapsed: 0.00045990943908691406
ell 67, elapsed: 0.0005528926849365234
ell 66, elapsed: 0.00044417381286621094
ell 65, elapsed: 0.0005419254302978516
ell 64, elapsed: 0.0004360675811767578
ell 63, elapsed: 0.0004811286926269531
ell 62, elapsed: 0.00043201446533203125
ell 61, elapsed: 0.0004961490631103516
ell 60, elapsed: 0.0004210472106933594
ell 59, elapsed: 0.00048804283142089844
ell 58, elapsed: 0.0004489421844482422
ell 57, elapsed: 0.0005509853363037109
ell 56, elapsed: 0.00047087669372558594
ell 55, elapsed: 0.0005321502685546875
ell 54, elapsed: 0.0004470348358154297
ell 53, elapsed: 0.0004999637603759766
ell 52, elapsed: 0.0004930496215820312
ell 51, elapsed: 0.0005280971527099609
ell 50, elapsed: 0.00043010711669921875
ell 49, elapsed: 0.0004839897155761719
ell 48, elapsed: 0.00043487548828125
ell 47, elapsed: 0.0004889965057373047
ell 46, elapsed: 0.0004649162292480469
ell 45, elapsed: 0.0005331039428710938
ell 44, elapsed: 0.0004429817199707031
ell 43, elapsed: 0.0004680156707763672
ell 42, elapsed: 0.00043201446533203125
ell 41, elapsed: 0.00047206878662109375
ell 40, elapsed: 0.0004200935363769531
ell 39, elapsed: 0.00047397613525390625
ell 38, elapsed: 0.0004379749298095703
ell 37, elapsed: 0.0004799365997314453
ell 36, elapsed: 0.00047206878662109375
ell 35, elapsed: 0.0005178451538085938
ell 34, elapsed: 0.0004508495330810547
ell 33, elapsed: 0.0005419254302978516
ell 32, elapsed: 0.0004291534423828125
ell 31, elapsed: 0.00048089027404785156
ell 30, elapsed: 0.00043201446533203125
ell 29, elapsed: 0.0004858970642089844
ell 28, elapsed: 0.0004131793975830078
ell 27, elapsed: 0.0004849433898925781
ell 26, elapsed: 0.0004608631134033203
ell 25, elapsed: 0.0005440711975097656
ell 24, elapsed: 0.00041604042053222656
ell 23, elapsed: 0.0004990100860595703
ell 22, elapsed: 0.0004267692565917969
ell 21, elapsed: 0.00048089027404785156
ell 20, elapsed: 0.00045990943908691406
ell 19, elapsed: 0.0004849433898925781
ell 18, elapsed: 0.0004839897155761719
ell 17, elapsed: 0.00046896934509277344
ell 16, elapsed: 0.00046896934509277344
ell 15, elapsed: 0.0005178451538085938
ell 14, elapsed: 0.0004589557647705078
ell 13, elapsed: 0.00041794776916503906
ell 12, elapsed: 0.0004220008850097656
ell 11, elapsed: 0.00041604042053222656
ell 10, elapsed: 0.0004258155822753906
ell 9, elapsed: 0.0004508495330810547
ell 8, elapsed: 0.00046706199645996094
ell 7, elapsed: 0.004642009735107422
ell 6, elapsed: 0.0005791187286376953
ell 5, elapsed: 0.0005791187286376953
ell 4, elapsed: 0.0005941390991210938
ell 3, elapsed: 0.0005729198455810547
ell 2, elapsed: 0.0005819797515869141
ell 1, elapsed: 0.0005850791931152344
ell 0, elapsed: 0.000576019287109375
  0.595321 seconds (46.03 k allocations: 3.091 MiB)
elapsed: 0.0007641315460205078
step:          0.065724 sec (0 allocations: 0 byte, 0.0% gc time)
swapping:      0.000589 sec (0 allocations: 0 byte, 0.0% gc time)
calc_Mellell!: 0.008812 sec (0 allocations: 0 byte, 0.0% gc time)
  t0 :  0.001737 sec (0 allocations: 0 byte, 0.0% gc time)
  tm2 : 0.096531 sec (0 allocations: 0 byte, 0.0% gc time)
  tm2s: 0.001587 sec (0 allocations: 0 byte, 0.0% gc time)
  tm4 : 0.251185 sec (0 allocations: 0 byte, 0.0% gc time)
  tp2 : 0.0 sec (0 allocations: 0 byte, 0.0% gc time)
  tp2s: 0.0 sec (0 allocations: 0 byte, 0.0% gc time)
  tp4 : 0.0 sec (0 allocations: 0 byte, 0.0% gc time)
calc_wtdll!:   0.375881 sec (9.9 k allocations: 1.047 MB, 0.0% gc time)
calc_wljj!:    0.031615 sec (689 allocations: 10.766 KB, 0.0% gc time)
mult_prefac!:  0.0 sec (0 allocations: 0 byte, 0.0% gc time)
convert:       0.0 sec (0 allocations: 0 byte, 0.0% gc time)
write:         0.04286 sec (0 allocations: 0 byte, 0.0% gc time)
test_rand_2f1: 0.0 sec (0 allocations: 0 byte, 0.0% gc time)
Closing outfile out/Ml21-cache.bin...   0.000010 seconds
  0.000835 seconds (36 allocations: 27.953 KiB)
make_phi():   0.004881 seconds (8.18 k allocations: 237.844 KiB)
  0.163214 seconds (141.90 k allocations: 3.483 MiB)
tskip:       0.000801 sec (0 allocations: 0 byte, 0.0% gc time)
tread:       0.024082 sec (17 allocations: 10.641 KB, 0.0% gc time)
tmultphi:    0.011937 sec (0 allocations: 0 byte, 0.0% gc time)
tbrfft:      0.041886 sec (0 allocations: 0 byte, 0.0% gc time)
tmultprefac: 0.033328 sec (0 allocations: 0 byte, 0.0% gc time)
toutfunc:    0.047688 sec (127.507 k allocations: 2.312 MB, 0.0% gc time)
Testing R=1.0 ... passed
Calculating fmax: 
  dlrec    = 4
  dlrecRg1 = -4
  q=1.1, R=0.9:	  0.544101 seconds (105.76 k allocations: 15.287 MiB, 3.39% gc time)

  0.544447 seconds (105.82 k allocations: 15.321 MiB, 3.39% gc time)
ℓ = 1202
Δℓ = 4
ΔℓRg1 = -4
N = 1600
q = 1.1
kmin = 1.0e-5
kmax = 100000.00000000004
χ0 = 0.023029999999999995
RR = RR.tsv
ℓmax = ℓmax.bin
f21 = f21.bin
kmin = 1.0e-5
kmax = 100000.0
dlrec    = 4
dlrecRg1 = -4
Output size: 5741568 bytes = 0.005347251892089844 GiB
Output size: 51264 bytes = 4.774332046508789e-5 GiB
Reading 'out/F21EllCache'...   0.000923 seconds (197 allocations: 84.203 KiB)
ellmax: 1202
lmaxcache: 1202
fell[:,1,1] = ComplexF64[1.3482014726274674e-57 - 3.302141236118086e-73im, 1.357860004724329e-57 - 3.3257978169518355e-73im]
ell 1202, elapsed: 2.4080276489257812e-5
ell 1201, elapsed: 0.00029087066650390625
ell 1200, elapsed: 0.00026988983154296875
ell 1199, elapsed: 0.0002899169921875
ell 1198, elapsed: 0.00026607513427734375
ell 1002, elapsed: 0.009054183959960938
ell 1001, elapsed: 0.00029587745666503906
ell 1000, elapsed: 0.0002701282501220703
ell 999, elapsed: 0.00026607513427734375
ell 998, elapsed: 0.0002658367156982422
ell 902, elapsed: 0.004570960998535156
ell 901, elapsed: 0.0002779960632324219
ell 900, elapsed: 0.0002639293670654297
ell 899, elapsed: 0.0003979206085205078
ell 898, elapsed: 0.0004909038543701172
ell 802, elapsed: 0.008568048477172852
ell 801, elapsed: 0.0006430149078369141
ell 800, elapsed: 0.0006339550018310547
ell 799, elapsed: 0.0006430149078369141
ell 798, elapsed: 0.0008769035339355469
ell 702, elapsed: 0.008182048797607422
ell 701, elapsed: 0.0006589889526367188
ell 700, elapsed: 0.0006279945373535156
ell 699, elapsed: 0.0004298686981201172
ell 698, elapsed: 0.00040984153747558594
ell 602, elapsed: 0.007904052734375
ell 601, elapsed: 0.0005769729614257812
ell 600, elapsed: 0.0005750656127929688
ell 599, elapsed: 0.00055694580078125
ell 598, elapsed: 0.0005831718444824219
ell 502, elapsed: 0.008791923522949219
ell 501, elapsed: 0.00055694580078125
ell 500, elapsed: 0.0005831718444824219
ell 499, elapsed: 0.0005710124969482422
ell 498, elapsed: 0.0005700588226318359
ell 402, elapsed: 0.006254911422729492
ell 401, elapsed: 0.00042510032653808594
ell 400, elapsed: 0.00039196014404296875
ell 399, elapsed: 0.0003898143768310547
ell 398, elapsed: 0.00039196014404296875
ell 302, elapsed: 0.0061991214752197266
ell 301, elapsed: 0.00040912628173828125
ell 300, elapsed: 0.00039196014404296875
ell 299, elapsed: 0.00039196014404296875
ell 298, elapsed: 0.00039315223693847656
ell 202, elapsed: 0.005229949951171875
ell 201, elapsed: 0.0002799034118652344
ell 200, elapsed: 0.00026917457580566406
ell 199, elapsed: 0.0002810955047607422
ell 198, elapsed: 0.0002830028533935547
ell 152, elapsed: 0.0024721622467041016
ell 151, elapsed: 0.00027298927307128906
ell 150, elapsed: 0.00032806396484375
ell 149, elapsed: 0.00030803680419921875
ell 148, elapsed: 0.000308990478515625
ell 127, elapsed: 0.0013539791107177734
ell 126, elapsed: 0.0002739429473876953
ell 125, elapsed: 0.0002651214599609375
ell 124, elapsed: 0.00026416778564453125
ell 123, elapsed: 0.00027489662170410156
ell 114, elapsed: 0.0006659030914306641
ell 113, elapsed: 0.0002579689025878906
ell 112, elapsed: 0.0002560615539550781
ell 111, elapsed: 0.00030994415283203125
ell 110, elapsed: 0.00031685829162597656
ell 102, elapsed: 0.0006999969482421875
ell 101, elapsed: 0.00026798248291015625
ell 100, elapsed: 0.000270843505859375
ell 99, elapsed: 0.0002760887145996094
ell 98, elapsed: 0.0002682209014892578
ell 97, elapsed: 0.00031113624572753906
ell 96, elapsed: 0.0003001689910888672
ell 95, elapsed: 0.00030112266540527344
ell 94, elapsed: 0.0003008842468261719
ell 93, elapsed: 0.0003008842468261719
ell 92, elapsed: 0.0003819465637207031
ell 91, elapsed: 0.00034689903259277344
ell 90, elapsed: 0.00030112266540527344
ell 89, elapsed: 0.00029587745666503906
ell 88, elapsed: 0.0002999305725097656
ell 87, elapsed: 0.0002968311309814453
ell 86, elapsed: 0.0003559589385986328
ell 85, elapsed: 0.000331878662109375
ell 84, elapsed: 0.0003559589385986328
ell 83, elapsed: 0.0003330707550048828
ell 82, elapsed: 0.00032401084899902344
ell 81, elapsed: 0.0003581047058105469
ell 80, elapsed: 0.0003490447998046875
ell 79, elapsed: 0.0003509521484375
ell 78, elapsed: 0.00031280517578125
ell 77, elapsed: 0.00035309791564941406
ell 76, elapsed: 0.00033593177795410156
ell 75, elapsed: 0.0003390312194824219
ell 74, elapsed: 0.00031304359436035156
ell 73, elapsed: 0.00030803680419921875
ell 72, elapsed: 0.0002970695495605469
ell 71, elapsed: 0.0003108978271484375
ell 70, elapsed: 0.00031304359436035156
ell 69, elapsed: 0.00032711029052734375
ell 68, elapsed: 0.00030493736267089844
ell 67, elapsed: 0.00030684471130371094
ell 66, elapsed: 0.0003190040588378906
ell 65, elapsed: 0.0003120899200439453
ell 64, elapsed: 0.0003027915954589844
ell 63, elapsed: 0.00030112266540527344
ell 62, elapsed: 0.0003509521484375
ell 61, elapsed: 0.0003509521484375
ell 60, elapsed: 0.0003261566162109375
ell 59, elapsed: 0.00030493736267089844
ell 58, elapsed: 0.00036907196044921875
ell 57, elapsed: 0.0003600120544433594
ell 56, elapsed: 0.00034499168395996094
ell 55, elapsed: 0.000347137451171875
ell 54, elapsed: 0.0003559589385986328
ell 53, elapsed: 0.00035500526428222656
ell 52, elapsed: 0.0003199577331542969
ell 51, elapsed: 0.0003139972686767578
ell 50, elapsed: 0.0003108978271484375
ell 49, elapsed: 0.0004279613494873047
ell 48, elapsed: 0.000453948974609375
ell 47, elapsed: 0.00047898292541503906
ell 46, elapsed: 0.00045299530029296875
ell 45, elapsed: 0.00045800209045410156
ell 44, elapsed: 0.0004520416259765625
ell 43, elapsed: 0.0004551410675048828
ell 42, elapsed: 0.0004570484161376953
ell 41, elapsed: 0.0004558563232421875
ell 40, elapsed: 0.0004570484161376953
ell 39, elapsed: 0.00047707557678222656
ell 38, elapsed: 0.0004570484161376953
ell 37, elapsed: 0.0004611015319824219
ell 36, elapsed: 0.00045609474182128906
ell 35, elapsed: 0.0004601478576660156
ell 34, elapsed: 0.00045609474182128906
ell 33, elapsed: 0.0004589557647705078
ell 32, elapsed: 0.00046181678771972656
ell 31, elapsed: 0.00047087669372558594
ell 30, elapsed: 0.0004589557647705078
ell 29, elapsed: 0.0004570484161376953
ell 28, elapsed: 0.0004611015319824219
ell 27, elapsed: 0.0004570484161376953
ell 26, elapsed: 0.0004551410675048828
ell 25, elapsed: 0.00045800209045410156
ell 24, elapsed: 0.0004601478576660156
ell 23, elapsed: 0.00047516822814941406
ell 22, elapsed: 0.0004649162292480469
ell 21, elapsed: 0.00045609474182128906
ell 20, elapsed: 0.0004119873046875
ell 19, elapsed: 0.00039696693420410156
ell 18, elapsed: 0.00043892860412597656
ell 17, elapsed: 0.00045108795166015625
ell 16, elapsed: 0.00043487548828125
ell 15, elapsed: 0.0004520416259765625
ell 14, elapsed: 0.0004138946533203125
ell 13, elapsed: 0.0004069805145263672
ell 12, elapsed: 0.0004010200500488281
ell 11, elapsed: 0.0004010200500488281
ell 10, elapsed: 0.00041103363037109375
ell 9, elapsed: 0.0004010200500488281
ell 8, elapsed: 0.0004239082336425781
ell 7, elapsed: 0.00045013427734375
ell 6, elapsed: 0.0004138946533203125
ell 5, elapsed: 0.00041604042053222656
ell 4, elapsed: 0.0004410743713378906
ell 3, elapsed: 0.0004630088806152344
ell 2, elapsed: 0.0004570484161376953
ell 1, elapsed: 0.00045800209045410156
ell 0, elapsed: 0.0004050731658935547
  0.135924 seconds (11.51 k allocations: 719.594 KiB)
elapsed: 0.0004761219024658203
step:          0.07026 sec (0 allocations: 0 byte, 0.0% gc time)
swapping:      0.000552 sec (0 allocations: 0 byte, 0.0% gc time)
calc_Mellell!: 0.001122 sec (0 allocations: 0 byte, 0.0% gc time)
  t0 :  0.00027 sec (0 allocations: 0 byte, 0.0% gc time)
  tm2 : 0.013068 sec (0 allocations: 0 byte, 0.0% gc time)
  tm2s: 0.000257 sec (0 allocations: 0 byte, 0.0% gc time)
  tm4 : 0.032466 sec (0 allocations: 0 byte, 0.0% gc time)
  tp2 : 0.0 sec (0 allocations: 0 byte, 0.0% gc time)
  tp2s: 0.0 sec (0 allocations: 0 byte, 0.0% gc time)
  tp4 : 0.0 sec (0 allocations: 0 byte, 0.0% gc time)
calc_wtdll!:   0.046571 sec (1.344 k allocations: 147.0 KB, 0.0% gc time)
calc_wljj!:    0.002796 sec (6 allocations: 96 byte, 0.0% gc time)
mult_prefac!:  0.0 sec (0 allocations: 0 byte, 0.0% gc time)
convert:       0.0 sec (0 allocations: 0 byte, 0.0% gc time)
write:         0.003559 sec (0 allocations: 0 byte, 0.0% gc time)
test_rand_2f1: 0.0 sec (0 allocations: 0 byte, 0.0% gc time)
Closing outfile out/Ml21-cache.bin...   0.000007 seconds
  0.000377 seconds (36 allocations: 27.953 KiB)
make_phi():   0.002566 seconds (8.18 k allocations: 237.844 KiB)
  0.014372 seconds (11.65 k allocations: 308.688 KiB)
tskip:       1.6e-5 sec (0 allocations: 0 byte, 0.0% gc time)
tread:       0.002176 sec (17 allocations: 2.125 KB, 0.0% gc time)
tmultphi:    0.001058 sec (0 allocations: 0 byte, 0.0% gc time)
tbrfft:      0.00363 sec (0 allocations: 0 byte, 0.0% gc time)
tmultprefac: 0.003053 sec (0 allocations: 0 byte, 0.0% gc time)
toutfunc:    0.004211 sec (10.304 k allocations: 196.0 KB, 0.0% gc time)
Testing R=0.9 ... passed
Calculating fmax: 
  dlrec    = 4
  dlrecRg1 = -4
  q=1.1, R=0.8:	  0.429765 seconds (103.25 k allocations: 14.856 MiB)

  0.430032 seconds (103.30 k allocations: 14.890 MiB)
ℓ = 1202
Δℓ = 4
ΔℓRg1 = -4
N = 1600
q = 1.1
kmin = 1.0e-5
kmax = 100000.00000000004
χ0 = 0.023029999999999995
RR = RR.tsv
ℓmax = ℓmax.bin
f21 = f21.bin
kmin = 1.0e-5
kmax = 100000.0
dlrec    = 4
dlrecRg1 = -4
Output size: 5741568 bytes = 0.005347251892089844 GiB
Output size: 51264 bytes = 4.774332046508789e-5 GiB
Reading 'out/F21EllCache'...   0.000940 seconds (197 allocations: 84.203 KiB)
ellmax: 1202
lmaxcache: 1202
fell[:,1,1] = ComplexF64[7.519068145690986e-120 - 1.8416405474382574e-135im, 7.541664537386155e-120 - 1.847175067190611e-135im]
ell 1202, elapsed: 2.9087066650390625e-5
ell 1201, elapsed: 0.00037288665771484375
ell 1200, elapsed: 0.0003368854522705078
ell 1199, elapsed: 0.0003771781921386719
ell 1198, elapsed: 0.00034308433532714844
ell 1002, elapsed: 0.009706974029541016
ell 1001, elapsed: 0.00028896331787109375
ell 1000, elapsed: 0.0002720355987548828
ell 999, elapsed: 0.0002658367156982422
ell 998, elapsed: 0.00031304359436035156
ell 902, elapsed: 0.005420207977294922
ell 901, elapsed: 0.00046706199645996094
ell 900, elapsed: 0.00045490264892578125
ell 899, elapsed: 0.00045609474182128906
ell 898, elapsed: 0.0004589557647705078
ell 802, elapsed: 0.0069158077239990234
ell 801, elapsed: 0.0004589557647705078
ell 800, elapsed: 0.00046515464782714844
ell 799, elapsed: 0.00045800209045410156
ell 798, elapsed: 0.0004658699035644531
ell 702, elapsed: 0.006292819976806641
ell 701, elapsed: 0.0004508495330810547
ell 700, elapsed: 0.0004630088806152344
ell 699, elapsed: 0.0004069805145263672
ell 698, elapsed: 0.000431060791015625
ell 602, elapsed: 0.006208181381225586
ell 601, elapsed: 0.00045180320739746094
ell 600, elapsed: 0.00045990943908691406
ell 599, elapsed: 0.0004589557647705078
ell 598, elapsed: 0.0004069805145263672
ell 502, elapsed: 0.005460023880004883
ell 501, elapsed: 0.0004448890686035156
ell 500, elapsed: 0.0004642009735107422
ell 499, elapsed: 0.00045800209045410156
ell 498, elapsed: 0.00041103363037109375
ell 402, elapsed: 0.006237983703613281
ell 401, elapsed: 0.00045800209045410156
ell 400, elapsed: 0.0004639625549316406
ell 399, elapsed: 0.000453948974609375
ell 398, elapsed: 0.0004239082336425781
ell 302, elapsed: 0.0062558650970458984
ell 301, elapsed: 0.0004589557647705078
ell 300, elapsed: 0.0004661083221435547
ell 299, elapsed: 0.0004050731658935547
ell 298, elapsed: 0.00047588348388671875
ell 202, elapsed: 0.004651069641113281
ell 201, elapsed: 0.0002880096435546875
ell 200, elapsed: 0.00027489662170410156
ell 199, elapsed: 0.0003180503845214844
ell 198, elapsed: 0.0003018379211425781
ell 152, elapsed: 0.002384185791015625
ell 151, elapsed: 0.00026988983154296875
ell 150, elapsed: 0.0002720355987548828
ell 149, elapsed: 0.00026106834411621094
ell 148, elapsed: 0.00026917457580566406
ell 127, elapsed: 0.0012629032135009766
ell 126, elapsed: 0.00039196014404296875
ell 125, elapsed: 0.00040411949157714844
ell 124, elapsed: 0.0003960132598876953
ell 123, elapsed: 0.0003910064697265625
ell 114, elapsed: 0.0009510517120361328
ell 113, elapsed: 0.00039386749267578125
ell 112, elapsed: 0.0003910064697265625
ell 111, elapsed: 0.0003910064697265625
ell 110, elapsed: 0.0003960132598876953
ell 102, elapsed: 0.0009050369262695312
ell 101, elapsed: 0.0003910064697265625
ell 100, elapsed: 0.00039196014404296875
ell 99, elapsed: 0.000392913818359375
ell 98, elapsed: 0.00038909912109375
ell 97, elapsed: 0.0004642009735107422
ell 96, elapsed: 0.00045490264892578125
ell 95, elapsed: 0.0004611015319824219
ell 94, elapsed: 0.00047206878662109375
ell 93, elapsed: 0.0004630088806152344
ell 92, elapsed: 0.00045609474182128906
ell 91, elapsed: 0.0004630088806152344
ell 90, elapsed: 0.00046706199645996094
ell 89, elapsed: 0.00045609474182128906
ell 88, elapsed: 0.0004649162292480469
ell 87, elapsed: 0.00045299530029296875
ell 86, elapsed: 0.00047898292541503906
ell 85, elapsed: 0.00045609474182128906
ell 84, elapsed: 0.0004558563232421875
ell 83, elapsed: 0.00045800209045410156
ell 82, elapsed: 0.00043892860412597656
ell 81, elapsed: 0.0003609657287597656
ell 80, elapsed: 0.00033283233642578125
ell 79, elapsed: 0.00031304359436035156
ell 78, elapsed: 0.00031685829162597656
ell 77, elapsed: 0.0003108978271484375
ell 76, elapsed: 0.00032591819763183594
ell 75, elapsed: 0.0003108978271484375
ell 74, elapsed: 0.0003139972686767578
ell 73, elapsed: 0.0003199577331542969
ell 72, elapsed: 0.00031304359436035156
ell 71, elapsed: 0.0003180503845214844
ell 70, elapsed: 0.0003120899200439453
ell 69, elapsed: 0.00031113624572753906
ell 68, elapsed: 0.0003180503845214844
ell 67, elapsed: 0.0003209114074707031
ell 66, elapsed: 0.00032401084899902344
ell 65, elapsed: 0.00030493736267089844
ell 64, elapsed: 0.00032019615173339844
ell 63, elapsed: 0.0003159046173095703
ell 62, elapsed: 0.0003070831298828125
ell 61, elapsed: 0.0003120899200439453
ell 60, elapsed: 0.00030803680419921875
ell 59, elapsed: 0.0003070831298828125
ell 58, elapsed: 0.00030803680419921875
ell 57, elapsed: 0.0003020763397216797
ell 56, elapsed: 0.0003101825714111328
ell 55, elapsed: 0.0003170967102050781
ell 54, elapsed: 0.0003190040588378906
ell 53, elapsed: 0.0003790855407714844
ell 52, elapsed: 0.00037789344787597656
ell 51, elapsed: 0.0003261566162109375
ell 50, elapsed: 0.0003249645233154297
ell 49, elapsed: 0.0003421306610107422
ell 48, elapsed: 0.00038504600524902344
[...]
ell 790, elapsed: 0.0011088848114013672
ell 789, elapsed: 0.0009329319000244141
ell 788, elapsed: 0.0011730194091796875
ell 782, elapsed: 0.0036950111389160156
ell 781, elapsed: 0.0017230510711669922
ell 780, elapsed: 0.0015180110931396484
ell 779, elapsed: 0.0015230178833007812
ell 778, elapsed: 0.0015091896057128906
ell 772, elapsed: 0.002897977828979492
ell 771, elapsed: 0.0015120506286621094
ell 770, elapsed: 0.009464025497436523
ell 769, elapsed: 0.0015339851379394531
ell 768, elapsed: 0.0015239715576171875
ell 762, elapsed: 0.002917051315307617
ell 761, elapsed: 0.004316091537475586
ell 760, elapsed: 0.0014891624450683594
ell 759, elapsed: 0.00146484375
ell 758, elapsed: 0.0014538764953613281
ell 752, elapsed: 0.007946014404296875
ell 751, elapsed: 0.0020630359649658203
ell 750, elapsed: 0.0020520687103271484
ell 749, elapsed: 0.001463174819946289
ell 748, elapsed: 0.0030260086059570312
ell 742, elapsed: 0.004278898239135742
ell 741, elapsed: 0.0019822120666503906
ell 740, elapsed: 0.0019659996032714844
ell 739, elapsed: 0.0023469924926757812
ell 738, elapsed: 0.002371072769165039
ell 732, elapsed: 0.0029900074005126953
ell 731, elapsed: 0.0014188289642333984
ell 730, elapsed: 0.0014090538024902344
ell 729, elapsed: 0.0015020370483398438
ell 728, elapsed: 0.0015821456909179688
ell 722, elapsed: 0.0029811859130859375
ell 721, elapsed: 0.001622915267944336
ell 720, elapsed: 0.0012159347534179688
ell 719, elapsed: 0.0010590553283691406
ell 718, elapsed: 0.0010471343994140625
ell 712, elapsed: 0.0020668506622314453
ell 711, elapsed: 0.0012722015380859375
ell 710, elapsed: 0.005352020263671875
ell 709, elapsed: 0.0012819766998291016
ell 708, elapsed: 0.0012760162353515625
ell 702, elapsed: 0.002763032913208008
ell 701, elapsed: 0.0012691020965576172
ell 700, elapsed: 0.0019040107727050781
ell 699, elapsed: 0.0012540817260742188
ell 698, elapsed: 0.0012769699096679688
ell 692, elapsed: 0.002839803695678711
ell 691, elapsed: 0.0011250972747802734
ell 690, elapsed: 0.0018820762634277344
ell 689, elapsed: 0.0012631416320800781
ell 688, elapsed: 0.005606174468994141
ell 682, elapsed: 0.0024700164794921875
ell 681, elapsed: 0.0020020008087158203
ell 680, elapsed: 0.0012900829315185547
ell 679, elapsed: 0.0018589496612548828
ell 678, elapsed: 0.0012769699096679688
ell 672, elapsed: 0.0027618408203125
ell 671, elapsed: 0.0008718967437744141
ell 670, elapsed: 0.0008809566497802734
ell 669, elapsed: 0.0008509159088134766
ell 668, elapsed: 0.0014619827270507812
ell 662, elapsed: 0.0017600059509277344
ell 661, elapsed: 0.000762939453125
ell 660, elapsed: 0.0017819404602050781
ell 659, elapsed: 0.0012619495391845703
ell 658, elapsed: 0.0019178390502929688
ell 652, elapsed: 0.002176046371459961
ell 651, elapsed: 0.0018579959869384766
ell 650, elapsed: 0.0012710094451904297
ell 649, elapsed: 0.0008490085601806641
ell 648, elapsed: 0.0014758110046386719
ell 642, elapsed: 0.001561880111694336
ell 641, elapsed: 0.0008800029754638672
ell 640, elapsed: 0.001834869384765625
ell 639, elapsed: 0.0012600421905517578
ell 638, elapsed: 0.0012660026550292969
ell 632, elapsed: 0.002434968948364258
ell 631, elapsed: 0.0018150806427001953
ell 630, elapsed: 0.0012738704681396484
ell 629, elapsed: 0.0012700557708740234
ell 628, elapsed: 0.0018639564514160156
ell 622, elapsed: 0.002007007598876953
ell 621, elapsed: 0.0014750957489013672
ell 620, elapsed: 0.0008671283721923828
ell 619, elapsed: 0.0008440017700195312
ell 618, elapsed: 0.0008478164672851562
ell 612, elapsed: 0.0025169849395751953
ell 611, elapsed: 0.0007879734039306641
ell 610, elapsed: 0.0013689994812011719
ell 609, elapsed: 0.0007679462432861328
ell 608, elapsed: 0.0007691383361816406
ell 602, elapsed: 0.0013790130615234375
ell 601, elapsed: 0.0017731189727783203
ell 600, elapsed: 0.0010459423065185547
ell 599, elapsed: 0.0010309219360351562
ell 598, elapsed: 0.001986980438232422
ell 592, elapsed: 0.0021347999572753906
ell 591, elapsed: 0.0017249584197998047
ell 590, elapsed: 0.0011241436004638672
ell 589, elapsed: 0.0017390251159667969
ell 588, elapsed: 0.0012629032135009766
ell 582, elapsed: 0.0028579235076904297
ell 581, elapsed: 0.0011250972747802734
ell 580, elapsed: 0.0008330345153808594
ell 579, elapsed: 0.0007600784301757812
ell 578, elapsed: 0.0013649463653564453
ell 572, elapsed: 0.00138092041015625
ell 571, elapsed: 0.0007569789886474609
ell 570, elapsed: 0.0014998912811279297
ell 569, elapsed: 0.0011119842529296875
ell 568, elapsed: 0.0012078285217285156
ell 562, elapsed: 0.003162860870361328
ell 561, elapsed: 0.0019009113311767578
ell 560, elapsed: 0.0012929439544677734
ell 559, elapsed: 0.0012881755828857422
ell 558, elapsed: 0.001867055892944336
ell 552, elapsed: 0.001967906951904297
ell 551, elapsed: 0.0014460086822509766
ell 550, elapsed: 0.0008490085601806641
ell 549, elapsed: 0.0008590221405029297
ell 548, elapsed: 0.0008580684661865234
ell 542, elapsed: 0.002871990203857422
ell 541, elapsed: 0.0011219978332519531
ell 540, elapsed: 0.0018320083618164062
ell 539, elapsed: 0.001127004623413086
ell 538, elapsed: 0.0011250972747802734
ell 532, elapsed: 0.0024340152740478516
ell 531, elapsed: 0.001811981201171875
ell 530, elapsed: 0.0010058879852294922
ell 529, elapsed: 0.0007600784301757812
ell 528, elapsed: 0.0007729530334472656
ell 522, elapsed: 0.0019729137420654297
ell 521, elapsed: 0.0008800029754638672
ell 520, elapsed: 0.0007801055908203125
ell 519, elapsed: 0.0014560222625732422
ell 518, elapsed: 0.0011467933654785156
ell 512, elapsed: 0.0029201507568359375
ell 511, elapsed: 0.0012619495391845703
ell 510, elapsed: 0.0012650489807128906
ell 509, elapsed: 0.00185394287109375
ell 508, elapsed: 0.001271963119506836
ell 502, elapsed: 0.0021278858184814453
ell 501, elapsed: 0.0010609626770019531
ell 500, elapsed: 0.0010530948638916016
ell 499, elapsed: 0.0010581016540527344
ell 498, elapsed: 0.0010538101196289062
ell 492, elapsed: 0.0018630027770996094
ell 491, elapsed: 0.001077890396118164
ell 490, elapsed: 0.0010509490966796875
ell 489, elapsed: 0.001049041748046875
ell 488, elapsed: 0.001055002212524414
ell 482, elapsed: 0.001912832260131836
ell 481, elapsed: 0.0010650157928466797
ell 480, elapsed: 0.001065969467163086
ell 479, elapsed: 0.0010612010955810547
ell 478, elapsed: 0.0010571479797363281
ell 472, elapsed: 0.0019071102142333984
ell 471, elapsed: 0.0010540485382080078
ell 470, elapsed: 0.0010530948638916016
ell 469, elapsed: 0.0010499954223632812
ell 468, elapsed: 0.0015840530395507812
ell 462, elapsed: 0.0018718242645263672
ell 461, elapsed: 0.0010650157928466797
ell 460, elapsed: 0.0010480880737304688
ell 459, elapsed: 0.0010459423065185547
ell 458, elapsed: 0.001051187515258789
ell 452, elapsed: 0.004739999771118164
ell 451, elapsed: 0.0011479854583740234
ell 450, elapsed: 0.0012660026550292969
ell 449, elapsed: 0.0012531280517578125
ell 448, elapsed: 0.001260995864868164
ell 442, elapsed: 0.0023550987243652344
ell 441, elapsed: 0.0012879371643066406
ell 440, elapsed: 0.001283884048461914
ell 439, elapsed: 0.0012848377227783203
ell 438, elapsed: 0.0012631416320800781
ell 432, elapsed: 0.002340078353881836
ell 431, elapsed: 0.0012860298156738281
ell 430, elapsed: 0.0012919902801513672
ell 429, elapsed: 0.0012919902801513672
ell 428, elapsed: 0.0012700557708740234
ell 422, elapsed: 0.0023479461669921875
ell 421, elapsed: 0.0012969970703125
ell 420, elapsed: 0.0012700557708740234
ell 419, elapsed: 0.0012791156768798828
ell 418, elapsed: 0.0012900829315185547
ell 412, elapsed: 0.002362966537475586
ell 411, elapsed: 0.0012891292572021484
ell 410, elapsed: 0.001277923583984375
ell 409, elapsed: 0.0012750625610351562
ell 408, elapsed: 0.001280069351196289
ell 402, elapsed: 0.0023431777954101562
ell 401, elapsed: 0.001280069351196289
ell 400, elapsed: 0.0012750625610351562
ell 399, elapsed: 0.0012710094451904297
ell 398, elapsed: 0.0012969970703125
ell 392, elapsed: 0.0023241043090820312
ell 391, elapsed: 0.0012788772583007812
ell 390, elapsed: 0.0012669563293457031
ell 389, elapsed: 0.0012710094451904297
ell 388, elapsed: 0.0012907981872558594
ell 382, elapsed: 0.0023260116577148438
ell 381, elapsed: 0.0012929439544677734
ell 380, elapsed: 0.0012729167938232422
ell 379, elapsed: 0.0012710094451904297
ell 378, elapsed: 0.001283884048461914
ell 372, elapsed: 0.002335071563720703
ell 371, elapsed: 0.0012760162353515625
ell 370, elapsed: 0.00127410888671875
ell 369, elapsed: 0.0012669563293457031
ell 368, elapsed: 0.0012631416320800781
ell 362, elapsed: 0.0023229122161865234
ell 361, elapsed: 0.0012688636779785156
ell 360, elapsed: 0.0013041496276855469
ell 359, elapsed: 0.001283884048461914
ell 358, elapsed: 0.0009870529174804688
ell 352, elapsed: 0.0017650127410888672
ell 351, elapsed: 0.0009610652923583984
ell 350, elapsed: 0.0009620189666748047
ell 349, elapsed: 0.00096893310546875
ell 348, elapsed: 0.0009629726409912109
ell 342, elapsed: 0.0017440319061279297
ell 341, elapsed: 0.0009620189666748047
ell 340, elapsed: 0.0008299350738525391
ell 339, elapsed: 0.0008599758148193359
ell 338, elapsed: 0.0009088516235351562
ell 332, elapsed: 0.001241922378540039
ell 331, elapsed: 0.0005831718444824219
ell 330, elapsed: 0.0005841255187988281
ell 329, elapsed: 0.0005748271942138672
ell 328, elapsed: 0.000579833984375
ell 322, elapsed: 0.0010328292846679688
ell 321, elapsed: 0.0008699893951416016
ell 320, elapsed: 0.0013508796691894531
ell 319, elapsed: 0.001466989517211914
ell 318, elapsed: 0.0015079975128173828
ell 312, elapsed: 0.002808094024658203
ell 311, elapsed: 0.0014858245849609375
ell 310, elapsed: 0.0014958381652832031
ell 309, elapsed: 0.0015120506286621094
ell 308, elapsed: 0.001394033432006836
ell 302, elapsed: 0.0023508071899414062
ell 301, elapsed: 0.0012619495391845703
ell 300, elapsed: 0.001271963119506836
ell 299, elapsed: 0.0012819766998291016
ell 298, elapsed: 0.001268148422241211
ell 292, elapsed: 0.0023250579833984375
ell 291, elapsed: 0.0012722015380859375
ell 290, elapsed: 0.0012731552124023438
ell 289, elapsed: 0.0012311935424804688
ell 288, elapsed: 0.0012600421905517578
ell 282, elapsed: 0.0023491382598876953
ell 281, elapsed: 0.0012781620025634766
ell 280, elapsed: 0.0012748241424560547
ell 279, elapsed: 0.0012850761413574219
ell 278, elapsed: 0.0012822151184082031
ell 272, elapsed: 0.0015840530395507812
ell 271, elapsed: 0.0008392333984375
ell 270, elapsed: 0.0008959770202636719
ell 269, elapsed: 0.000843048095703125
ell 268, elapsed: 0.0008909702301025391
ell 262, elapsed: 0.0015327930450439453
ell 261, elapsed: 0.0008940696716308594
ell 260, elapsed: 0.001007080078125
ell 259, elapsed: 0.0012438297271728516
ell 258, elapsed: 0.001280069351196289
ell 252, elapsed: 0.002315998077392578
ell 251, elapsed: 0.0012640953063964844
ell 250, elapsed: 0.0011510848999023438
ell 249, elapsed: 0.0012640953063964844
ell 248, elapsed: 0.0012729167938232422
ell 242, elapsed: 0.0023190975189208984
ell 241, elapsed: 0.0012788772583007812
ell 240, elapsed: 0.001264810562133789
ell 239, elapsed: 0.0012729167938232422
ell 238, elapsed: 0.0012900829315185547
ell 232, elapsed: 0.0023751258850097656
ell 231, elapsed: 0.001271963119506836
ell 230, elapsed: 0.0013070106506347656
ell 229, elapsed: 0.0013208389282226562
ell 228, elapsed: 0.0012989044189453125
ell 222, elapsed: 0.002374887466430664
ell 221, elapsed: 0.0012950897216796875
ell 220, elapsed: 0.0012979507446289062
ell 219, elapsed: 0.0012898445129394531
ell 218, elapsed: 0.001094818115234375
ell 212, elapsed: 0.0016641616821289062
ell 211, elapsed: 0.0009100437164306641
ell 210, elapsed: 0.000904083251953125
ell 209, elapsed: 0.0009140968322753906
ell 208, elapsed: 0.0009059906005859375
ell 202, elapsed: 0.0012938976287841797
ell 201, elapsed: 0.0006158351898193359
ell 200, elapsed: 0.0006198883056640625
ell 199, elapsed: 0.0006110668182373047
ell 198, elapsed: 0.0006129741668701172
ell 192, elapsed: 0.0010859966278076172
ell 191, elapsed: 0.0006120204925537109
ell 190, elapsed: 0.0006008148193359375
ell 189, elapsed: 0.0005829334259033203
ell 188, elapsed: 0.0005869865417480469
ell 182, elapsed: 0.0010509490966796875
ell 181, elapsed: 0.0005891323089599609
ell 180, elapsed: 0.0005888938903808594
ell 179, elapsed: 0.0006031990051269531
ell 178, elapsed: 0.0005879402160644531
ell 172, elapsed: 0.0010559558868408203
ell 171, elapsed: 0.0005929470062255859
ell 170, elapsed: 0.0005910396575927734
ell 169, elapsed: 0.0005879402160644531
ell 168, elapsed: 0.0009150505065917969
ell 162, elapsed: 0.0019412040710449219
ell 161, elapsed: 0.001062154769897461
ell 160, elapsed: 0.001199960708618164
ell 159, elapsed: 0.0010161399841308594
ell 158, elapsed: 0.001241922378540039
ell 152, elapsed: 0.0018439292907714844
ell 151, elapsed: 0.0013620853424072266
ell 150, elapsed: 0.001257181167602539
ell 149, elapsed: 0.0010340213775634766
ell 148, elapsed: 0.0012469291687011719
ell 142, elapsed: 0.0016770362854003906
ell 141, elapsed: 0.0012271404266357422
ell 140, elapsed: 0.001264810562133789
ell 139, elapsed: 0.001013040542602539
ell 138, elapsed: 0.001277923583984375
ell 132, elapsed: 0.0023441314697265625
ell 131, elapsed: 0.0012810230255126953
ell 130, elapsed: 0.0012519359588623047
ell 129, elapsed: 0.0012698173522949219
ell 128, elapsed: 0.0012810230255126953
ell 122, elapsed: 0.0023839473724365234
ell 121, elapsed: 0.0013079643249511719
ell 120, elapsed: 0.0012669563293457031
ell 119, elapsed: 0.001271963119506836
ell 118, elapsed: 0.0012848377227783203
ell 112, elapsed: 0.0023641586303710938
ell 111, elapsed: 0.0012819766998291016
ell 110, elapsed: 0.0012671947479248047
ell 109, elapsed: 0.0012629032135009766
ell 108, elapsed: 0.0012848377227783203
ell 102, elapsed: 0.002331972122192383
ell 101, elapsed: 0.00501704216003418
ell 100, elapsed: 0.004948139190673828
ell 99, elapsed: 0.004956960678100586
ell 98, elapsed: 0.005254983901977539
ell 92, elapsed: 0.008809089660644531
ell 91, elapsed: 0.004770040512084961
ell 90, elapsed: 0.003940105438232422
ell 89, elapsed: 0.0032379627227783203
ell 88, elapsed: 0.002415180206298828
ell 82, elapsed: 0.004973888397216797
ell 81, elapsed: 0.0032019615173339844
ell 80, elapsed: 0.0032889842987060547
ell 79, elapsed: 0.0030241012573242188
ell 78, elapsed: 0.003216981887817383
ell 72, elapsed: 0.005820035934448242
ell 71, elapsed: 0.0029871463775634766
ell 70, elapsed: 0.0030999183654785156
ell 69, elapsed: 0.003209829330444336
ell 68, elapsed: 0.0029828548431396484
ell 62, elapsed: 0.005939006805419922
ell 61, elapsed: 0.003525972366333008
ell 60, elapsed: 0.0034639835357666016
ell 59, elapsed: 0.0034449100494384766
ell 58, elapsed: 0.003525972366333008
ell 52, elapsed: 0.006121158599853516
ell 51, elapsed: 0.0031850337982177734
ell 50, elapsed: 0.003637075424194336
ell 49, elapsed: 0.0034570693969726562
ell 48, elapsed: 0.0035021305084228516
ell 42, elapsed: 0.006640195846557617
ell 41, elapsed: 0.0037851333618164062
ell 40, elapsed: 0.003584146499633789
ell 39, elapsed: 0.0037131309509277344
ell 38, elapsed: 0.003361940383911133
ell 32, elapsed: 0.006233930587768555
ell 31, elapsed: 0.0033500194549560547
ell 30, elapsed: 0.0032629966735839844
ell 29, elapsed: 0.0032508373260498047
ell 28, elapsed: 0.0032889842987060547
ell 22, elapsed: 0.007296085357666016
ell 21, elapsed: 0.003525972366333008
ell 20, elapsed: 0.003240823745727539
ell 19, elapsed: 0.003654956817626953
ell 18, elapsed: 0.003426790237426758
ell 12, elapsed: 0.007033824920654297
ell 11, elapsed: 0.004560947418212891
ell 10, elapsed: 0.004110097885131836
ell 9, elapsed: 0.004379987716674805
ell 8, elapsed: 0.004029035568237305
  1.040021 seconds (68.56 k allocations: 12.176 MiB)
elapsed: 0.004868030548095703
step:          0.072692 sec (0 allocations: 0 byte, 0.0% gc time)
swapping:      0.00092 sec (0 allocations: 0 byte, 0.0% gc time)
calc_Mellell!: 0.051647 sec (0 allocations: 0 byte, 0.0% gc time)
  t0 :  0.015388 sec (0 allocations: 0 byte, 0.0% gc time)
  tm2 : 0.096265 sec (0 allocations: 0 byte, 0.0% gc time)
  tm2s: 0.011417 sec (0 allocations: 0 byte, 0.0% gc time)
  tm4 : 0.2125 sec (0 allocations: 0 byte, 0.0% gc time)
  tp2 : 0.0 sec (0 allocations: 0 byte, 0.0% gc time)
  tp2s: 0.0 sec (0 allocations: 0 byte, 0.0% gc time)
  tp4 : 0.0 sec (0 allocations: 0 byte, 0.0% gc time)
calc_wtdll!:   0.72206 sec (48.6 k allocations: 11.096 MB, 0.0% gc time)
calc_wljj!:    0.043292 sec (69 allocations: 1.078 KB, 0.0% gc time)
mult_prefac!:  0.0 sec (0 allocations: 0 byte, 0.0% gc time)
convert:       0.0 sec (0 allocations: 0 byte, 0.0% gc time)
write:         0.050399 sec (0 allocations: 0 byte, 0.0% gc time)
test_rand_2f1: 0.0 sec (0 allocations: 0 byte, 0.0% gc time)
Closing outfile out/MlCache/MlCache.bin...   0.000009 seconds
xi, l=0, nu=0:   0.360888 seconds (603.03 k allocations: 32.974 MiB)
xi, l=0, nu=-2:  0.002513 seconds (114 allocations: 148.969 KiB)
Created 'out/xi.tsv'.
  q=1.1, R=0.6:	  0.945696 seconds (264.51 k allocations: 38.097 MiB, 5.82% gc time)
  q=1.1, R=0.7:	  1.051471 seconds (276.48 k allocations: 40.118 MiB, 4.44% gc time)
  q=1.1, R=0.8:	  1.071037 seconds (271.73 k allocations: 39.310 MiB, 3.96% gc time)
  q=1.1, R=0.9:	  1.164064 seconds (266.62 k allocations: 38.459 MiB, 1.45% gc time)
  q=1.1, R=0.998:	 20.041276 seconds (114.96 k allocations: 7.588 MiB)
  q=1.1, R=1.0:	  0.004851 seconds (8.20 k allocations: 704.344 KiB)

ℓ = 1000
Δℓ = 4
ΔℓRg1 = -4
N = 4096
q = 1.1
kmin = 1.0e-5
kmax = 1000.0
χ0 = 0.001
RR = RR.tsv
ℓmax = ℓmax.bin
f21 = f21.bin
kmin = 1.0e-5
kmax = 1000.0
dlrec    = 4
dlrecRg1 = -4
Output size: 1573632 bytes = 0.0014655590057373047 GiB
Output size: 786816 bytes = 0.0007327795028686523 GiB
Reading 'out/F21EllCache'...   0.001687 seconds (198 allocations: 533.078 KiB)
ellmax: 1002
lmaxcache: 1000
fell[:,1,1] = ComplexF64[1.726292812820208e-224 - 4.2281979352226965e-240im, 1.7282693092099638e-224 - 4.233038955177178e-240im]
ell 1002, elapsed: 5.3882598876953125e-5
ell 1001, elapsed: 0.001461029052734375
ell 1000, elapsed: 0.0011920928955078125
ell 999, elapsed: 0.006777048110961914
ell 998, elapsed: 0.005990028381347656
ell 44, elapsed: 0.7063179016113281
ell 43, elapsed: 0.0054988861083984375
ell 42, elapsed: 0.00530695915222168
ell 41, elapsed: 0.005532979965209961
ell 40, elapsed: 0.005461931228637695
  0.750475 seconds (4.59 k allocations: 322.266 KiB)
elapsed: 0.006509065628051758
step:          0.702287 sec (0 allocations: 0 byte, 0.0% gc time)
swapping:      0.000447 sec (0 allocations: 0 byte, 0.0% gc time)
calc_Mellell!: 0.001291 sec (0 allocations: 0 byte, 0.0% gc time)
  t0 :  0.000754 sec (0 allocations: 0 byte, 0.0% gc time)
  tm2 : 0.009801 sec (0 allocations: 0 byte, 0.0% gc time)
  tm2s: 0.000677 sec (0 allocations: 0 byte, 0.0% gc time)
  tm4 : 0.02916 sec (0 allocations: 0 byte, 0.0% gc time)
  tp2 : 0.0 sec (0 allocations: 0 byte, 0.0% gc time)
  tp2s: 0.0 sec (0 allocations: 0 byte, 0.0% gc time)
  tp4 : 0.0 sec (0 allocations: 0 byte, 0.0% gc time)
calc_wtdll!:   0.040648 sec (480 allocations: 52.5 KB, 0.0% gc time)
calc_wljj!:    0.0015 sec (1 allocations: 16 byte, 0.0% gc time)
mult_prefac!:  0.0 sec (0 allocations: 0 byte, 0.0% gc time)
convert:       0.0 sec (0 allocations: 0 byte, 0.0% gc time)
write:         0.000991 sec (0 allocations: 0 byte, 0.0% gc time)
test_rand_2f1: 0.0 sec (0 allocations: 0 byte, 0.0% gc time)
Closing outfile out/MlCache/MlCache.bin...   0.000007 seconds
  0.518262 seconds (38 allocations: 66.859 KiB)
make_phi():   0.012155 seconds (65 allocations: 275.984 KiB)
  0.048864 seconds (11.42 k allocations: 711.851 KiB)
tskip:       1.0e-6 sec (0 allocations: 0 byte, 0.0% gc time)
tread:       0.000791 sec (17 allocations: 1.266 KB, 0.0% gc time)
tmultphi:    0.000485 sec (0 allocations: 0 byte, 0.0% gc time)
tbrfft:      0.001733 sec (0 allocations: 0 byte, 0.0% gc time)
tmultprefac: 0.001501 sec (0 allocations: 0 byte, 0.0% gc time)
toutfunc:    0.000294 sec (0 allocations: 0 byte, 0.0% gc time)
Created 'out/wl42_jj00.tsv'.
Created 'out/wl42_jj02.tsv'.
    Testing TwoFAST tests passed 
