Julia Version 1.6.0-DEV.1155
Commit c12ef833fc (2020-10-08 05:46 UTC)
Platform Info:
  OS: Linux (x86_64-linux-gnu)
  CPU: AMD EPYC 7502 32-Core Processor
  WORD_SIZE: 64
  LIBM: libopenlibm
  LLVM: libLLVM-10.0.1 (ORCJIT, znver2)
Environment:
  JULIA_DEPOT_PATH = ::/usr/local/share/julia
  JULIA_NUM_THREADS = 2

  Resolving package versions...
  Installed GenericSVD ─────────────────── v0.3.0
  Installed IntelOpenMP_jll ────────────── v2018.0.3+0
  Installed FFTW_jll ───────────────────── v3.3.9+5
  Installed Reexport ───────────────────── v0.2.0
  Installed OpenSpecFun_jll ────────────── v0.5.3+3
  Installed CompilerSupportLibraries_jll ─ v0.3.3+0
  Installed GenericSchur ───────────────── v0.4.0
  Installed Readables ──────────────────── v0.3.3
  Installed TwoFAST ────────────────────── v0.1.3
  Installed MKL_jll ────────────────────── v2020.2.254+0
  Installed AbstractFFTs ───────────────── v0.5.0
  Installed SpecialFunctions ───────────── v0.10.3
  Installed BinaryProvider ─────────────── v0.5.10
  Installed FFTW ───────────────────────── v1.2.4
  Installed ArbNumerics ────────────────── v1.2.1
Updating `~/.julia/environments/v1.6/Project.toml`
  [0dd23c3e] + TwoFAST v0.1.3
Updating `~/.julia/environments/v1.6/Manifest.toml`
  [621f4979] + AbstractFFTs v0.5.0
  [7e558dbc] + ArbNumerics v1.2.1
  [b99e7846] + BinaryProvider v0.5.10
  [e66e0078] + CompilerSupportLibraries_jll v0.3.3+0
  [7a1cc6ca] + FFTW v1.2.4
  [f5851436] + FFTW_jll v3.3.9+5
  [01680d73] + GenericSVD v0.3.0
  [c145ed77] + GenericSchur v0.4.0
  [1d5cc7b8] + IntelOpenMP_jll v2018.0.3+0
  [856f044c] + MKL_jll v2020.2.254+0
  [efe28fd5] + OpenSpecFun_jll v0.5.3+3
  [0d4725de] + Readables v0.3.3
  [189a3867] + Reexport v0.2.0
  [276daf66] + SpecialFunctions v0.10.3
  [0dd23c3e] + TwoFAST v0.1.3
  [56f22d72] + Artifacts
  [2a0f44e3] + Base64
  [ade2ca70] + Dates
  [8bb1440f] + DelimitedFiles
  [b77e0a4c] + InteractiveUtils
  [76f85450] + LibGit2
  [8f399da3] + Libdl
  [37e2e46d] + LinearAlgebra
  [56ddb016] + Logging
  [d6f4376e] + Markdown
  [a63ad114] + Mmap
  [44cfe95a] + Pkg
  [de0858da] + Printf
  [3fa0cd96] + REPL
  [9a3f8284] + Random
  [ea8e919c] + SHA
  [9e88b42a] + Serialization
  [6462fe0b] + Sockets
  [fa267f1f] + TOML
  [8dfed614] + Test
  [cf7118a7] + UUIDs
  [4ec0a83e] + Unicode
   Building ArbNumerics → `~/.julia/scratchspaces/44cfe95a-1eb2-52ea-b672-e2afdf69b78f/329a81d67c64e3a51c176a243b6424fbe39213d0/build.log`
   Building FFTW ───────→ `~/.julia/scratchspaces/44cfe95a-1eb2-52ea-b672-e2afdf69b78f/8b7c16b56936047ca41bf25effa137ae0b381ae8/build.log`
    Testing TwoFAST
Status `/tmp/jl_vysY1X/Project.toml`
  [7e558dbc] ArbNumerics v1.2.1
  [39dd38d3] Dierckx v0.5.0
  [7a1cc6ca] FFTW v1.2.4
  [276daf66] SpecialFunctions v0.10.3
  [0dd23c3e] TwoFAST v0.1.3
  [8bb1440f] DelimitedFiles
  [37e2e46d] LinearAlgebra
  [56ddb016] Logging
  [8dfed614] Test
Status `/tmp/jl_vysY1X/Manifest.toml`
  [621f4979] AbstractFFTs v0.5.0
  [7e558dbc] ArbNumerics v1.2.1
  [b99e7846] BinaryProvider v0.5.10
  [e66e0078] CompilerSupportLibraries_jll v0.3.3+0
  [39dd38d3] Dierckx v0.5.0
  [cd4c43a9] Dierckx_jll v0.0.1+0
  [7a1cc6ca] FFTW v1.2.4
  [f5851436] FFTW_jll v3.3.9+5
  [01680d73] GenericSVD v0.3.0
  [c145ed77] GenericSchur v0.4.0
  [1d5cc7b8] IntelOpenMP_jll v2018.0.3+0
  [856f044c] MKL_jll v2020.2.254+0
  [efe28fd5] OpenSpecFun_jll v0.5.3+3
  [0d4725de] Readables v0.3.3
  [189a3867] Reexport v0.2.0
  [276daf66] SpecialFunctions v0.10.3
  [0dd23c3e] TwoFAST v0.1.3
  [56f22d72] Artifacts
  [2a0f44e3] Base64
  [ade2ca70] Dates
  [8bb1440f] DelimitedFiles
  [b77e0a4c] InteractiveUtils
  [76f85450] LibGit2
  [8f399da3] Libdl
  [37e2e46d] LinearAlgebra
  [56ddb016] Logging
  [d6f4376e] Markdown
  [a63ad114] Mmap
  [44cfe95a] Pkg
  [de0858da] Printf
  [3fa0cd96] REPL
  [9a3f8284] Random
  [ea8e919c] SHA
  [9e88b42a] Serialization
  [6462fe0b] Sockets
  [fa267f1f] TOML
  [8dfed614] Test
  [cf7118a7] UUIDs
  [4ec0a83e] Unicode
    Testing Running tests...
WARNING: could not import Printf.ini_hex into ArbNumerics
WARNING: could not import Printf.ini_HEX into ArbNumerics
t = 0.0 sec (0 allocations: 0 byte, 0.0% gc time)
typeof(t) = NamedTuple{(:value, :time, :bytes, :gctime, :gcstats), Tuple{DataType, Float64, Int64, Float64, Base.GC_Diff}}
TwoFAST.PerformanceStats.TimedType = Union{NamedTuple{(:value, :time, :bytes, :gctime, :gcstats), Tuple{T, Float64, Int64, Float64, Base.GC_Diff}}, Tuple{Any, Float64, Int64, Float64, Base.GC_Diff}} where T
t = 0.0 sec (0 allocations: 0 byte, 0.0% gc time)
t: 0.0 sec (0 allocations: 0 byte, 0.0% gc time)
Testing ξ(r), ℓ=0, ν=-1 ... passed
Testing ξ(r), ℓ=0, ν=0 ... passed
Testing ξ(r), ℓ=0, ν=1 ... passed
Testing ξ(r), ℓ=0, ν=2 ... passed
Testing ξ(r), ℓ=0, ν=3 ... passed
Testing ξ(r), ℓ=1, ν=0 ... passed
Testing ξ(r), ℓ=1, ν=1 ... passed
Testing ξ(r), ℓ=1, ν=2 ... passed
Testing ξ(r), ℓ=1, ν=3 ... passed
Testing ξ(r), ℓ=2, ν=-1 ... passed
Testing ξ(r), ℓ=2, ν=0 ... passed
Testing ξ(r), ℓ=2, ν=1 ... passed
Testing ξ(r), ℓ=2, ν=2 ... passed
Testing ξ(r), ℓ=2, ν=3 ... passed
Testing ξ(r), ℓ=3, ν=-1 ... passed
Testing ξ(r), ℓ=3, ν=0 ... passed
Testing ξ(r), ℓ=3, ν=1 ... passed
Testing ξ(r), ℓ=3, ν=2 ... passed
Testing ξ(r), ℓ=3, ν=3 ... passed
Testing ξ(r), ℓ=4, ν=-1 ... passed
Testing ξ(r), ℓ=4, ν=0 ... passed
Testing ξ(r), ℓ=4, ν=1 ... passed
Testing ξ(r), ℓ=4, ν=2 ... passed
Testing ξ(r), ℓ=4, ν=3 ... passed
Testing ξ(r) ... passed
Testing ξ′(r) ... passed
Testing ξ″(r) ... passed
Calculating fmax: 
  dlrec    = 4
  dlrecRg1 = -4
  q=1.1, R=1.1:	  3.453796 seconds (842.98 k allocations: 53.904 MiB, 0.58% gc time, 92.46% compilation time)

  3.453995 seconds (843.04 k allocations: 53.939 MiB, 0.58% gc time, 92.46% compilation time)
ℓ = 1202
Δℓ = 4
ΔℓRg1 = -4
N = 1600
q = 1.1
kmin = 1.0e-5
kmax = 100000.00000000004
χ0 = 0.023029999999999995
RR = RR.tsv
ℓmax = ℓmax.bin
f21 = f21.bin
kmin = 1.0e-5
kmax = 100000.0
dlrec    = 4
dlrecRg1 = -4
Output size: 5741568 bytes = 0.005347251892089844 GiB
Output size: 51264 bytes = 4.774332046508789e-5 GiB
Reading 'out/F21EllCache'...   0.621150 seconds (426.51 k allocations: 24.998 MiB, 5.17% gc time, 99.58% compilation time)
ellmax: 1202
lmaxcache: 1202
fell[:,1,1] = ComplexF64[3.9583795592771634e-52 - 9.695233714158177e-68im, 3.990121772925759e-52 - 9.772979714843386e-68im]
ell 1202, elapsed: 3.4809112548828125e-5
ell 1201, elapsed: 1.1459410190582275
ell 1200, elapsed: 0.0004220008850097656
ell 1199, elapsed: 0.0003859996795654297
ell 1198, elapsed: 0.0004150867462158203
ell 1002, elapsed: 0.008419036865234375
ell 1001, elapsed: 0.00040411949157714844
ell 1000, elapsed: 0.0003921985626220703
ell 999, elapsed: 0.000392913818359375
ell 998, elapsed: 0.0003910064697265625
ell 902, elapsed: 0.004415988922119141
ell 901, elapsed: 0.0003979206085205078
ell 900, elapsed: 0.00038814544677734375
ell 899, elapsed: 0.00039196014404296875
ell 898, elapsed: 0.0004420280456542969
ell 802, elapsed: 0.004281044006347656
ell 801, elapsed: 0.0003960132598876953
ell 800, elapsed: 0.0003960132598876953
ell 799, elapsed: 0.0003941059112548828
ell 798, elapsed: 0.000392913818359375
ell 702, elapsed: 0.004430055618286133
ell 701, elapsed: 0.00039196014404296875
ell 700, elapsed: 0.00038909912109375
ell 699, elapsed: 0.0004718303680419922
ell 698, elapsed: 0.00038909912109375
ell 602, elapsed: 0.004113912582397461
ell 601, elapsed: 0.00039005279541015625
ell 600, elapsed: 0.0003898143768310547
ell 599, elapsed: 0.0003840923309326172
ell 598, elapsed: 0.00039315223693847656
ell 502, elapsed: 0.004281044006347656
ell 501, elapsed: 0.0003979206085205078
ell 500, elapsed: 0.0003910064697265625
ell 499, elapsed: 0.00039505958557128906
ell 498, elapsed: 0.0004191398620605469
ell 402, elapsed: 0.004302978515625
ell 401, elapsed: 0.000392913818359375
ell 400, elapsed: 0.00039315223693847656
ell 399, elapsed: 0.0003910064697265625
ell 398, elapsed: 0.00039887428283691406
ell 302, elapsed: 0.004356861114501953
ell 301, elapsed: 0.0003910064697265625
ell 300, elapsed: 0.00039196014404296875
ell 299, elapsed: 0.0003910064697265625
ell 298, elapsed: 0.0004107952117919922
ell 202, elapsed: 0.004307985305786133
ell 201, elapsed: 0.0003960132598876953
ell 200, elapsed: 0.00039005279541015625
ell 199, elapsed: 0.0003910064697265625
ell 198, elapsed: 0.00039696693420410156
ell 152, elapsed: 0.0023229122161865234
ell 151, elapsed: 0.000392913818359375
ell 150, elapsed: 0.0003859996795654297
ell 149, elapsed: 0.0003879070281982422
ell 148, elapsed: 0.00039005279541015625
ell 127, elapsed: 0.0012619495391845703
ell 126, elapsed: 0.0003859996795654297
ell 125, elapsed: 0.0004169940948486328
ell 124, elapsed: 0.0003960132598876953
ell 123, elapsed: 0.0003921985626220703
ell 114, elapsed: 0.0007648468017578125
ell 113, elapsed: 0.00038695335388183594
ell 112, elapsed: 0.00038814544677734375
ell 111, elapsed: 0.0003941059112548828
ell 110, elapsed: 0.0003809928894042969
ell 102, elapsed: 0.0007410049438476562
ell 101, elapsed: 0.00039005279541015625
ell 100, elapsed: 0.0003910064697265625
ell 99, elapsed: 0.00038909912109375
ell 98, elapsed: 0.0003910064697265625
ell 97, elapsed: 0.00044608116149902344
ell 96, elapsed: 0.00044608116149902344
ell 95, elapsed: 0.00043392181396484375
ell 94, elapsed: 0.00044083595275878906
ell 93, elapsed: 0.0004699230194091797
ell 92, elapsed: 0.00043892860412597656
ell 91, elapsed: 0.00043201446533203125
ell 90, elapsed: 0.0004360675811767578
ell 89, elapsed: 0.0004451274871826172
ell 88, elapsed: 0.0004341602325439453
ell 87, elapsed: 0.00043392181396484375
ell 86, elapsed: 0.0004439353942871094
ell 85, elapsed: 0.0004391670227050781
ell 84, elapsed: 0.0004780292510986328
ell 83, elapsed: 0.00043487548828125
ell 82, elapsed: 0.00043082237243652344
ell 81, elapsed: 0.0004382133483886719
ell 80, elapsed: 0.00042891502380371094
ell 79, elapsed: 0.0004379749298095703
ell 78, elapsed: 0.000431060791015625
ell 77, elapsed: 0.0004229545593261719
ell 76, elapsed: 0.0004830360412597656
ell 75, elapsed: 0.00043010711669921875
ell 74, elapsed: 0.0004329681396484375
ell 73, elapsed: 0.00042891502380371094
ell 72, elapsed: 0.0004229545593261719
ell 71, elapsed: 0.00042891502380371094
ell 70, elapsed: 0.0004279613494873047
ell 69, elapsed: 0.00043892860412597656
ell 68, elapsed: 0.000431060791015625
ell 67, elapsed: 0.00045609474182128906
ell 66, elapsed: 0.000431060791015625
ell 65, elapsed: 0.00043010711669921875
ell 64, elapsed: 0.0004360675811767578
ell 63, elapsed: 0.000431060791015625
ell 62, elapsed: 0.00042891502380371094
ell 61, elapsed: 0.00043511390686035156
ell 60, elapsed: 0.0004220008850097656
ell 59, elapsed: 0.0004329681396484375
ell 58, elapsed: 0.0004940032958984375
ell 57, elapsed: 0.0004341602325439453
ell 56, elapsed: 0.0004401206970214844
ell 55, elapsed: 0.00043010711669921875
ell 54, elapsed: 0.0004379749298095703
ell 53, elapsed: 0.0004398822784423828
ell 52, elapsed: 0.00043320655822753906
ell 51, elapsed: 0.00043702125549316406
ell 50, elapsed: 0.0004341602325439453
ell 49, elapsed: 0.0004911422729492188
ell 48, elapsed: 0.00043487548828125
ell 47, elapsed: 0.00044608116149902344
ell 46, elapsed: 0.00043201446533203125
ell 45, elapsed: 0.00043511390686035156
ell 44, elapsed: 0.0004420280456542969
ell 43, elapsed: 0.0004391670227050781
ell 42, elapsed: 0.0004429817199707031
ell 41, elapsed: 0.0004858970642089844
ell 40, elapsed: 0.00043511390686035156
ell 39, elapsed: 0.0004451274871826172
ell 38, elapsed: 0.00043010711669921875
ell 37, elapsed: 0.00043702125549316406
ell 36, elapsed: 0.0004420280456542969
ell 35, elapsed: 0.00043892860412597656
ell 34, elapsed: 0.0004520416259765625
ell 33, elapsed: 0.0004379749298095703
ell 32, elapsed: 0.00047016143798828125
ell 31, elapsed: 0.000431060791015625
ell 30, elapsed: 0.00043201446533203125
ell 29, elapsed: 0.0004329681396484375
ell 28, elapsed: 0.00043511390686035156
ell 27, elapsed: 0.0004429817199707031
ell 26, elapsed: 0.00043702125549316406
ell 25, elapsed: 0.00043702125549316406
ell 24, elapsed: 0.0004820823669433594
ell 23, elapsed: 0.0004329681396484375
ell 22, elapsed: 0.00043892860412597656
ell 21, elapsed: 0.00043702125549316406
ell 20, elapsed: 0.0004398822784423828
ell 19, elapsed: 0.0004420280456542969
ell 18, elapsed: 0.0004360675811767578
ell 17, elapsed: 0.0004520416259765625
ell 16, elapsed: 0.0004360675811767578
ell 15, elapsed: 0.0004909038543701172
ell 14, elapsed: 0.0004589557647705078
ell 13, elapsed: 0.00045490264892578125
ell 12, elapsed: 0.00045490264892578125
ell 11, elapsed: 0.0004410743713378906
ell 10, elapsed: 0.0004410743713378906
ell 9, elapsed: 0.00045299530029296875
ell 8, elapsed: 0.0004429817199707031
ell 7, elapsed: 0.0004870891571044922
ell 6, elapsed: 0.0004508495330810547
ell 5, elapsed: 0.00043201446533203125
ell 4, elapsed: 0.0004451274871826172
ell 3, elapsed: 0.00043702125549316406
ell 2, elapsed: 0.0004432201385498047
ell 1, elapsed: 0.0004448890686035156
ell 0, elapsed: 0.0004470348358154297
  1.606691 seconds (1.38 M allocations: 74.484 MiB, 2.47% gc time, 92.66% compilation time)
elapsed: 0.0005419254302978516
step:          0.346701 sec (311.15 k allocations: 16.965 MB, 0.0% gc time)
swapping:      0.000332 sec (0 allocations: 0 byte, 0.0% gc time)
calc_Mellell!: 0.11924 sec (135.745 k allocations: 7.433 MB, 0.0% gc time)
  t0 :  0.0 sec (0 allocations: 0 byte, 0.0% gc time)
  tm2 : 0.0 sec (0 allocations: 0 byte, 0.0% gc time)
  tm2s: 0.0 sec (0 allocations: 0 byte, 0.0% gc time)
  tm4 : 0.0 sec (0 allocations: 0 byte, 0.0% gc time)
  tp2 : 0.0 sec (0 allocations: 0 byte, 0.0% gc time)
  tp2s: 0.0 sec (0 allocations: 0 byte, 0.0% gc time)
  tp4 : 0.0 sec (0 allocations: 0 byte, 0.0% gc time)
calc_wtdll!:   0.783716 sec (509.622 k allocations: 28.197 MB, 2.7% gc time)
calc_wljj!:    0.001958 sec (6 allocations: 96 byte, 0.0% gc time)
mult_prefac!:  0.0 sec (0 allocations: 0 byte, 0.0% gc time)
convert:       0.0 sec (0 allocations: 0 byte, 0.0% gc time)
write:         0.003145 sec (0 allocations: 0 byte, 0.0% gc time)
test_rand_2f1: 0.0 sec (0 allocations: 0 byte, 0.0% gc time)
Closing outfile out/Ml21-cache.bin...   0.000012 seconds
  0.960403 seconds (246.36 k allocations: 14.217 MiB, 1.87% gc time, 40.47% compilation time)
make_phi():   0.008711 seconds (8.18 k allocations: 237.844 KiB)
  0.227841 seconds (87.57 k allocations: 4.748 MiB, 94.39% compilation time)
tskip:       1.6e-5 sec (0 allocations: 0 byte, 0.0% gc time)
tread:       0.002 sec (17 allocations: 2.125 KB, 0.0% gc time)
tmultphi:    0.039241 sec (21.425 k allocations: 1.287 MB, 0.0% gc time)
tbrfft:      0.003224 sec (0 allocations: 0 byte, 0.0% gc time)
tmultprefac: 0.001667 sec (0 allocations: 0 byte, 0.0% gc time)
toutfunc:    0.145518 sec (64.482 k allocations: 3.329 MB, 0.0% gc time)
Testing R=1.1 ... passed
Calculating fmax: 
  dlrec    = 4
  dlrecRg1 = -4
  q=1.1, R=1.0:	  0.001172 seconds (3.20 k allocations: 275.344 KiB)

  0.001262 seconds (3.25 k allocations: 309.922 KiB)
ℓ = 1202
Δℓ = 4
ΔℓRg1 = -4
N = 1600
q = 1.1
kmin = 1.0e-5
kmax = 100000.00000000004
χ0 = 0.023029999999999995
RR = RR.tsv
ℓmax = ℓmax.bin
f21 = f21.bin
kmin = 1.0e-5
kmax = 100000.0
dlrec    = 4
dlrecRg1 = -4
Output size: 61465536 bytes = 0.05724424123764038 GiB
Output size: 51264 bytes = 4.774332046508789e-5 GiB
Reading 'out/F21EllCache'...   0.000758 seconds (197 allocations: 84.203 KiB)
ellmax: 1202
lmaxcache: 1202
fell[:,1,1] = ComplexF64[809.6031528389767 - 1.9829558194077161e-13im, 0.0 + 0.0im]
ell 1202, elapsed: 2.002716064453125e-5
ell 1201, elapsed: 0.01483607292175293
ell 1200, elapsed: 0.01797795295715332
ell 1199, elapsed: 0.00026488304138183594
ell 1198, elapsed: 0.00025582313537597656
ell 1197, elapsed: 0.0003268718719482422
ell 1196, elapsed: 0.00028395652770996094
ell 1195, elapsed: 0.00029397010803222656
ell 1194, elapsed: 0.0002899169921875
ell 1193, elapsed: 0.0002970695495605469
ell 1192, elapsed: 0.0002980232238769531
ell 1191, elapsed: 0.0002911090850830078
ell 1190, elapsed: 0.0003528594970703125
ell 1189, elapsed: 0.00029397010803222656
ell 1188, elapsed: 0.0002930164337158203
ell 1187, elapsed: 0.00030803680419921875
ell 1186, elapsed: 0.00029015541076660156
ell 1185, elapsed: 0.0002989768981933594
ell 1184, elapsed: 0.00029015541076660156
ell 1183, elapsed: 0.0002930164337158203
ell 1182, elapsed: 0.0002980232238769531
ell 1181, elapsed: 0.0002930164337158203
ell 1180, elapsed: 0.0002961158752441406
ell 1179, elapsed: 0.00029206275939941406
ell 1178, elapsed: 0.00029087066650390625
ell 1177, elapsed: 0.00032901763916015625
ell 1176, elapsed: 0.0002930164337158203
ell 1175, elapsed: 0.0003008842468261719
ell 1174, elapsed: 0.00029206275939941406
ell 1173, elapsed: 0.0002911090850830078
ell 1172, elapsed: 0.00030303001403808594
ell 1171, elapsed: 0.0002949237823486328
ell 1170, elapsed: 0.0002999305725097656
ell 1169, elapsed: 0.00029206275939941406
ell 1168, elapsed: 0.0003008842468261719
ell 1167, elapsed: 0.0003001689910888672
ell 1166, elapsed: 0.00029397010803222656
ell 1165, elapsed: 0.00032401084899902344
ell 1164, elapsed: 0.0002970695495605469
ell 1163, elapsed: 0.00029587745666503906
ell 1162, elapsed: 0.0003018379211425781
ell 1161, elapsed: 0.00029397010803222656
ell 1160, elapsed: 0.0002989768981933594
ell 1159, elapsed: 0.0002970695495605469
ell 1158, elapsed: 0.00029587745666503906
ell 1157, elapsed: 0.0003020763397216797
ell 1156, elapsed: 0.0002961158752441406
ell 1155, elapsed: 0.0003039836883544922
ell 1154, elapsed: 0.00029587745666503906
ell 1153, elapsed: 0.00030612945556640625
ell 1152, elapsed: 0.003782033920288086
ell 1151, elapsed: 0.00041103363037109375
ell 1150, elapsed: 0.00030612945556640625
ell 1149, elapsed: 0.0002980232238769531
ell 1148, elapsed: 0.0003058910369873047
ell 1147, elapsed: 0.0002949237823486328
ell 1146, elapsed: 0.0002980232238769531
ell 1145, elapsed: 0.00030803680419921875
ell 1144, elapsed: 0.0002980232238769531
ell 1143, elapsed: 0.0003039836883544922
ell 1142, elapsed: 0.00030612945556640625
ell 1141, elapsed: 0.00029397010803222656
ell 1140, elapsed: 0.0003008842468261719
ell 1139, elapsed: 0.0002942085266113281
ell 1138, elapsed: 0.00033783912658691406
ell 1137, elapsed: 0.0002961158752441406
ell 1136, elapsed: 0.0002951622009277344
ell 1135, elapsed: 0.0003008842468261719
ell 1134, elapsed: 0.0002951622009277344
ell 1133, elapsed: 0.0003008842468261719
ell 1132, elapsed: 0.0003018379211425781
ell 1131, elapsed: 0.0002980232238769531
ell 1130, elapsed: 0.00030112266540527344
ell 1129, elapsed: 0.0002968311309814453
ell 1128, elapsed: 0.0003018379211425781
ell 1127, elapsed: 0.0002980232238769531
ell 1126, elapsed: 0.00033283233642578125
ell 1125, elapsed: 0.00030303001403808594
ell 1124, elapsed: 0.0002968311309814453
ell 1123, elapsed: 0.0003020763397216797
ell 1122, elapsed: 0.0002961158752441406
ell 1121, elapsed: 0.000308990478515625
ell 1120, elapsed: 0.0002968311309814453
ell 1119, elapsed: 0.0002968311309814453
ell 1118, elapsed: 0.0002989768981933594
ell 1117, elapsed: 0.0002999305725097656
ell 1116, elapsed: 0.0003070831298828125
ell 1115, elapsed: 0.0002980232238769531
ell 1114, elapsed: 0.0003600120544433594
ell 1113, elapsed: 0.0003039836883544922
ell 1112, elapsed: 0.0002999305725097656
ell 1111, elapsed: 0.0003108978271484375
ell 1110, elapsed: 0.0002980232238769531
ell 1109, elapsed: 0.0002999305725097656
ell 1108, elapsed: 0.0002968311309814453
ell 1107, elapsed: 0.00029087066650390625
ell 1106, elapsed: 0.0002961158752441406
ell 1105, elapsed: 0.0002899169921875
ell 1104, elapsed: 0.00028896331787109375
ell 1103, elapsed: 0.0002989768981933594
ell 1102, elapsed: 0.00029206275939941406
ell 1101, elapsed: 0.00034499168395996094
ell 1100, elapsed: 0.0002980232238769531
ell 1099, elapsed: 0.0002961158752441406
ell 1098, elapsed: 0.0002961158752441406
ell 1097, elapsed: 0.0002949237823486328
ell 1096, elapsed: 0.0002989768981933594
ell 1095, elapsed: 0.00030112266540527344
ell 1094, elapsed: 0.0002961158752441406
ell 1093, elapsed: 0.0003001689910888672
ell 1092, elapsed: 0.0002930164337158203
ell 1091, elapsed: 0.00030303001403808594
ell 1090, elapsed: 0.0002999305725097656
ell 1089, elapsed: 0.00035500526428222656
ell 1088, elapsed: 0.00029206275939941406
ell 1087, elapsed: 0.00028514862060546875
ell 1086, elapsed: 0.00029587745666503906
ell 1085, elapsed: 0.0002849102020263672
ell 1084, elapsed: 0.0002949237823486328
ell 1083, elapsed: 0.00031185150146484375
ell 1082, elapsed: 0.00029206275939941406
ell 1081, elapsed: 0.00029397010803222656
ell 1080, elapsed: 0.0002880096435546875
ell 1079, elapsed: 0.0002892017364501953
ell 1078, elapsed: 0.000308990478515625
ell 1077, elapsed: 0.0002880096435546875
ell 1076, elapsed: 0.00036406517028808594
ell 1075, elapsed: 0.0002930164337158203
ell 1074, elapsed: 0.00029397010803222656
ell 1073, elapsed: 0.0002970695495605469
ell 1072, elapsed: 0.0002899169921875
ell 1071, elapsed: 0.0002961158752441406
ell 1070, elapsed: 0.0002899169921875
ell 1069, elapsed: 0.00029015541076660156
ell 1068, elapsed: 0.0003039836883544922
ell 1067, elapsed: 0.0002849102020263672
ell 1066, elapsed: 0.0002951622009277344
ell 1065, elapsed: 0.00028586387634277344
ell 1064, elapsed: 0.0003249645233154297
ell 1063, elapsed: 0.00029015541076660156
ell 1062, elapsed: 0.0002899169921875
ell 1061, elapsed: 0.0002949237823486328
ell 1060, elapsed: 0.0002899169921875
ell 1059, elapsed: 0.00029397010803222656
ell 1058, elapsed: 0.0002880096435546875
ell 1057, elapsed: 0.00028896331787109375
ell 1056, elapsed: 0.0002930164337158203
ell 1055, elapsed: 0.00029087066650390625
ell 1054, elapsed: 0.00029397010803222656
ell 1053, elapsed: 0.0002880096435546875
ell 1052, elapsed: 0.0002892017364501953
ell 1051, elapsed: 0.00033402442932128906
ell 1050, elapsed: 0.00029087066650390625
ell 1049, elapsed: 0.00032782554626464844
ell 1048, elapsed: 0.0002970695495605469
ell 1047, elapsed: 0.00029206275939941406
ell 1046, elapsed: 0.0002970695495605469
ell 1045, elapsed: 0.00029015541076660156
ell 1044, elapsed: 0.0003039836883544922
ell 1043, elapsed: 0.0002970695495605469
ell 1042, elapsed: 0.0002911090850830078
ell 1041, elapsed: 0.0002970695495605469
ell 1040, elapsed: 0.00029015541076660156
ell 1039, elapsed: 0.0002970695495605469
ell 1038, elapsed: 0.00030493736267089844
ell 1037, elapsed: 0.0002930164337158203
ell 1036, elapsed: 0.00029587745666503906
ell 1035, elapsed: 0.0002930164337158203
ell 1034, elapsed: 0.0002970695495605469
ell 1033, elapsed: 0.00024700164794921875
ell 1032, elapsed: 0.0002448558807373047
ell 1031, elapsed: 0.0002498626708984375
ell 1030, elapsed: 0.00024509429931640625
ell 1029, elapsed: 0.0002498626708984375
ell 1028, elapsed: 0.0002448558807373047
ell 1027, elapsed: 0.00024390220642089844
ell 1026, elapsed: 0.00025200843811035156
ell 1025, elapsed: 0.000244140625
ell 1024, elapsed: 0.000286102294921875
ell 1023, elapsed: 0.0002491474151611328
ell 1022, elapsed: 0.00024700164794921875
ell 1021, elapsed: 0.00025200843811035156
ell 1020, elapsed: 0.00025010108947753906
ell 1019, elapsed: 0.00025200843811035156
ell 1018, elapsed: 0.0002460479736328125
ell 1017, elapsed: 0.00024700164794921875
ell 1016, elapsed: 0.0002579689025878906
ell 1015, elapsed: 0.0002498626708984375
ell 1014, elapsed: 0.0002529621124267578
ell 1013, elapsed: 0.00024580955505371094
ell 1012, elapsed: 0.0002560615539550781
ell 1011, elapsed: 0.000247955322265625
ell 1010, elapsed: 0.00024580955505371094
ell 1009, elapsed: 0.00029397010803222656
ell 1008, elapsed: 0.000247955322265625
ell 1007, elapsed: 0.0002510547637939453
ell 1006, elapsed: 0.00024390220642089844
ell 1005, elapsed: 0.00024580955505371094
ell 1004, elapsed: 0.00025200843811035156
ell 1003, elapsed: 0.0002460479736328125
ell 1002, elapsed: 0.0002529621124267578
ell 1001, elapsed: 0.0002448558807373047
ell 1000, elapsed: 0.00024580955505371094
ell 999, elapsed: 0.0002510547637939453
ell 998, elapsed: 0.000247955322265625
ell 997, elapsed: 0.00025200843811035156
ell 996, elapsed: 0.0002460479736328125
ell 995, elapsed: 0.0002460479736328125
ell 994, elapsed: 0.0002689361572265625
ell 993, elapsed: 0.0002448558807373047
ell 992, elapsed: 0.00024890899658203125
ell 991, elapsed: 0.00024890899658203125
ell 990, elapsed: 0.000244140625
ell 989, elapsed: 0.00025200843811035156
ell 988, elapsed: 0.00024509429931640625
ell 987, elapsed: 0.0002789497375488281
ell 986, elapsed: 0.00025200843811035156
ell 985, elapsed: 0.0002460479736328125
ell 984, elapsed: 0.00024890899658203125
ell 983, elapsed: 0.0002460479736328125
ell 982, elapsed: 0.00024509429931640625
ell 981, elapsed: 0.00024509429931640625
ell 980, elapsed: 0.00024509429931640625
ell 979, elapsed: 0.00025200843811035156
ell 978, elapsed: 0.0003421306610107422
ell 977, elapsed: 0.0034978389739990234
ell 976, elapsed: 0.00036907196044921875
ell 975, elapsed: 0.00029778480529785156
ell 974, elapsed: 0.0002980232238769531
ell 973, elapsed: 0.00029206275939941406
ell 972, elapsed: 0.00029397010803222656
ell 971, elapsed: 0.00029206275939941406
ell 970, elapsed: 0.00028896331787109375
ell 969, elapsed: 0.0002980232238769531
ell 968, elapsed: 0.0002911090850830078
ell 967, elapsed: 0.0002968311309814453
ell 966, elapsed: 0.00029397010803222656
ell 965, elapsed: 0.0002930164337158203
ell 964, elapsed: 0.0002980232238769531
ell 963, elapsed: 0.00031185150146484375
ell 962, elapsed: 0.0003008842468261719
ell 961, elapsed: 0.0002911090850830078
ell 960, elapsed: 0.00029587745666503906
ell 959, elapsed: 0.0002911090850830078
ell 958, elapsed: 0.00029087066650390625
ell 957, elapsed: 0.0002951622009277344
ell 956, elapsed: 0.0002899169921875
ell 955, elapsed: 0.00029397010803222656
ell 954, elapsed: 0.0002942085266113281
ell 953, elapsed: 0.00029015541076660156
ell 952, elapsed: 0.0002980232238769531
ell 951, elapsed: 0.0002918243408203125
ell 950, elapsed: 0.0003190040588378906
ell 949, elapsed: 0.00029087066650390625
ell 948, elapsed: 0.0002911090850830078
ell 947, elapsed: 0.00043892860412597656
ell 946, elapsed: 0.0004317760467529297
ell 945, elapsed: 0.00039505958557128906
ell 944, elapsed: 0.00036406517028808594
ell 943, elapsed: 0.00037980079650878906
ell 942, elapsed: 0.00043892860412597656
ell 941, elapsed: 0.0004570484161376953
ell 940, elapsed: 0.0004379749298095703
ell 939, elapsed: 0.00043010711669921875
ell 938, elapsed: 0.00029587745666503906
ell 937, elapsed: 0.0002970695495605469
ell 936, elapsed: 0.00029397010803222656
ell 935, elapsed: 0.0003039836883544922
ell 934, elapsed: 0.00029087066650390625
ell 933, elapsed: 0.0002918243408203125
ell 932, elapsed: 0.0003039836883544922
ell 931, elapsed: 0.00029587745666503906
ell 930, elapsed: 0.00030112266540527344
ell 929, elapsed: 0.00034809112548828125
ell 928, elapsed: 0.00031280517578125
ell 927, elapsed: 0.0002999305725097656
ell 926, elapsed: 0.0003027915954589844
ell 925, elapsed: 0.00030803680419921875
ell 924, elapsed: 0.0002949237823486328
ell 923, elapsed: 0.00029397010803222656
ell 922, elapsed: 0.0002961158752441406
ell 921, elapsed: 0.00029087066650390625
ell 920, elapsed: 0.0002980232238769531
ell 919, elapsed: 0.0002999305725097656
ell 918, elapsed: 0.0002951622009277344
ell 917, elapsed: 0.0003008842468261719
ell 916, elapsed: 0.0003299713134765625
ell 915, elapsed: 0.0003008842468261719
ell 914, elapsed: 0.00029397010803222656
ell 913, elapsed: 0.00029587745666503906
ell 912, elapsed: 0.0003001689910888672
ell 911, elapsed: 0.0002949237823486328
ell 910, elapsed: 0.0003070831298828125
ell 909, elapsed: 0.0002951622009277344
ell 908, elapsed: 0.0002951622009277344
ell 907, elapsed: 0.00030112266540527344
ell 906, elapsed: 0.00028896331787109375
ell 905, elapsed: 0.0003001689910888672
ell 904, elapsed: 0.0003058910369873047
ell 903, elapsed: 0.0003039836883544922
ell 902, elapsed: 0.0002911090850830078
ell 901, elapsed: 0.0002930164337158203
ell 900, elapsed: 0.0002961158752441406
ell 899, elapsed: 0.0002911090850830078
ell 898, elapsed: 0.0003008842468261719
ell 897, elapsed: 0.00028896331787109375
ell 896, elapsed: 0.0002961158752441406
ell 895, elapsed: 0.0002961158752441406
ell 894, elapsed: 0.0003039836883544922
ell 893, elapsed: 0.0002968311309814453
ell 892, elapsed: 0.0002949237823486328
ell 891, elapsed: 0.0003249645233154297
ell 890, elapsed: 0.0002989768981933594
ell 889, elapsed: 0.0002918243408203125
ell 888, elapsed: 0.0002980232238769531
ell 887, elapsed: 0.0002911090850830078
ell 886, elapsed: 0.0002930164337158203
ell 885, elapsed: 0.00030303001403808594
ell 884, elapsed: 0.00029587745666503906
ell 883, elapsed: 0.0002999305725097656
ell 882, elapsed: 0.00029587745666503906
ell 881, elapsed: 0.0002930164337158203
ell 880, elapsed: 0.0002999305725097656
ell 879, elapsed: 0.00029206275939941406
ell 878, elapsed: 0.0003108978271484375
ell 877, elapsed: 0.0002918243408203125
ell 876, elapsed: 0.00029397010803222656
ell 875, elapsed: 0.00030112266540527344
ell 874, elapsed: 0.0002930164337158203
ell 873, elapsed: 0.0002980232238769531
ell 872, elapsed: 0.00029206275939941406
ell 871, elapsed: 0.0002899169921875
ell 870, elapsed: 0.0003001689910888672
ell 869, elapsed: 0.0002961158752441406
ell 868, elapsed: 0.00030612945556640625
ell 867, elapsed: 0.0002961158752441406
ell 866, elapsed: 0.00036406517028808594
ell 865, elapsed: 0.00030112266540527344
ell 864, elapsed: 0.0002930164337158203
ell 863, elapsed: 0.0002989768981933594
ell 862, elapsed: 0.0002892017364501953
ell 861, elapsed: 0.0002930164337158203
ell 860, elapsed: 0.00030612945556640625
ell 859, elapsed: 0.00028896331787109375
ell 858, elapsed: 0.0002951622009277344
ell 857, elapsed: 0.00029397010803222656
ell 856, elapsed: 0.0002899169921875
ell 855, elapsed: 0.0002961158752441406
ell 854, elapsed: 0.0002970695495605469
ell 853, elapsed: 0.0003108978271484375
ell 852, elapsed: 0.00029015541076660156
ell 851, elapsed: 0.0002918243408203125
ell 850, elapsed: 0.0002989768981933594
ell 849, elapsed: 0.00030803680419921875
ell 848, elapsed: 0.0003178119659423828
ell 847, elapsed: 0.0003020763397216797
ell 846, elapsed: 0.00029206275939941406
ell 845, elapsed: 0.0002968311309814453
ell 844, elapsed: 0.0002930164337158203
ell 843, elapsed: 0.0002989768981933594
ell 842, elapsed: 0.00029206275939941406
ell 841, elapsed: 0.00035190582275390625
ell 840, elapsed: 0.00030612945556640625
ell 839, elapsed: 0.0002930164337158203
ell 838, elapsed: 0.0002961158752441406
ell 837, elapsed: 0.00029087066650390625
ell 836, elapsed: 0.0002970695495605469
ell 835, elapsed: 0.0002899169921875
ell 834, elapsed: 0.00029206275939941406
ell 833, elapsed: 0.0002949237823486328
ell 832, elapsed: 0.00029206275939941406
ell 831, elapsed: 0.00030493736267089844
ell 830, elapsed: 0.0002949237823486328
ell 829, elapsed: 0.0002949237823486328
ell 828, elapsed: 0.00033020973205566406
ell 827, elapsed: 0.00031280517578125
ell 826, elapsed: 0.00030112266540527344
ell 825, elapsed: 0.0002968311309814453
ell 824, elapsed: 0.00029397010803222656
ell 823, elapsed: 0.00029587745666503906
ell 822, elapsed: 0.0003139972686767578
ell 821, elapsed: 0.0003001689910888672
ell 820, elapsed: 0.0002949237823486328
ell 819, elapsed: 0.00029397010803222656
ell 818, elapsed: 0.0002999305725097656
ell 817, elapsed: 0.0002930164337158203
ell 816, elapsed: 0.0002989768981933594
ell 815, elapsed: 0.00032901763916015625
ell 814, elapsed: 0.00029921531677246094
ell 813, elapsed: 0.0002989768981933594
ell 812, elapsed: 0.0002930164337158203
ell 811, elapsed: 0.0002970695495605469
ell 810, elapsed: 0.00029206275939941406
ell 809, elapsed: 0.0003008842468261719
ell 808, elapsed: 0.0003008842468261719
ell 807, elapsed: 0.00029206275939941406
ell 806, elapsed: 0.00030112266540527344
ell 805, elapsed: 0.00029397010803222656
ell 804, elapsed: 0.00029397010803222656
ell 803, elapsed: 0.0003590583801269531
ell 802, elapsed: 0.0003101825714111328
ell 801, elapsed: 0.00030303001403808594
ell 800, elapsed: 0.00029587745666503906
ell 799, elapsed: 0.0002980232238769531
ell 798, elapsed: 0.0002911090850830078
ell 797, elapsed: 0.0002899169921875
ell 796, elapsed: 0.00029397010803222656
ell 795, elapsed: 0.00029206275939941406
ell 794, elapsed: 0.00029587745666503906
ell 793, elapsed: 0.00029206275939941406
ell 792, elapsed: 0.00028896331787109375
ell 791, elapsed: 0.0003008842468261719
ell 790, elapsed: 0.00033402442932128906
ell 789, elapsed: 0.0002980232238769531
ell 788, elapsed: 0.0002899169921875
ell 787, elapsed: 0.0002911090850830078
ell 786, elapsed: 0.00029587745666503906
ell 785, elapsed: 0.00029206275939941406
ell 784, elapsed: 0.0003001689910888672
ell 783, elapsed: 0.0002949237823486328
ell 782, elapsed: 0.0002949237823486328
ell 781, elapsed: 0.0002989768981933594
ell 780, elapsed: 0.0002899169921875
ell 779, elapsed: 0.0002961158752441406
ell 778, elapsed: 0.0002899169921875
ell 777, elapsed: 0.0003120899200439453
ell 776, elapsed: 0.0002951622009277344
ell 775, elapsed: 0.0002942085266113281
ell 774, elapsed: 0.0002980232238769531
ell 773, elapsed: 0.0002930164337158203
ell 772, elapsed: 0.0002911090850830078
ell 771, elapsed: 0.0002999305725097656
ell 770, elapsed: 0.00029206275939941406
ell 769, elapsed: 0.0002949237823486328
ell 768, elapsed: 0.0002899169921875
ell 767, elapsed: 0.0002951622009277344
ell 766, elapsed: 0.0002899169921875
ell 765, elapsed: 0.0003440380096435547
ell 764, elapsed: 0.0003039836883544922
ell 763, elapsed: 0.0002899169921875
ell 762, elapsed: 0.00030112266540527344
ell 761, elapsed: 0.00028896331787109375
ell 760, elapsed: 0.00029206275939941406
ell 759, elapsed: 0.0002949237823486328
ell 758, elapsed: 0.00029206275939941406
ell 757, elapsed: 0.0002968311309814453
ell 756, elapsed: 0.0002880096435546875
ell 755, elapsed: 0.0002918243408203125
ell 754, elapsed: 0.0002970695495605469
ell 753, elapsed: 0.0002899169921875
ell 752, elapsed: 0.00032711029052734375
ell 751, elapsed: 0.00029397010803222656
ell 750, elapsed: 0.0002980232238769531
ell 749, elapsed: 0.0003178119659423828
ell 748, elapsed: 0.00029587745666503906
ell 747, elapsed: 0.0002989768981933594
ell 746, elapsed: 0.0002961158752441406
ell 745, elapsed: 0.00030303001403808594
ell 744, elapsed: 0.0003039836883544922
ell 743, elapsed: 0.0002980232238769531
ell 742, elapsed: 0.0003039836883544922
ell 741, elapsed: 0.00029206275939941406
ell 740, elapsed: 0.00029397010803222656
ell 739, elapsed: 0.0003490447998046875
ell 738, elapsed: 0.0002911090850830078
ell 737, elapsed: 0.00030112266540527344
ell 736, elapsed: 0.0003101825714111328
ell 735, elapsed: 0.0002970695495605469
ell 734, elapsed: 0.0002942085266113281
ell 733, elapsed: 0.0002930164337158203
ell 732, elapsed: 0.0002949237823486328
ell 731, elapsed: 0.0002949237823486328
ell 730, elapsed: 0.0002961158752441406
ell 729, elapsed: 0.0002918243408203125
ell 728, elapsed: 0.00029087066650390625
ell 727, elapsed: 0.00037217140197753906
ell 726, elapsed: 0.0002951622009277344
ell 725, elapsed: 0.0002989768981933594
ell 724, elapsed: 0.0002930164337158203
ell 723, elapsed: 0.00029397010803222656
ell 722, elapsed: 0.00030612945556640625
ell 721, elapsed: 0.0002949237823486328
ell 720, elapsed: 0.0002961158752441406
ell 719, elapsed: 0.0002918243408203125
ell 718, elapsed: 0.0002911090850830078
ell 717, elapsed: 0.0002989768981933594
ell 716, elapsed: 0.00028896331787109375
ell 715, elapsed: 0.0002980232238769531
ell 714, elapsed: 0.0003371238708496094
ell 713, elapsed: 0.0002949237823486328
ell 712, elapsed: 0.0002961158752441406
ell 711, elapsed: 0.0002970695495605469
ell 710, elapsed: 0.00029778480529785156
ell 709, elapsed: 0.0002880096435546875
ell 708, elapsed: 0.000308990478515625
ell 707, elapsed: 0.0002899169921875
ell 706, elapsed: 0.0002880096435546875
ell 705, elapsed: 0.0002949237823486328
ell 704, elapsed: 0.0003001689910888672
ell 703, elapsed: 0.00029587745666503906
ell 702, elapsed: 0.0002930164337158203
ell 701, elapsed: 0.0003330707550048828
ell 700, elapsed: 0.0002989768981933594
ell 699, elapsed: 0.00029206275939941406
ell 698, elapsed: 0.0003008842468261719
ell 697, elapsed: 0.0002918243408203125
ell 696, elapsed: 0.00029206275939941406
ell 695, elapsed: 0.0002949237823486328
ell 694, elapsed: 0.0002911090850830078
ell 693, elapsed: 0.00029397010803222656
ell 692, elapsed: 0.00029206275939941406
ell 691, elapsed: 0.00028896331787109375
ell 690, elapsed: 0.0002980232238769531
ell 689, elapsed: 0.0003108978271484375
ell 688, elapsed: 0.00030303001403808594
ell 687, elapsed: 0.00029206275939941406
ell 686, elapsed: 0.0002949237823486328
ell 685, elapsed: 0.00029397010803222656
ell 684, elapsed: 0.0002899169921875
ell 683, elapsed: 0.0002949237823486328
ell 682, elapsed: 0.0002880096435546875
ell 681, elapsed: 0.0002930164337158203
ell 680, elapsed: 0.0002968311309814453
ell 679, elapsed: 0.0002961158752441406
ell 678, elapsed: 0.0002968311309814453
ell 677, elapsed: 0.0002911090850830078
ell 676, elapsed: 0.0003712177276611328
ell 675, elapsed: 0.0002930164337158203
ell 674, elapsed: 0.00029206275939941406
ell 673, elapsed: 0.0002970695495605469
ell 672, elapsed: 0.00028705596923828125
ell 671, elapsed: 0.0002989768981933594
ell 670, elapsed: 0.00029206275939941406
ell 669, elapsed: 0.0002892017364501953
ell 668, elapsed: 0.0002961158752441406
ell 667, elapsed: 0.00029087066650390625
ell 666, elapsed: 0.0002970695495605469
ell 665, elapsed: 0.00028896331787109375
ell 664, elapsed: 0.00029015541076660156
ell 663, elapsed: 0.0003859996795654297
ell 662, elapsed: 0.00036597251892089844
ell 661, elapsed: 0.0003821849822998047
ell 660, elapsed: 0.00036907196044921875
ell 659, elapsed: 0.00037097930908203125
ell 658, elapsed: 0.0003769397735595703
ell 657, elapsed: 0.0003750324249267578
ell 656, elapsed: 0.00038814544677734375
ell 655, elapsed: 0.00036978721618652344
ell 654, elapsed: 0.00040602684020996094
ell 653, elapsed: 0.00034880638122558594
ell 652, elapsed: 0.0002968311309814453
ell 651, elapsed: 0.0002980232238769531
ell 650, elapsed: 0.00029087066650390625
ell 649, elapsed: 0.0002930164337158203
ell 648, elapsed: 0.0002911090850830078
ell 647, elapsed: 0.0002899169921875
ell 646, elapsed: 0.00029397010803222656
ell 645, elapsed: 0.0002930164337158203
ell 644, elapsed: 0.0002961158752441406
ell 643, elapsed: 0.00029015541076660156
ell 642, elapsed: 0.0002930164337158203
ell 641, elapsed: 0.0004119873046875
ell 640, elapsed: 0.0004010200500488281
ell 639, elapsed: 0.0003840923309326172
ell 638, elapsed: 0.00037217140197753906
ell 637, elapsed: 0.00037598609924316406
ell 636, elapsed: 0.00038504600524902344
ell 635, elapsed: 0.00037097930908203125
ell 634, elapsed: 0.00038504600524902344
ell 633, elapsed: 0.0003681182861328125
ell 632, elapsed: 0.0004019737243652344
ell 631, elapsed: 0.0003821849822998047
ell 630, elapsed: 0.0003771781921386719
ell 629, elapsed: 0.0003809928894042969
ell 628, elapsed: 0.0003769397735595703
ell 627, elapsed: 0.00036907196044921875
ell 626, elapsed: 0.00032210350036621094
ell 625, elapsed: 0.00029397010803222656
ell 624, elapsed: 0.000308990478515625
ell 623, elapsed: 0.0002930164337158203
ell 622, elapsed: 0.0002951622009277344
ell 621, elapsed: 0.0003349781036376953
ell 620, elapsed: 0.0002930164337158203
ell 619, elapsed: 0.00029587745666503906
ell 618, elapsed: 0.0002949237823486328
ell 617, elapsed: 0.00028896331787109375
ell 616, elapsed: 0.00029587745666503906
ell 615, elapsed: 0.0002899169921875
ell 614, elapsed: 0.0002949237823486328
ell 613, elapsed: 0.0002880096435546875
ell 612, elapsed: 0.00029587745666503906
ell 611, elapsed: 0.00028896331787109375
ell 610, elapsed: 0.0002880096435546875
ell 609, elapsed: 0.0002961158752441406
ell 608, elapsed: 0.0003840923309326172
ell 607, elapsed: 0.0003800392150878906
ell 606, elapsed: 0.0003650188446044922
ell 605, elapsed: 0.0003540515899658203
ell 604, elapsed: 0.0003750324249267578
ell 603, elapsed: 0.0003628730773925781
ell 602, elapsed: 0.00037407875061035156
ell 601, elapsed: 0.0003578662872314453
ell 600, elapsed: 0.0003650188446044922
ell 599, elapsed: 0.0004220008850097656
ell 598, elapsed: 0.00037598609924316406
ell 597, elapsed: 0.0003800392150878906
ell 596, elapsed: 0.00036907196044921875
ell 595, elapsed: 0.0003731250762939453
ell 594, elapsed: 0.00037598609924316406
ell 593, elapsed: 0.0003769397735595703
ell 592, elapsed: 0.00037598609924316406
ell 591, elapsed: 0.000370025634765625
ell 590, elapsed: 0.00039696693420410156
ell 589, elapsed: 0.0003838539123535156
ell 588, elapsed: 0.0003750324249267578
ell 587, elapsed: 0.0003809928894042969
ell 586, elapsed: 0.00037097930908203125
ell 585, elapsed: 0.00038886070251464844
ell 584, elapsed: 0.00037598609924316406
ell 583, elapsed: 0.0003800392150878906
ell 582, elapsed: 0.0003819465637207031
ell 581, elapsed: 0.0003750324249267578
ell 580, elapsed: 0.0004131793975830078
ell 579, elapsed: 0.0003819465637207031
ell 578, elapsed: 0.0003769397735595703
ell 577, elapsed: 0.0003809928894042969
ell 576, elapsed: 0.0003352165222167969
ell 575, elapsed: 0.000308990478515625
ell 574, elapsed: 0.0002961158752441406
ell 573, elapsed: 0.0002930164337158203
ell 572, elapsed: 0.0002949237823486328
ell 571, elapsed: 0.00028896331787109375
ell 570, elapsed: 0.0003428459167480469
ell 569, elapsed: 0.00029087066650390625
ell 568, elapsed: 0.0002899169921875
ell 567, elapsed: 0.00030303001403808594
ell 566, elapsed: 0.00028896331787109375
ell 565, elapsed: 0.0002968311309814453
ell 564, elapsed: 0.00028896331787109375
ell 563, elapsed: 0.0002849102020263672
ell 562, elapsed: 0.0003688335418701172
ell 561, elapsed: 0.00037217140197753906
ell 560, elapsed: 0.0003800392150878906
ell 559, elapsed: 0.00037407875061035156
ell 558, elapsed: 0.0004119873046875
ell 557, elapsed: 0.0003771781921386719
ell 556, elapsed: 0.0003719329833984375
ell 555, elapsed: 0.00037789344787597656
ell 554, elapsed: 0.0003731250762939453
ell 553, elapsed: 0.00037789344787597656
ell 552, elapsed: 0.0003750324249267578
ell 551, elapsed: 0.0003681182861328125
ell 550, elapsed: 0.0003840923309326172
ell 549, elapsed: 0.0004200935363769531
ell 548, elapsed: 0.00038504600524902344
ell 547, elapsed: 0.00037598609924316406
ell 546, elapsed: 0.0003731250762939453
ell 545, elapsed: 0.0003859996795654297
ell 544, elapsed: 0.0003731250762939453
ell 543, elapsed: 0.0003859996795654297
ell 542, elapsed: 0.0003559589385986328
ell 541, elapsed: 0.0002830028533935547
ell 540, elapsed: 0.0002808570861816406
ell 539, elapsed: 0.0004911422729492188
ell 538, elapsed: 0.0003821849822998047
ell 537, elapsed: 0.0003788471221923828
ell 536, elapsed: 0.0003650188446044922
ell 535, elapsed: 0.00038504600524902344
ell 534, elapsed: 0.0003790855407714844
ell 533, elapsed: 0.00041103363037109375
ell 532, elapsed: 0.00037384033203125
ell 531, elapsed: 0.0003731250762939453
ell 530, elapsed: 0.0004200935363769531
ell 529, elapsed: 0.0003800392150878906
ell 528, elapsed: 0.0003809928894042969
ell 527, elapsed: 0.0003731250762939453
ell 526, elapsed: 0.0003750324249267578
ell 525, elapsed: 0.0003750324249267578
ell 524, elapsed: 0.00037789344787597656
ell 523, elapsed: 0.0003941059112548828
ell 522, elapsed: 0.0003750324249267578
ell 521, elapsed: 0.0003619194030761719
ell 520, elapsed: 0.0002949237823486328
ell 519, elapsed: 0.0002961158752441406
ell 518, elapsed: 0.00030803680419921875
ell 517, elapsed: 0.0002899169921875
ell 516, elapsed: 0.0002989768981933594
ell 515, elapsed: 0.0002949237823486328
ell 514, elapsed: 0.0002949237823486328
ell 513, elapsed: 0.0002980232238769531
ell 512, elapsed: 0.0002980232238769531
ell 511, elapsed: 0.0002980232238769531
ell 510, elapsed: 0.00029087066650390625
ell 509, elapsed: 0.0002911090850830078
ell 508, elapsed: 0.0003731250762939453
ell 507, elapsed: 0.0002989768981933594
ell 506, elapsed: 0.0003139972686767578
ell 505, elapsed: 0.00029206275939941406
ell 504, elapsed: 0.0002930164337158203
ell 503, elapsed: 0.00030112266540527344
ell 502, elapsed: 0.0002942085266113281
ell 501, elapsed: 0.0002970695495605469
ell 500, elapsed: 0.00036716461181640625
ell 499, elapsed: 0.00029397010803222656
ell 498, elapsed: 0.0002999305725097656
ell 497, elapsed: 0.0002918243408203125
ell 496, elapsed: 0.00032019615173339844
ell 495, elapsed: 0.00029087066650390625
ell 494, elapsed: 0.0003008842468261719
ell 493, elapsed: 0.00028896331787109375
ell 492, elapsed: 0.00029087066650390625
ell 491, elapsed: 0.0002949237823486328
ell 490, elapsed: 0.0002942085266113281
ell 489, elapsed: 0.0002989768981933594
ell 488, elapsed: 0.00028896331787109375
ell 487, elapsed: 0.00028896331787109375
ell 486, elapsed: 0.0002951622009277344
ell 485, elapsed: 0.00030493736267089844
ell 484, elapsed: 0.0002970695495605469
ell 483, elapsed: 0.0002980232238769531
ell 482, elapsed: 0.00029087066650390625
ell 481, elapsed: 0.0003008842468261719
ell 480, elapsed: 0.0002880096435546875
ell 479, elapsed: 0.0003008842468261719
ell 478, elapsed: 0.00029087066650390625
ell 477, elapsed: 0.0002980232238769531
ell 476, elapsed: 0.0002961158752441406
ell 475, elapsed: 0.00029206275939941406
ell 474, elapsed: 0.0002961158752441406
ell 473, elapsed: 0.0002949237823486328
ell 472, elapsed: 0.0002899169921875
ell 471, elapsed: 0.00037097930908203125
ell 470, elapsed: 0.0002911090850830078
ell 469, elapsed: 0.0003218650817871094
ell 468, elapsed: 0.00029087066650390625
ell 467, elapsed: 0.0002961158752441406
ell 466, elapsed: 0.0003039836883544922
ell 465, elapsed: 0.0003058910369873047
ell 464, elapsed: 0.0002930164337158203
ell 463, elapsed: 0.0002880096435546875
ell 462, elapsed: 0.00029206275939941406
ell 461, elapsed: 0.0003018379211425781
ell 460, elapsed: 0.00028586387634277344
ell 459, elapsed: 0.0002999305725097656
ell 458, elapsed: 0.0003161430358886719
ell 457, elapsed: 0.0002989768981933594
ell 456, elapsed: 0.0002899169921875
ell 455, elapsed: 0.00029206275939941406
ell 454, elapsed: 0.00029397010803222656
ell 453, elapsed: 0.0002880096435546875
ell 452, elapsed: 0.00029397010803222656
ell 451, elapsed: 0.00028777122497558594
ell 450, elapsed: 0.00028586387634277344
ell 449, elapsed: 0.0002930164337158203
ell 448, elapsed: 0.00029015541076660156
ell 447, elapsed: 0.00029206275939941406
ell 446, elapsed: 0.00028896331787109375
ell 445, elapsed: 0.00032711029052734375
ell 444, elapsed: 0.0002949237823486328
ell 443, elapsed: 0.00028705596923828125
ell 442, elapsed: 0.0002980232238769531
ell 441, elapsed: 0.00028395652770996094
ell 440, elapsed: 0.00028705596923828125
ell 439, elapsed: 0.00028586387634277344
ell 438, elapsed: 0.00028705596923828125
ell 437, elapsed: 0.0002930164337158203
ell 436, elapsed: 0.00028705596923828125
ell 435, elapsed: 0.00029206275939941406
ell 434, elapsed: 0.00029206275939941406
ell 433, elapsed: 0.00028896331787109375
ell 432, elapsed: 0.0002961158752441406
ell 431, elapsed: 0.0002880096435546875
ell 430, elapsed: 0.0002911090850830078
ell 429, elapsed: 0.0002849102020263672
ell 428, elapsed: 0.00028586387634277344
ell 427, elapsed: 0.0002899169921875
ell 426, elapsed: 0.0002951622009277344
ell 425, elapsed: 0.0002942085266113281
ell 424, elapsed: 0.0002930164337158203
ell 423, elapsed: 0.00029206275939941406
ell 422, elapsed: 0.00029587745666503906
ell 421, elapsed: 0.0002892017364501953
ell 420, elapsed: 0.0002961158752441406
ell 419, elapsed: 0.0002961158752441406
ell 418, elapsed: 0.00029015541076660156
ell 417, elapsed: 0.0002560615539550781
ell 416, elapsed: 0.0002448558807373047
ell 415, elapsed: 0.0002560615539550781
ell 414, elapsed: 0.00024390220642089844
ell 413, elapsed: 0.0002460479736328125
ell 412, elapsed: 0.0002560615539550781
ell 411, elapsed: 0.0002460479736328125
ell 410, elapsed: 0.0002601146697998047
ell 409, elapsed: 0.000247955322265625
ell 408, elapsed: 0.00024509429931640625
ell 407, elapsed: 0.0002541542053222656
ell 406, elapsed: 0.00024700164794921875
ell 405, elapsed: 0.0003058910369873047
ell 404, elapsed: 0.0002779960632324219
ell 403, elapsed: 0.0002529621124267578
ell 402, elapsed: 0.00024509429931640625
ell 401, elapsed: 0.0002491474151611328
ell 400, elapsed: 0.0002551078796386719
ell 399, elapsed: 0.0003139972686767578
ell 398, elapsed: 0.00031304359436035156
ell 397, elapsed: 0.0003039836883544922
ell 396, elapsed: 0.00030493736267089844
ell 395, elapsed: 0.00031495094299316406
ell 394, elapsed: 0.00030112266540527344
ell 393, elapsed: 0.00030994415283203125
ell 392, elapsed: 0.0003521442413330078
ell 391, elapsed: 0.00030112266540527344
ell 390, elapsed: 0.00030493736267089844
ell 389, elapsed: 0.0002989768981933594
ell 388, elapsed: 0.0003008842468261719
ell 387, elapsed: 0.0002968311309814453
ell 386, elapsed: 0.00029587745666503906
ell 385, elapsed: 0.0002930164337158203
ell 384, elapsed: 0.00028705596923828125
ell 383, elapsed: 0.00030303001403808594
ell 382, elapsed: 0.0003039836883544922
ell 381, elapsed: 0.0002949237823486328
ell 380, elapsed: 0.00030422210693359375
ell 379, elapsed: 0.0003349781036376953
ell 378, elapsed: 0.000308990478515625
ell 377, elapsed: 0.00030303001403808594
ell 376, elapsed: 0.0003139972686767578
ell 375, elapsed: 0.0003001689910888672
ell 374, elapsed: 0.0003039836883544922
ell 373, elapsed: 0.000308990478515625
ell 372, elapsed: 0.00030112266540527344
ell 371, elapsed: 0.00030517578125
ell 370, elapsed: 0.0002970695495605469
ell 369, elapsed: 0.00030303001403808594
ell 368, elapsed: 0.00030493736267089844
ell 367, elapsed: 0.0003268718719482422
ell 366, elapsed: 0.00030684471130371094
ell 365, elapsed: 0.0002968311309814453
ell 364, elapsed: 0.0002980232238769531
ell 363, elapsed: 0.0003070831298828125
ell 362, elapsed: 0.0002980232238769531
ell 361, elapsed: 0.00030517578125
ell 360, elapsed: 0.0002989768981933594
ell 359, elapsed: 0.00031685829162597656
ell 358, elapsed: 0.0003018379211425781
ell 357, elapsed: 0.00029778480529785156
ell 356, elapsed: 0.0003058910369873047
ell 355, elapsed: 0.000347137451171875
ell 354, elapsed: 0.00030493736267089844
ell 353, elapsed: 0.0003058910369873047
ell 352, elapsed: 0.0002968311309814453
ell 351, elapsed: 0.0003020763397216797
ell 350, elapsed: 0.00029397010803222656
ell 349, elapsed: 0.0003058910369873047
ell 348, elapsed: 0.0002930164337158203
ell 347, elapsed: 0.0002970695495605469
ell 346, elapsed: 0.00030493736267089844
ell 345, elapsed: 0.0003018379211425781
ell 344, elapsed: 0.00030994415283203125
ell 343, elapsed: 0.00030803680419921875
ell 342, elapsed: 0.0003478527069091797
ell 341, elapsed: 0.00030517578125
ell 340, elapsed: 0.000286102294921875
ell 339, elapsed: 0.0002999305725097656
ell 338, elapsed: 0.0002849102020263672
ell 337, elapsed: 0.00029397010803222656
ell 336, elapsed: 0.00029397010803222656
ell 335, elapsed: 0.0002849102020263672
ell 334, elapsed: 0.0002930164337158203
ell 333, elapsed: 0.0002968311309814453
ell 332, elapsed: 0.0002961158752441406
ell 331, elapsed: 0.0003018379211425781
ell 330, elapsed: 0.0003478527069091797
ell 329, elapsed: 0.0003101825714111328
ell 328, elapsed: 0.0003008842468261719
ell 327, elapsed: 0.0002980232238769531
ell 326, elapsed: 0.0003039836883544922
ell 325, elapsed: 0.0003020763397216797
ell 324, elapsed: 0.0003120899200439453
ell 323, elapsed: 0.0002980232238769531
ell 322, elapsed: 0.0003008842468261719
ell 321, elapsed: 0.00030684471130371094
ell 320, elapsed: 0.0002930164337158203
ell 319, elapsed: 0.0003020763397216797
ell 318, elapsed: 0.0002930164337158203
ell 317, elapsed: 0.0003299713134765625
ell 316, elapsed: 0.0002970695495605469
ell 315, elapsed: 0.0002918243408203125
ell 314, elapsed: 0.00030612945556640625
ell 313, elapsed: 0.00029397010803222656
ell 312, elapsed: 0.0003001689910888672
ell 311, elapsed: 0.0002949237823486328
ell 310, elapsed: 0.00029397010803222656
ell 309, elapsed: 0.00030612945556640625
ell 308, elapsed: 0.0002999305725097656
ell 307, elapsed: 0.0003058910369873047
ell 306, elapsed: 0.00030612945556640625
ell 305, elapsed: 0.0003299713134765625
ell 304, elapsed: 0.00030994415283203125
ell 303, elapsed: 0.0003001689910888672
ell 302, elapsed: 0.0003039836883544922
ell 301, elapsed: 0.00029397010803222656
ell 300, elapsed: 0.0002930164337158203
ell 299, elapsed: 0.0003058910369873047
ell 298, elapsed: 0.0003001689910888672
ell 297, elapsed: 0.00030612945556640625
ell 296, elapsed: 0.00030803680419921875
ell 295, elapsed: 0.00030112266540527344
ell 294, elapsed: 0.0003101825714111328
ell 293, elapsed: 0.0002999305725097656
ell 292, elapsed: 0.0003490447998046875
ell 291, elapsed: 0.0003020763397216797
ell 290, elapsed: 0.0002949237823486328
ell 289, elapsed: 0.00030803680419921875
ell 288, elapsed: 0.0002961158752441406
ell 287, elapsed: 0.00030803680419921875
ell 286, elapsed: 0.0003008842468261719
ell 285, elapsed: 0.0003020763397216797
ell 284, elapsed: 0.00030803680419921875
ell 283, elapsed: 0.0003039836883544922
ell 282, elapsed: 0.00030803680419921875
ell 281, elapsed: 0.0002980232238769531
ell 280, elapsed: 0.0003249645233154297
ell 279, elapsed: 0.0002961158752441406
ell 278, elapsed: 0.00029087066650390625
ell 277, elapsed: 0.0003077983856201172
ell 276, elapsed: 0.0002970695495605469
ell 275, elapsed: 0.0002989768981933594
ell 274, elapsed: 0.0003020763397216797
ell 273, elapsed: 0.0002980232238769531
ell 272, elapsed: 0.0003008842468261719
ell 271, elapsed: 0.0002980232238769531
ell 270, elapsed: 0.00030517578125
ell 269, elapsed: 0.00030303001403808594
ell 268, elapsed: 0.0003337860107421875
ell 267, elapsed: 0.0003249645233154297
ell 266, elapsed: 0.0003058910369873047
ell 265, elapsed: 0.0003039836883544922
ell 264, elapsed: 0.00029206275939941406
ell 263, elapsed: 0.0002949237823486328
ell 262, elapsed: 0.0003120899200439453
ell 261, elapsed: 0.0002999305725097656
ell 260, elapsed: 0.0003101825714111328
ell 259, elapsed: 0.0002930164337158203
ell 258, elapsed: 0.00030994415283203125
ell 257, elapsed: 0.00029087066650390625
ell 256, elapsed: 0.0002980232238769531
ell 255, elapsed: 0.00034499168395996094
ell 254, elapsed: 0.0002980232238769531
ell 253, elapsed: 0.0002989768981933594
ell 252, elapsed: 0.0002970695495605469
ell 251, elapsed: 0.0002999305725097656
ell 250, elapsed: 0.0003018379211425781
ell 249, elapsed: 0.0002951622009277344
ell 248, elapsed: 0.0003020763397216797
ell 247, elapsed: 0.0002949237823486328
ell 246, elapsed: 0.00030303001403808594
ell 245, elapsed: 0.00030612945556640625
ell 244, elapsed: 0.0003020763397216797
ell 243, elapsed: 0.0003409385681152344
ell 242, elapsed: 0.00029587745666503906
ell 241, elapsed: 0.0002970695495605469
ell 240, elapsed: 0.0003070831298828125
ell 239, elapsed: 0.00029206275939941406
ell 238, elapsed: 0.0003018379211425781
ell 237, elapsed: 0.00028777122497558594
ell 236, elapsed: 0.0003161430358886719
ell 235, elapsed: 0.0003108978271484375
ell 234, elapsed: 0.00030112266540527344
ell 233, elapsed: 0.0003180503845214844
ell 232, elapsed: 0.00029587745666503906
ell 231, elapsed: 0.0002918243408203125
ell 230, elapsed: 0.0003619194030761719
ell 229, elapsed: 0.00028705596923828125
ell 228, elapsed: 0.0003120899200439453
ell 227, elapsed: 0.00030112266540527344
ell 226, elapsed: 0.00030994415283203125
ell 225, elapsed: 0.0003001689910888672
ell 224, elapsed: 0.0002961158752441406
ell 223, elapsed: 0.0003058910369873047
ell 222, elapsed: 0.0002951622009277344
ell 221, elapsed: 0.000308990478515625
ell 220, elapsed: 0.00029087066650390625
ell 219, elapsed: 0.0002970695495605469
ell 218, elapsed: 0.00034618377685546875
ell 217, elapsed: 0.00030303001403808594
ell 216, elapsed: 0.0002999305725097656
ell 215, elapsed: 0.00029397010803222656
ell 214, elapsed: 0.0002980232238769531
ell 213, elapsed: 0.00030303001403808594
ell 212, elapsed: 0.0002930164337158203
ell 211, elapsed: 0.0003039836883544922
ell 210, elapsed: 0.00029587745666503906
ell 209, elapsed: 0.0002999305725097656
ell 208, elapsed: 0.0003151893615722656
ell 207, elapsed: 0.0003008842468261719
ell 206, elapsed: 0.0003070831298828125
ell 205, elapsed: 0.0002999305725097656
ell 204, elapsed: 0.0002942085266113281
ell 203, elapsed: 0.0003120899200439453
ell 202, elapsed: 0.0003039836883544922
ell 201, elapsed: 0.0003058910369873047
ell 200, elapsed: 0.0002970695495605469
ell 199, elapsed: 0.0003020763397216797
ell 198, elapsed: 0.00030612945556640625
ell 197, elapsed: 0.0002951622009277344
ell 196, elapsed: 0.0003108978271484375
ell 195, elapsed: 0.0003018379211425781
ell 194, elapsed: 0.0002961158752441406
ell 193, elapsed: 0.00031495094299316406
ell 192, elapsed: 0.0002868175506591797
ell 191, elapsed: 0.0002961158752441406
ell 190, elapsed: 0.0002961158752441406
ell 189, elapsed: 0.0002880096435546875
ell 188, elapsed: 0.0002949237823486328
ell 187, elapsed: 0.00029206275939941406
ell 186, elapsed: 0.0002880096435546875
ell 185, elapsed: 0.00030303001403808594
ell 184, elapsed: 0.0003151893615722656
ell 183, elapsed: 0.0003228187561035156
ell 182, elapsed: 0.0002989768981933594
ell 181, elapsed: 0.0003228187561035156
ell 180, elapsed: 0.0002970695495605469
ell 179, elapsed: 0.00030112266540527344
ell 178, elapsed: 0.00028896331787109375
ell 177, elapsed: 0.0002949237823486328
ell 176, elapsed: 0.0002980232238769531
ell 175, elapsed: 0.0003039836883544922
ell 174, elapsed: 0.00030803680419921875
ell 173, elapsed: 0.0002918243408203125
ell 172, elapsed: 0.0002951622009277344
ell 171, elapsed: 0.00026798248291015625
ell 170, elapsed: 0.00026297569274902344
ell 169, elapsed: 0.00026988983154296875
ell 168, elapsed: 0.00028395652770996094
ell 167, elapsed: 0.00029397010803222656
ell 166, elapsed: 0.00028896331787109375
ell 165, elapsed: 0.0002951622009277344
ell 164, elapsed: 0.0002980232238769531
ell 163, elapsed: 0.00028896331787109375
ell 162, elapsed: 0.0002999305725097656
ell 161, elapsed: 0.0002930164337158203
ell 160, elapsed: 0.0002949237823486328
ell 159, elapsed: 0.00030112266540527344
ell 158, elapsed: 0.0002999305725097656
ell 157, elapsed: 0.00030684471130371094
ell 156, elapsed: 0.0002968311309814453
ell 155, elapsed: 0.0003380775451660156
ell 154, elapsed: 0.00030803680419921875
ell 153, elapsed: 0.0002989768981933594
ell 152, elapsed: 0.00031304359436035156
ell 151, elapsed: 0.0002930164337158203
ell 150, elapsed: 0.0002918243408203125
ell 149, elapsed: 0.0003139972686767578
ell 148, elapsed: 0.0002951622009277344
ell 147, elapsed: 0.0003018379211425781
ell 146, elapsed: 0.0002968311309814453
ell 145, elapsed: 0.0002951622009277344
ell 144, elapsed: 0.0003020763397216797
ell 143, elapsed: 0.00033283233642578125
ell 142, elapsed: 0.0003027915954589844
ell 141, elapsed: 0.0002989768981933594
ell 140, elapsed: 0.0002970695495605469
ell 139, elapsed: 0.00031495094299316406
ell 138, elapsed: 0.00030112266540527344
ell 137, elapsed: 0.00030493736267089844
ell 136, elapsed: 0.0002930164337158203
ell 135, elapsed: 0.0003039836883544922
ell 134, elapsed: 0.0002930164337158203
ell 133, elapsed: 0.00029397010803222656
ell 132, elapsed: 0.0002949237823486328
ell 131, elapsed: 0.0002961158752441406
ell 130, elapsed: 0.004523038864135742
ell 129, elapsed: 0.00030803680419921875
ell 128, elapsed: 0.0002961158752441406
ell 127, elapsed: 0.0002980232238769531
ell 126, elapsed: 0.0002999305725097656
ell 125, elapsed: 0.00030493736267089844
ell 124, elapsed: 0.0003020763397216797
ell 123, elapsed: 0.0003020763397216797
ell 122, elapsed: 0.00030684471130371094
ell 121, elapsed: 0.0003008842468261719
ell 120, elapsed: 0.0003039836883544922
ell 119, elapsed: 0.0003330707550048828
ell 118, elapsed: 0.0002970695495605469
ell 117, elapsed: 0.0002949237823486328
ell 116, elapsed: 0.0002970695495605469
ell 115, elapsed: 0.00028896331787109375
ell 114, elapsed: 0.0003001689910888672
ell 113, elapsed: 0.00030303001403808594
ell 112, elapsed: 0.0002999305725097656
ell 111, elapsed: 0.0002999305725097656
ell 110, elapsed: 0.000308990478515625
ell 109, elapsed: 0.00030112266540527344
ell 108, elapsed: 0.0003020763397216797
ell 107, elapsed: 0.0002980232238769531
ell 106, elapsed: 0.0003399848937988281
ell 105, elapsed: 0.0002980232238769531
ell 104, elapsed: 0.0002980232238769531
ell 103, elapsed: 0.00030303001403808594
ell 102, elapsed: 0.0002989768981933594
ell 101, elapsed: 0.0003001689910888672
ell 100, elapsed: 0.0002999305725097656
ell 99, elapsed: 0.0002999305725097656
ell 98, elapsed: 0.00030303001403808594
ell 97, elapsed: 0.0002980232238769531
ell 96, elapsed: 0.0002911090850830078
ell 95, elapsed: 0.0002999305725097656
ell 94, elapsed: 0.00032210350036621094
ell 93, elapsed: 0.0002989768981933594
ell 92, elapsed: 0.0002880096435546875
ell 91, elapsed: 0.00029397010803222656
ell 90, elapsed: 0.00029587745666503906
ell 89, elapsed: 0.0002930164337158203
ell 88, elapsed: 0.00029587745666503906
ell 87, elapsed: 0.00029206275939941406
ell 86, elapsed: 0.0002949237823486328
ell 85, elapsed: 0.00029087066650390625
ell 84, elapsed: 0.0002989768981933594
ell 83, elapsed: 0.0002999305725097656
ell 82, elapsed: 0.0003399848937988281
ell 81, elapsed: 0.0003008842468261719
ell 80, elapsed: 0.0002968311309814453
ell 79, elapsed: 0.00029397010803222656
ell 78, elapsed: 0.0002999305725097656
ell 77, elapsed: 0.0002999305725097656
ell 76, elapsed: 0.0002999305725097656
ell 75, elapsed: 0.0002968311309814453
ell 74, elapsed: 0.0002980232238769531
ell 73, elapsed: 0.0003058910369873047
ell 72, elapsed: 0.0002911090850830078
ell 71, elapsed: 0.0002989768981933594
ell 70, elapsed: 0.00029206275939941406
ell 69, elapsed: 0.00035190582275390625
ell 68, elapsed: 0.0003020763397216797
ell 67, elapsed: 0.0002970695495605469
ell 66, elapsed: 0.0002980232238769531
ell 65, elapsed: 0.0002951622009277344
ell 64, elapsed: 0.0002968311309814453
ell 63, elapsed: 0.00030994415283203125
ell 62, elapsed: 0.00030803680419921875
ell 61, elapsed: 0.0003190040588378906
ell 60, elapsed: 0.00029397010803222656
ell 59, elapsed: 0.0002951622009277344
ell 58, elapsed: 0.0002951622009277344
ell 57, elapsed: 0.0003418922424316406
ell 56, elapsed: 0.0003039836883544922
ell 55, elapsed: 0.00029778480529785156
ell 54, elapsed: 0.0003008842468261719
ell 53, elapsed: 0.0003018379211425781
ell 52, elapsed: 0.0002980232238769531
ell 51, elapsed: 0.0002949237823486328
ell 50, elapsed: 0.0002980232238769531
ell 49, elapsed: 0.0003190040588378906
ell 48, elapsed: 0.00030112266540527344
ell 47, elapsed: 0.0002989768981933594
ell 46, elapsed: 0.0002970695495605469
ell 45, elapsed: 0.0002961158752441406
ell 44, elapsed: 0.00043201446533203125
ell 43, elapsed: 0.0002980232238769531
ell 42, elapsed: 0.0002980232238769531
ell 41, elapsed: 0.0003070831298828125
ell 40, elapsed: 0.0002949237823486328
ell 39, elapsed: 0.0002989768981933594
ell 38, elapsed: 0.0002989768981933594
ell 37, elapsed: 0.0002949237823486328
ell 36, elapsed: 0.0002961158752441406
ell 35, elapsed: 0.0002970695495605469
ell 34, elapsed: 0.0002968311309814453
ell 33, elapsed: 0.0002961158752441406
ell 32, elapsed: 0.00034999847412109375
ell 31, elapsed: 0.0003008842468261719
ell 30, elapsed: 0.00029397010803222656
ell 29, elapsed: 0.0002949237823486328
ell 28, elapsed: 0.00029206275939941406
ell 27, elapsed: 0.0002980232238769531
ell 26, elapsed: 0.0002942085266113281
ell 25, elapsed: 0.00028896331787109375
ell 24, elapsed: 0.0002918243408203125
ell 23, elapsed: 0.0002968311309814453
ell 22, elapsed: 0.00029587745666503906
ell 21, elapsed: 0.0002999305725097656
ell 20, elapsed: 0.0003371238708496094
ell 19, elapsed: 0.0003108978271484375
ell 18, elapsed: 0.0002989768981933594
ell 17, elapsed: 0.0002980232238769531
ell 16, elapsed: 0.0002970695495605469
ell 15, elapsed: 0.0002980232238769531
ell 14, elapsed: 0.0002999305725097656
ell 13, elapsed: 0.0002951622009277344
ell 12, elapsed: 0.0002980232238769531
ell 11, elapsed: 0.0002980232238769531
ell 10, elapsed: 0.0002989768981933594
ell 9, elapsed: 0.0002961158752441406
ell 8, elapsed: 0.00029587745666503906
ell 7, elapsed: 0.00035881996154785156
ell 6, elapsed: 0.0003020763397216797
ell 5, elapsed: 0.0002980232238769531
ell 4, elapsed: 0.0002999305725097656
ell 3, elapsed: 0.0002911090850830078
ell 2, elapsed: 0.0002970695495605469
ell 1, elapsed: 0.00029397010803222656
ell 0, elapsed: 0.0003039836883544922
  0.434546 seconds (46.03 k allocations: 3.091 MiB, 7.39% compilation time)
elapsed: 0.00035309791564941406
step:          0.048462 sec (0 allocations: 0 byte, 0.0% gc time)
swapping:      0.000401 sec (0 allocations: 0 byte, 0.0% gc time)
calc_Mellell!: 0.005851 sec (0 allocations: 0 byte, 0.0% gc time)
  t0 :  0.001375 sec (0 allocations: 0 byte, 0.0% gc time)
  tm2 : 0.079066 sec (0 allocations: 0 byte, 0.0% gc time)
  tm2s: 0.00098 sec (0 allocations: 0 byte, 0.0% gc time)
  tm4 : 0.167445 sec (0 allocations: 0 byte, 0.0% gc time)
  tp2 : 0.0 sec (0 allocations: 0 byte, 0.0% gc time)
  tp2s: 0.0 sec (0 allocations: 0 byte, 0.0% gc time)
  tp4 : 0.0 sec (0 allocations: 0 byte, 0.0% gc time)
calc_wtdll!:   0.283277 sec (9.9 k allocations: 1.047 MB, 0.0% gc time)
calc_wljj!:    0.021216 sec (689 allocations: 10.766 KB, 0.0% gc time)
mult_prefac!:  0.0 sec (0 allocations: 0 byte, 0.0% gc time)
convert:       0.0 sec (0 allocations: 0 byte, 0.0% gc time)
write:         0.030763 sec (0 allocations: 0 byte, 0.0% gc time)
test_rand_2f1: 0.0 sec (0 allocations: 0 byte, 0.0% gc time)
Closing outfile out/Ml21-cache.bin...   0.000010 seconds
  0.000360 seconds (36 allocations: 27.953 KiB)
make_phi():   0.001516 seconds (8.18 k allocations: 237.844 KiB)
  0.112046 seconds (141.90 k allocations: 3.483 MiB)
tskip:       0.000593 sec (0 allocations: 0 byte, 0.0% gc time)
tread:       0.020974 sec (17 allocations: 10.641 KB, 0.0% gc time)
tmultphi:    0.008514 sec (0 allocations: 0 byte, 0.0% gc time)
tbrfft:      0.031116 sec (0 allocations: 0 byte, 0.0% gc time)
tmultprefac: 0.015012 sec (0 allocations: 0 byte, 0.0% gc time)
toutfunc:    0.032539 sec (127.507 k allocations: 2.312 MB, 0.0% gc time)
Testing R=1.0 ... passed
Calculating fmax: 
  dlrec    = 4
  dlrecRg1 = -4
  q=1.1, R=0.9:	  0.241447 seconds (105.72 k allocations: 15.273 MiB)

  0.241587 seconds (105.77 k allocations: 15.306 MiB)
ℓ = 1202
Δℓ = 4
ΔℓRg1 = -4
N = 1600
q = 1.1
kmin = 1.0e-5
kmax = 100000.00000000004
χ0 = 0.023029999999999995
RR = RR.tsv
ℓmax = ℓmax.bin
f21 = f21.bin
kmin = 1.0e-5
kmax = 100000.0
dlrec    = 4
dlrecRg1 = -4
Output size: 5741568 bytes = 0.005347251892089844 GiB
Output size: 51264 bytes = 4.774332046508789e-5 GiB
Reading 'out/F21EllCache'...   0.000875 seconds (197 allocations: 84.203 KiB)
ellmax: 1202
lmaxcache: 1202
fell[:,1,1] = ComplexF64[1.3482014726274674e-57 - 3.302141236118086e-73im, 1.357860004724329e-57 - 3.3257978169518355e-73im]
ell 1202, elapsed: 1.811981201171875e-5
ell 1201, elapsed: 0.0002849102020263672
ell 1200, elapsed: 0.0003180503845214844
ell 1199, elapsed: 0.00026106834411621094
ell 1198, elapsed: 0.00026106834411621094
ell 1002, elapsed: 0.008260011672973633
ell 1001, elapsed: 0.00026798248291015625
ell 1000, elapsed: 0.0002601146697998047
ell 999, elapsed: 0.00024890899658203125
ell 998, elapsed: 0.0002601146697998047
ell 902, elapsed: 0.004216909408569336
ell 901, elapsed: 0.0002689361572265625
ell 900, elapsed: 0.0002651214599609375
ell 899, elapsed: 0.00026297569274902344
ell 898, elapsed: 0.0002639293670654297
ell 802, elapsed: 0.0043680667877197266
ell 801, elapsed: 0.00028896331787109375
ell 800, elapsed: 0.0002620220184326172
ell 799, elapsed: 0.0002579689025878906
ell 798, elapsed: 0.0002620220184326172
ell 702, elapsed: 0.004180908203125
ell 701, elapsed: 0.0010380744934082031
ell 700, elapsed: 0.0002720355987548828
ell 699, elapsed: 0.0002658367156982422
ell 698, elapsed: 0.0002589225769042969
ell 602, elapsed: 0.004287004470825195
ell 601, elapsed: 0.00026798248291015625
ell 600, elapsed: 0.0002911090850830078
ell 599, elapsed: 0.0002639293670654297
ell 598, elapsed: 0.0002639293670654297
ell 502, elapsed: 0.004125118255615234
ell 501, elapsed: 0.0002620220184326172
ell 500, elapsed: 0.0002529621124267578
ell 499, elapsed: 0.00025200843811035156
ell 498, elapsed: 0.0002551078796386719
ell 402, elapsed: 0.0041120052337646484
ell 401, elapsed: 0.0002560615539550781
ell 400, elapsed: 0.00025081634521484375
ell 399, elapsed: 0.00025200843811035156
ell 398, elapsed: 0.00025200843811035156
ell 302, elapsed: 0.004084110260009766
ell 301, elapsed: 0.00026106834411621094
ell 300, elapsed: 0.00025391578674316406
ell 299, elapsed: 0.0002751350402832031
ell 298, elapsed: 0.0002529621124267578
ell 202, elapsed: 0.0042629241943359375
ell 201, elapsed: 0.00026988983154296875
ell 200, elapsed: 0.0002579689025878906
ell 199, elapsed: 0.0002598762512207031
ell 198, elapsed: 0.0002570152282714844
ell 152, elapsed: 0.002131223678588867
ell 151, elapsed: 0.0002720355987548828
ell 150, elapsed: 0.0002579689025878906
ell 149, elapsed: 0.0002548694610595703
ell 148, elapsed: 0.0002582073211669922
ell 127, elapsed: 0.0011119842529296875
ell 126, elapsed: 0.00025200843811035156
ell 125, elapsed: 0.00025391578674316406
ell 124, elapsed: 0.0002579689025878906
ell 123, elapsed: 0.0002529621124267578
ell 114, elapsed: 0.0006229877471923828
ell 113, elapsed: 0.0004420280456542969
ell 112, elapsed: 0.0002548694610595703
ell 111, elapsed: 0.00025391578674316406
ell 110, elapsed: 0.0002551078796386719
ell 102, elapsed: 0.0005769729614257812
ell 101, elapsed: 0.0002532005310058594
ell 100, elapsed: 0.0002529621124267578
ell 99, elapsed: 0.00025200843811035156
ell 98, elapsed: 0.00025200843811035156
ell 97, elapsed: 0.0002961158752441406
ell 96, elapsed: 0.0002980232238769531
ell 95, elapsed: 0.0002951622009277344
ell 94, elapsed: 0.00033211708068847656
ell 93, elapsed: 0.00029587745666503906
ell 92, elapsed: 0.0002961158752441406
ell 91, elapsed: 0.0027539730072021484
ell 90, elapsed: 0.0003731250762939453
ell 89, elapsed: 0.00033092498779296875
ell 88, elapsed: 0.00029397010803222656
ell 87, elapsed: 0.00029397010803222656
ell 86, elapsed: 0.00032401084899902344
ell 85, elapsed: 0.0003001689910888672
ell 84, elapsed: 0.0002980232238769531
ell 83, elapsed: 0.0002899169921875
ell 82, elapsed: 0.00034999847412109375
ell 81, elapsed: 0.0002980232238769531
ell 80, elapsed: 0.0003368854522705078
ell 79, elapsed: 0.0002980232238769531
ell 78, elapsed: 0.00034499168395996094
ell 77, elapsed: 0.00034689903259277344
ell 76, elapsed: 0.00030684471130371094
ell 75, elapsed: 0.0003039836883544922
ell 74, elapsed: 0.0003421306610107422
ell 73, elapsed: 0.0003039836883544922
ell 72, elapsed: 0.00031280517578125
ell 71, elapsed: 0.00030803680419921875
ell 70, elapsed: 0.0003459453582763672
ell 69, elapsed: 0.0003249645233154297
ell 68, elapsed: 0.0002980232238769531
ell 67, elapsed: 0.0003380775451660156
ell 66, elapsed: 0.0002989768981933594
ell 65, elapsed: 0.0003018379211425781
ell 64, elapsed: 0.0003018379211425781
ell 63, elapsed: 0.00030112266540527344
ell 62, elapsed: 0.00034499168395996094
ell 61, elapsed: 0.0003008842468261719
ell 60, elapsed: 0.00032401084899902344
ell 59, elapsed: 0.0002930164337158203
ell 58, elapsed: 0.00033593177795410156
ell 57, elapsed: 0.0002999305725097656
ell 56, elapsed: 0.00032520294189453125
ell 55, elapsed: 0.00030303001403808594
ell 54, elapsed: 0.0007920265197753906
ell 53, elapsed: 0.00030803680419921875
ell 52, elapsed: 0.0003039836883544922
ell 51, elapsed: 0.000347137451171875
ell 50, elapsed: 0.0003190040588378906
ell 49, elapsed: 0.00030303001403808594
ell 48, elapsed: 0.00029087066650390625
ell 47, elapsed: 0.0003521442413330078
ell 46, elapsed: 0.00029087066650390625
ell 45, elapsed: 0.0003368854522705078
ell 44, elapsed: 0.0002880096435546875
ell 43, elapsed: 0.00033211708068847656
ell 42, elapsed: 0.00028705596923828125
ell 41, elapsed: 0.0003018379211425781
ell 40, elapsed: 0.0003039836883544922
ell 39, elapsed: 0.0002980232238769531
ell 38, elapsed: 0.0003688335418701172
ell 37, elapsed: 0.0003249645233154297
ell 36, elapsed: 0.0003268718719482422
ell 35, elapsed: 0.00030684471130371094
ell 34, elapsed: 0.0003039836883544922
ell 33, elapsed: 0.000308990478515625
ell 32, elapsed: 0.0002899169921875
ell 31, elapsed: 0.003309011459350586
ell 30, elapsed: 0.00030493736267089844
ell 29, elapsed: 0.00034499168395996094
ell 28, elapsed: 0.0007710456848144531
ell 27, elapsed: 0.0003058910369873047
ell 26, elapsed: 0.00029397010803222656
ell 25, elapsed: 0.0003027915954589844
ell 24, elapsed: 0.000370025634765625
ell 23, elapsed: 0.00030803680419921875
ell 22, elapsed: 0.0003027915954589844
ell 21, elapsed: 0.0002949237823486328
ell 20, elapsed: 0.0003390312194824219
ell 19, elapsed: 0.00028896331787109375
ell 18, elapsed: 0.000308990478515625
ell 17, elapsed: 0.00030112266540527344
ell 16, elapsed: 0.0002970695495605469
ell 15, elapsed: 0.00030112266540527344
ell 14, elapsed: 0.0003001689910888672
ell 13, elapsed: 0.0003039836883544922
ell 12, elapsed: 0.0003590583801269531
ell 11, elapsed: 0.00030112266540527344
ell 10, elapsed: 0.000331878662109375
ell 9, elapsed: 0.0002961158752441406
ell 8, elapsed: 0.0003409385681152344
ell 7, elapsed: 0.00029206275939941406
ell 6, elapsed: 0.003289937973022461
ell 5, elapsed: 0.0003170967102050781
ell 4, elapsed: 0.0003020763397216797
ell 3, elapsed: 0.0003418922424316406
ell 2, elapsed: 0.0002999305725097656
ell 1, elapsed: 0.0003039836883544922
ell 0, elapsed: 0.0003070831298828125
  0.105936 seconds (11.51 k allocations: 719.594 KiB)
elapsed: 0.0003631114959716797
step:          0.047698 sec (0 allocations: 0 byte, 0.0% gc time)
swapping:      0.00033 sec (0 allocations: 0 byte, 0.0% gc time)
calc_Mellell!: 0.00081 sec (0 allocations: 0 byte, 0.0% gc time)
  t0 :  0.000207 sec (0 allocations: 0 byte, 0.0% gc time)
  tm2 : 0.010768 sec (0 allocations: 0 byte, 0.0% gc time)
  tm2s: 0.000173 sec (0 allocations: 0 byte, 0.0% gc time)
  tm4 : 0.027195 sec (0 allocations: 0 byte, 0.0% gc time)
  tp2 : 0.0 sec (0 allocations: 0 byte, 0.0% gc time)
  tp2s: 0.0 sec (0 allocations: 0 byte, 0.0% gc time)
  tp4 : 0.0 sec (0 allocations: 0 byte, 0.0% gc time)
calc_wtdll!:   0.038732 sec (1.344 k allocations: 147.0 KB, 0.0% gc time)
calc_wljj!:    0.001989 sec (6 allocations: 96 byte, 0.0% gc time)
mult_prefac!:  0.0 sec (0 allocations: 0 byte, 0.0% gc time)
convert:       0.0 sec (0 allocations: 0 byte, 0.0% gc time)
write:         0.006453 sec (0 allocations: 0 byte, 0.0% gc time)
test_rand_2f1: 0.0 sec (0 allocations: 0 byte, 0.0% gc time)
Closing outfile out/Ml21-cache.bin...   0.000005 seconds
  0.000249 seconds (36 allocations: 27.953 KiB)
make_phi():   0.001565 seconds (8.18 k allocations: 237.844 KiB)
  0.010797 seconds (11.65 k allocations: 308.688 KiB)
tskip:       1.5e-5 sec (0 allocations: 0 byte, 0.0% gc time)
tread:       0.00194 sec (17 allocations: 2.125 KB, 0.0% gc time)
tmultphi:    0.000863 sec (0 allocations: 0 byte, 0.0% gc time)
tbrfft:      0.002956 sec (0 allocations: 0 byte, 0.0% gc time)
tmultprefac: 0.001494 sec (0 allocations: 0 byte, 0.0% gc time)
toutfunc:    0.003274 sec (10.304 k allocations: 196.0 KB, 0.0% gc time)
Testing R=0.9 ... passed
Calculating fmax: 
  dlrec    = 4
  dlrecRg1 = -4
  q=1.1, R=0.8:	  0.209595 seconds (103.21 k allocations: 14.840 MiB)

  0.209724 seconds (103.25 k allocations: 14.874 MiB)
ℓ = 1202
Δℓ = 4
ΔℓRg1 = -4
N = 1600
q = 1.1
kmin = 1.0e-5
kmax = 100000.00000000004
χ0 = 0.023029999999999995
RR = RR.tsv
ℓmax = ℓmax.bin
f21 = f21.bin
kmin = 1.0e-5
kmax = 100000.0
dlrec    = 4
dlrecRg1 = -4
Output size: 5741568 bytes = 0.005347251892089844 GiB
Output size: 51264 bytes = 4.774332046508789e-5 GiB
Reading 'out/F21EllCache'...   0.022199 seconds (197 allocations: 84.203 KiB, 94.46% gc time)
ellmax: 1202
lmaxcache: 1202
fell[:,1,1] = ComplexF64[7.519068145690986e-120 - 1.8416405474382574e-135im, 7.541664537386155e-120 - 1.847175067190611e-135im]
ell 1202, elapsed: 2.09808349609375e-5
ell 1201, elapsed: 0.0003170967102050781
ell 1200, elapsed: 0.00037217140197753906
ell 1199, elapsed: 0.0002810955047607422
ell 1198, elapsed: 0.0002789497375488281
ell 1002, elapsed: 0.008647918701171875
ell 1001, elapsed: 0.0002701282501220703
ell 1000, elapsed: 0.00026798248291015625
ell 999, elapsed: 0.0002570152282714844
ell 998, elapsed: 0.0002579689025878906
ell 902, elapsed: 0.004342079162597656
ell 901, elapsed: 0.0003859996795654297
ell 900, elapsed: 0.0002720355987548828
ell 899, elapsed: 0.00026297569274902344
ell 898, elapsed: 0.00026798248291015625
ell 802, elapsed: 0.004887104034423828
ell 801, elapsed: 0.0002651214599609375
ell 800, elapsed: 0.0002689361572265625
ell 799, elapsed: 0.00030803680419921875
ell 798, elapsed: 0.0002589225769042969
ell 702, elapsed: 0.004290103912353516
ell 701, elapsed: 0.00026702880859375
ell 700, elapsed: 0.00029206275939941406
ell 699, elapsed: 0.00031495094299316406
ell 698, elapsed: 0.0002701282501220703
ell 602, elapsed: 0.005774974822998047
ell 601, elapsed: 0.00026798248291015625
ell 600, elapsed: 0.0002970695495605469
ell 599, elapsed: 0.0002598762512207031
ell 598, elapsed: 0.0002651214599609375
ell 502, elapsed: 0.004243135452270508
ell 501, elapsed: 0.0004589557647705078
ell 500, elapsed: 0.0003039836883544922
ell 499, elapsed: 0.0002570152282714844
ell 498, elapsed: 0.0002589225769042969
ell 402, elapsed: 0.004433155059814453
ell 401, elapsed: 0.0002770423889160156
ell 400, elapsed: 0.0002830028533935547
ell 399, elapsed: 0.00026488304138183594
ell 398, elapsed: 0.000270843505859375
ell 302, elapsed: 0.004356861114501953
ell 301, elapsed: 0.0002658367156982422
ell 300, elapsed: 0.0003249645233154297
ell 299, elapsed: 0.00026607513427734375
ell 298, elapsed: 0.00026702880859375
ell 202, elapsed: 0.004343986511230469
ell 201, elapsed: 0.0002639293670654297
ell 200, elapsed: 0.00026798248291015625
ell 199, elapsed: 0.0002589225769042969
ell 198, elapsed: 0.000308990478515625
ell 152, elapsed: 0.002171039581298828
ell 151, elapsed: 0.0002570152282714844
ell 150, elapsed: 0.0003180503845214844
ell 149, elapsed: 0.0002620220184326172
ell 148, elapsed: 0.0002918243408203125
ell 127, elapsed: 0.0011539459228515625
ell 126, elapsed: 0.0002651214599609375
ell 125, elapsed: 0.00025582313537597656
ell 124, elapsed: 0.0002589225769042969
ell 123, elapsed: 0.00030303001403808594
ell 114, elapsed: 0.000720977783203125
ell 113, elapsed: 0.00025200843811035156
ell 112, elapsed: 0.0002949237823486328
ell 111, elapsed: 0.00028204917907714844
ell 110, elapsed: 0.00025916099548339844
ell 102, elapsed: 0.0005869865417480469
ell 101, elapsed: 0.00025391578674316406
ell 100, elapsed: 0.00025916099548339844
ell 99, elapsed: 0.0002551078796386719
ell 98, elapsed: 0.0002589225769042969
ell 97, elapsed: 0.0003769397735595703
ell 96, elapsed: 0.00041794776916503906
ell 95, elapsed: 0.00030112266540527344
ell 94, elapsed: 0.000308990478515625
ell 93, elapsed: 0.0003440380096435547
ell 92, elapsed: 0.00031304359436035156
ell 91, elapsed: 0.0002980232238769531
ell 90, elapsed: 0.00030612945556640625
ell 89, elapsed: 0.0003361701965332031
ell 88, elapsed: 0.0003421306610107422
ell 87, elapsed: 0.00030493736267089844
ell 86, elapsed: 0.0002989768981933594
ell 85, elapsed: 0.0003402233123779297
ell 84, elapsed: 0.00030112266540527344
ell 83, elapsed: 0.0003020763397216797
ell 82, elapsed: 0.0003139972686767578
ell 81, elapsed: 0.00034999847412109375
ell 80, elapsed: 0.0003190040588378906
ell 79, elapsed: 0.0003058910369873047
ell 78, elapsed: 0.0002999305725097656
ell 77, elapsed: 0.0003590583801269531
ell 76, elapsed: 0.0003299713134765625
ell 75, elapsed: 0.00030803680419921875
ell 74, elapsed: 0.00029778480529785156
ell 73, elapsed: 0.00034809112548828125
ell 72, elapsed: 0.00031113624572753906
ell 71, elapsed: 0.0002961158752441406
ell 70, elapsed: 0.000308990478515625
ell 69, elapsed: 0.0003418922424316406
ell 68, elapsed: 0.0002999305725097656
ell 67, elapsed: 0.0003070831298828125
ell 66, elapsed: 0.0002980232238769531
ell 65, elapsed: 0.00034499168395996094
ell 64, elapsed: 0.0003349781036376953
ell 63, elapsed: 0.00029778480529785156
ell 62, elapsed: 0.00031185150146484375
ell 61, elapsed: 0.0003628730773925781
ell 60, elapsed: 0.00031495094299316406
ell 59, elapsed: 0.00030803680419921875
ell 58, elapsed: 0.0002980232238769531
ell 57, elapsed: 0.00037288665771484375
ell 56, elapsed: 0.0002968311309814453
ell 55, elapsed: 0.00032782554626464844
[...]
ell 782, elapsed: 0.0007810592651367188
ell 781, elapsed: 0.00044989585876464844
ell 780, elapsed: 0.0004630088806152344
ell 779, elapsed: 0.0004448890686035156
ell 778, elapsed: 0.0005040168762207031
ell 772, elapsed: 0.0007638931274414062
ell 771, elapsed: 0.00044798851013183594
ell 770, elapsed: 0.00045800209045410156
ell 769, elapsed: 0.0004570484161376953
ell 768, elapsed: 0.0005140304565429688
ell 762, elapsed: 0.000926971435546875
ell 761, elapsed: 0.000598907470703125
ell 760, elapsed: 0.0005609989166259766
ell 759, elapsed: 0.0005528926849365234
ell 758, elapsed: 0.00055694580078125
ell 752, elapsed: 0.0009450912475585938
ell 751, elapsed: 0.0005490779876708984
ell 750, elapsed: 0.0006718635559082031
ell 749, elapsed: 0.0005490779876708984
ell 748, elapsed: 0.0005488395690917969
ell 742, elapsed: 0.0009319782257080078
ell 741, elapsed: 0.0005180835723876953
ell 740, elapsed: 0.0005440711975097656
ell 739, elapsed: 0.0005590915679931641
ell 738, elapsed: 0.0005369186401367188
ell 732, elapsed: 0.0007710456848144531
ell 731, elapsed: 0.00043702125549316406
ell 730, elapsed: 0.00045108795166015625
ell 729, elapsed: 0.0004379749298095703
ell 728, elapsed: 0.00044608116149902344
ell 722, elapsed: 0.0008020401000976562
ell 721, elapsed: 0.0005152225494384766
ell 720, elapsed: 0.0005230903625488281
ell 719, elapsed: 0.0005118846893310547
ell 718, elapsed: 0.0005190372467041016
ell 712, elapsed: 0.0009200572967529297
ell 711, elapsed: 0.0005178451538085938
ell 710, elapsed: 0.0005640983581542969
ell 709, elapsed: 0.0005478858947753906
ell 708, elapsed: 0.0005409717559814453
ell 702, elapsed: 0.0009069442749023438
ell 701, elapsed: 0.0005359649658203125
ell 700, elapsed: 0.0005469322204589844
ell 699, elapsed: 0.0005540847778320312
ell 698, elapsed: 0.0005459785461425781
ell 692, elapsed: 0.0009400844573974609
ell 691, elapsed: 0.0005350112915039062
ell 690, elapsed: 0.0005447864532470703
ell 689, elapsed: 0.0005369186401367188
ell 688, elapsed: 0.0005409717559814453
ell 682, elapsed: 0.0009908676147460938
ell 681, elapsed: 0.0005249977111816406
ell 680, elapsed: 0.000537872314453125
ell 679, elapsed: 0.0005381107330322266
ell 678, elapsed: 0.0005578994750976562
ell 672, elapsed: 0.0009601116180419922
ell 671, elapsed: 0.000514984130859375
ell 670, elapsed: 0.0006020069122314453
ell 669, elapsed: 0.0005950927734375
ell 668, elapsed: 0.0006048679351806641
ell 662, elapsed: 0.0011179447174072266
ell 661, elapsed: 0.0006320476531982422
ell 660, elapsed: 0.0006420612335205078
ell 659, elapsed: 0.0006289482116699219
ell 658, elapsed: 0.0006361007690429688
ell 652, elapsed: 0.0012640953063964844
ell 651, elapsed: 0.0006840229034423828
ell 650, elapsed: 0.0005559921264648438
ell 649, elapsed: 0.0005490779876708984
ell 648, elapsed: 0.0005540847778320312
ell 642, elapsed: 0.0012280941009521484
ell 641, elapsed: 0.0007870197296142578
ell 640, elapsed: 0.0005929470062255859
ell 639, elapsed: 0.0005550384521484375
ell 638, elapsed: 0.0005440711975097656
ell 632, elapsed: 0.0009570121765136719
ell 631, elapsed: 0.0005459785461425781
ell 630, elapsed: 0.0007500648498535156
ell 629, elapsed: 0.0006401538848876953
ell 628, elapsed: 0.0006389617919921875
ell 622, elapsed: 0.0011432170867919922
ell 621, elapsed: 0.0005390644073486328
ell 620, elapsed: 0.0005381107330322266
ell 619, elapsed: 0.0008499622344970703
ell 618, elapsed: 0.0005869865417480469
ell 612, elapsed: 0.0010077953338623047
ell 611, elapsed: 0.0005562305450439453
ell 610, elapsed: 0.0005650520324707031
ell 609, elapsed: 0.0007009506225585938
ell 608, elapsed: 0.0005581378936767578
ell 602, elapsed: 0.0011601448059082031
ell 601, elapsed: 0.0005431175231933594
ell 600, elapsed: 0.0005669593811035156
ell 599, elapsed: 0.0005419254302978516
ell 598, elapsed: 0.0007939338684082031
ell 592, elapsed: 0.0011739730834960938
ell 591, elapsed: 0.0005409717559814453
ell 590, elapsed: 0.0005350112915039062
ell 589, elapsed: 0.0005371570587158203
ell 588, elapsed: 0.0007829666137695312
ell 582, elapsed: 0.0010080337524414062
ell 581, elapsed: 0.0005450248718261719
ell 580, elapsed: 0.0005340576171875
ell 579, elapsed: 0.0005321502685546875
ell 578, elapsed: 0.0005578994750976562
ell 572, elapsed: 0.0013701915740966797
ell 571, elapsed: 0.0006320476531982422
ell 570, elapsed: 0.0006430149078369141
ell 569, elapsed: 0.0005300045013427734
ell 568, elapsed: 0.0005400180816650391
ell 562, elapsed: 0.0011849403381347656
ell 561, elapsed: 0.0005960464477539062
ell 560, elapsed: 0.0005729198455810547
ell 559, elapsed: 0.0005300045013427734
ell 558, elapsed: 0.0006160736083984375
ell 552, elapsed: 0.0014278888702392578
ell 551, elapsed: 0.0005960464477539062
ell 550, elapsed: 0.0005669593811035156
ell 549, elapsed: 0.0004870891571044922
ell 548, elapsed: 0.0005540847778320312
ell 542, elapsed: 0.0009529590606689453
ell 541, elapsed: 0.0006241798400878906
ell 540, elapsed: 0.0004889965057373047
ell 539, elapsed: 0.000553131103515625
ell 538, elapsed: 0.0005691051483154297
ell 532, elapsed: 0.0009570121765136719
ell 531, elapsed: 0.0005321502685546875
ell 530, elapsed: 0.0006709098815917969
ell 529, elapsed: 0.0005390644073486328
ell 528, elapsed: 0.0005562305450439453
ell 522, elapsed: 0.0009438991546630859
ell 521, elapsed: 0.0005400180816650391
ell 520, elapsed: 0.0005419254302978516
ell 519, elapsed: 0.0005869865417480469
ell 518, elapsed: 0.0005578994750976562
ell 512, elapsed: 0.0008251667022705078
ell 511, elapsed: 0.00045108795166015625
ell 510, elapsed: 0.0004620552062988281
ell 509, elapsed: 0.0004591941833496094
ell 508, elapsed: 0.0004680156707763672
ell 502, elapsed: 0.0008339881896972656
ell 501, elapsed: 0.0004749298095703125
ell 500, elapsed: 0.000514984130859375
ell 499, elapsed: 0.0005400180816650391
ell 498, elapsed: 0.0005660057067871094
ell 492, elapsed: 0.0009338855743408203
ell 491, elapsed: 0.0005431175231933594
ell 490, elapsed: 0.0005450248718261719
ell 489, elapsed: 0.0005450248718261719
ell 488, elapsed: 0.0005459785461425781
ell 482, elapsed: 0.000965118408203125
ell 481, elapsed: 0.0005598068237304688
ell 480, elapsed: 0.0005400180816650391
ell 479, elapsed: 0.0005919933319091797
ell 478, elapsed: 0.0005731582641601562
ell 472, elapsed: 0.0009720325469970703
ell 471, elapsed: 0.0005500316619873047
ell 470, elapsed: 0.0005710124969482422
ell 469, elapsed: 0.0005509853363037109
ell 468, elapsed: 0.0005440711975097656
ell 462, elapsed: 0.0008120536804199219
ell 461, elapsed: 0.0004630088806152344
ell 460, elapsed: 0.0005550384521484375
ell 459, elapsed: 0.0005350112915039062
ell 458, elapsed: 0.0005369186401367188
ell 452, elapsed: 0.0009679794311523438
ell 451, elapsed: 0.0005519390106201172
ell 450, elapsed: 0.0005350112915039062
ell 449, elapsed: 0.0005340576171875
ell 448, elapsed: 0.0005431175231933594
ell 442, elapsed: 0.0009207725524902344
ell 441, elapsed: 0.0006120204925537109
ell 440, elapsed: 0.0005688667297363281
ell 439, elapsed: 0.0005660057067871094
ell 438, elapsed: 0.0005838871002197266
ell 432, elapsed: 0.0010209083557128906
ell 431, elapsed: 0.0005710124969482422
ell 430, elapsed: 0.0006411075592041016
ell 429, elapsed: 0.000576019287109375
ell 428, elapsed: 0.0005731582641601562
ell 422, elapsed: 0.0010139942169189453
ell 421, elapsed: 0.0005729198455810547
ell 420, elapsed: 0.0005748271942138672
ell 419, elapsed: 0.0006358623504638672
ell 418, elapsed: 0.0005869865417480469
ell 412, elapsed: 0.000993967056274414
ell 411, elapsed: 0.0005750656127929688
ell 410, elapsed: 0.0005860328674316406
ell 409, elapsed: 0.0005738735198974609
ell 408, elapsed: 0.0006201267242431641
ell 402, elapsed: 0.001004934310913086
ell 401, elapsed: 0.0005791187286376953
ell 400, elapsed: 0.0005838871002197266
ell 399, elapsed: 0.0005831718444824219
ell 398, elapsed: 0.0005822181701660156
ell 392, elapsed: 0.0011610984802246094
ell 391, elapsed: 0.0005788803100585938
ell 390, elapsed: 0.0005950927734375
ell 389, elapsed: 0.0005810260772705078
ell 388, elapsed: 0.0005838871002197266
ell 382, elapsed: 0.0011341571807861328
ell 381, elapsed: 0.0005910396575927734
ell 380, elapsed: 0.0005898475646972656
ell 379, elapsed: 0.0005810260772705078
ell 378, elapsed: 0.0005860328674316406
ell 372, elapsed: 0.0010039806365966797
ell 371, elapsed: 0.0009088516235351562
ell 370, elapsed: 0.0006129741668701172
ell 369, elapsed: 0.0005819797515869141
ell 368, elapsed: 0.0005929470062255859
ell 362, elapsed: 0.0010099411010742188
ell 361, elapsed: 0.0007290840148925781
ell 360, elapsed: 0.0005950927734375
ell 359, elapsed: 0.0005810260772705078
ell 358, elapsed: 0.0005979537963867188
ell 352, elapsed: 0.0009870529174804688
ell 351, elapsed: 0.0005788803100585938
ell 350, elapsed: 0.0007460117340087891
ell 349, elapsed: 0.0005910396575927734
ell 348, elapsed: 0.0005919933319091797
ell 342, elapsed: 0.0010738372802734375
ell 341, elapsed: 0.0005788803100585938
ell 340, elapsed: 0.0007479190826416016
ell 339, elapsed: 0.0005970001220703125
ell 338, elapsed: 0.0005958080291748047
ell 332, elapsed: 0.0010700225830078125
ell 331, elapsed: 0.0005970001220703125
ell 330, elapsed: 0.0006029605865478516
ell 329, elapsed: 0.0007550716400146484
ell 328, elapsed: 0.0006058216094970703
ell 322, elapsed: 0.0010759830474853516
ell 321, elapsed: 0.0006060600280761719
ell 320, elapsed: 0.0005910396575927734
ell 319, elapsed: 0.0006279945373535156
ell 318, elapsed: 0.0006020069122314453
ell 312, elapsed: 0.0010569095611572266
ell 311, elapsed: 0.0005958080291748047
ell 310, elapsed: 0.0006089210510253906
ell 309, elapsed: 0.0005941390991210938
ell 308, elapsed: 0.0007119178771972656
ell 302, elapsed: 0.0010728836059570312
ell 301, elapsed: 0.0005869865417480469
ell 300, elapsed: 0.0005981922149658203
ell 299, elapsed: 0.000598907470703125
ell 298, elapsed: 0.0006339550018310547
ell 292, elapsed: 0.0010411739349365234
ell 291, elapsed: 0.0005800724029541016
ell 290, elapsed: 0.0006070137023925781
ell 289, elapsed: 0.0005900859832763672
ell 288, elapsed: 0.0005898475646972656
ell 282, elapsed: 0.0010461807250976562
ell 281, elapsed: 0.0005860328674316406
ell 280, elapsed: 0.0005919933319091797
ell 279, elapsed: 0.0005810260772705078
ell 278, elapsed: 0.0005931854248046875
ell 272, elapsed: 0.0010471343994140625
ell 271, elapsed: 0.0005259513854980469
ell 270, elapsed: 0.00057220458984375
ell 269, elapsed: 0.0006079673767089844
ell 268, elapsed: 0.0006039142608642578
ell 262, elapsed: 0.0010709762573242188
ell 261, elapsed: 0.0006229877471923828
ell 260, elapsed: 0.0005910396575927734
ell 259, elapsed: 0.0005819797515869141
ell 258, elapsed: 0.0005879402160644531
ell 252, elapsed: 0.0010190010070800781
ell 251, elapsed: 0.0005791187286376953
ell 250, elapsed: 0.0006999969482421875
ell 249, elapsed: 0.0005869865417480469
ell 248, elapsed: 0.0005929470062255859
ell 242, elapsed: 0.0010120868682861328
ell 241, elapsed: 0.000579833984375
ell 240, elapsed: 0.0005960464477539062
ell 239, elapsed: 0.0006420612335205078
ell 238, elapsed: 0.0005850791931152344
ell 232, elapsed: 0.0010221004486083984
ell 231, elapsed: 0.0005779266357421875
ell 230, elapsed: 0.0005929470062255859
ell 229, elapsed: 0.0006120204925537109
ell 228, elapsed: 0.0005941390991210938
ell 222, elapsed: 0.0010309219360351562
ell 221, elapsed: 0.0007519721984863281
ell 220, elapsed: 0.0005919933319091797
ell 219, elapsed: 0.0006718635559082031
ell 218, elapsed: 0.0006318092346191406
ell 212, elapsed: 0.001024007797241211
ell 211, elapsed: 0.0005748271942138672
ell 210, elapsed: 0.0005810260772705078
ell 209, elapsed: 0.0005841255187988281
ell 208, elapsed: 0.0005829334259033203
ell 202, elapsed: 0.0012040138244628906
ell 201, elapsed: 0.0005841255187988281
ell 200, elapsed: 0.0006020069122314453
ell 199, elapsed: 0.0005869865417480469
ell 198, elapsed: 0.0005829334259033203
ell 192, elapsed: 0.0010821819305419922
ell 191, elapsed: 0.0005729198455810547
ell 190, elapsed: 0.0005829334259033203
ell 189, elapsed: 0.0005731582641601562
ell 188, elapsed: 0.0005850791931152344
ell 182, elapsed: 0.0010209083557128906
ell 181, elapsed: 0.0005748271942138672
ell 180, elapsed: 0.0005791187286376953
ell 179, elapsed: 0.0006568431854248047
ell 178, elapsed: 0.0005788803100585938
ell 172, elapsed: 0.0011050701141357422
ell 171, elapsed: 0.0006010532379150391
ell 170, elapsed: 0.0005860328674316406
ell 169, elapsed: 0.0005950927734375
ell 168, elapsed: 0.0005838871002197266
ell 162, elapsed: 0.0010039806365966797
ell 161, elapsed: 0.0005669593811035156
ell 160, elapsed: 0.0006279945373535156
ell 159, elapsed: 0.0005710124969482422
ell 158, elapsed: 0.0005769729614257812
ell 152, elapsed: 0.0009920597076416016
ell 151, elapsed: 0.0006470680236816406
ell 150, elapsed: 0.0006029605865478516
ell 149, elapsed: 0.0006108283996582031
ell 148, elapsed: 0.0005791187286376953
ell 142, elapsed: 0.0010118484497070312
ell 141, elapsed: 0.0005748271942138672
ell 140, elapsed: 0.0005850791931152344
ell 139, elapsed: 0.0005700588226318359
ell 138, elapsed: 0.0005700588226318359
ell 132, elapsed: 0.0011038780212402344
ell 131, elapsed: 0.0005738735198974609
ell 130, elapsed: 0.0005891323089599609
ell 129, elapsed: 0.0005750656127929688
ell 128, elapsed: 0.0005810260772705078
ell 122, elapsed: 0.0011279582977294922
ell 121, elapsed: 0.0005669593811035156
ell 120, elapsed: 0.0005781650543212891
ell 119, elapsed: 0.0005729198455810547
ell 118, elapsed: 0.0005788803100585938
ell 112, elapsed: 0.0009701251983642578
ell 111, elapsed: 0.000576019287109375
ell 110, elapsed: 0.0005869865417480469
ell 109, elapsed: 0.0005450248718261719
ell 108, elapsed: 0.0005791187286376953
ell 102, elapsed: 0.0010211467742919922
ell 101, elapsed: 0.0023679733276367188
ell 100, elapsed: 0.0024170875549316406
ell 99, elapsed: 0.002349853515625
ell 98, elapsed: 0.002376079559326172
ell 92, elapsed: 0.004584074020385742
ell 91, elapsed: 0.002404928207397461
ell 90, elapsed: 0.002370119094848633
ell 89, elapsed: 0.0023970603942871094
ell 88, elapsed: 0.0023720264434814453
ell 82, elapsed: 0.004685878753662109
ell 81, elapsed: 0.0023369789123535156
ell 80, elapsed: 0.0024580955505371094
ell 79, elapsed: 0.0023849010467529297
ell 78, elapsed: 0.0024220943450927734
ell 72, elapsed: 0.004790067672729492
ell 71, elapsed: 0.002447843551635742
ell 70, elapsed: 0.0023741722106933594
ell 69, elapsed: 0.0024061203002929688
ell 68, elapsed: 0.0023980140686035156
ell 62, elapsed: 0.00463104248046875
ell 61, elapsed: 0.0024170875549316406
ell 60, elapsed: 0.002357006072998047
ell 59, elapsed: 0.002402067184448242
ell 58, elapsed: 0.002363920211791992
ell 52, elapsed: 0.0046880245208740234
ell 51, elapsed: 0.0023720264434814453
ell 50, elapsed: 0.0023708343505859375
ell 49, elapsed: 0.0023691654205322266
ell 48, elapsed: 0.002415180206298828
ell 42, elapsed: 0.0045931339263916016
ell 41, elapsed: 0.002395153045654297
ell 40, elapsed: 0.002351999282836914
ell 39, elapsed: 0.0023949146270751953
ell 38, elapsed: 0.0023949146270751953
ell 32, elapsed: 0.004603147506713867
ell 31, elapsed: 0.002379179000854492
ell 30, elapsed: 0.002410888671875
ell 29, elapsed: 0.002504110336303711
ell 28, elapsed: 0.0024819374084472656
ell 22, elapsed: 0.004712820053100586
ell 21, elapsed: 0.0024030208587646484
ell 20, elapsed: 0.0038480758666992188
ell 19, elapsed: 0.002432107925415039
ell 18, elapsed: 0.0023860931396484375
ell 12, elapsed: 0.004602909088134766
ell 11, elapsed: 0.002401113510131836
ell 10, elapsed: 0.0023751258850097656
ell 9, elapsed: 0.0024161338806152344
ell 8, elapsed: 0.0024271011352539062
  0.533100 seconds (68.56 k allocations: 12.176 MiB)
elapsed: 0.002804994583129883
step:          0.046061 sec (0 allocations: 0 byte, 0.0% gc time)
swapping:      0.000452 sec (0 allocations: 0 byte, 0.0% gc time)
calc_Mellell!: 0.021108 sec (0 allocations: 0 byte, 0.0% gc time)
  t0 :  0.007121 sec (0 allocations: 0 byte, 0.0% gc time)
  tm2 : 0.061122 sec (0 allocations: 0 byte, 0.0% gc time)
  tm2s: 0.005894 sec (0 allocations: 0 byte, 0.0% gc time)
  tm4 : 0.122833 sec (0 allocations: 0 byte, 0.0% gc time)
  tp2 : 0.0 sec (0 allocations: 0 byte, 0.0% gc time)
  tp2s: 0.0 sec (0 allocations: 0 byte, 0.0% gc time)
  tp4 : 0.0 sec (0 allocations: 0 byte, 0.0% gc time)
calc_wtdll!:   0.387574 sec (48.6 k allocations: 11.096 MB, 0.0% gc time)
calc_wljj!:    0.019963 sec (69 allocations: 1.078 KB, 0.0% gc time)
mult_prefac!:  0.0 sec (0 allocations: 0 byte, 0.0% gc time)
convert:       0.0 sec (0 allocations: 0 byte, 0.0% gc time)
write:         0.025102 sec (0 allocations: 0 byte, 0.0% gc time)
test_rand_2f1: 0.0 sec (0 allocations: 0 byte, 0.0% gc time)
Closing outfile out/MlCache/MlCache.bin...   0.000004 seconds
xi, l=0, nu=0:   0.273815 seconds (602.93 k allocations: 32.974 MiB, 99.34% compilation time)
xi, l=0, nu=-2:  0.001533 seconds (114 allocations: 148.969 KiB)
Created 'out/xi.tsv'.
  q=1.1, R=0.6:	  0.413216 seconds (264.58 k allocations: 38.109 MiB, 4.93% gc time)
  q=1.1, R=0.7:	  0.497005 seconds (276.43 k allocations: 40.113 MiB, 2.85% gc time)
  q=1.1, R=0.8:	  0.475283 seconds (271.87 k allocations: 39.334 MiB, 2.19% gc time)
  q=1.1, R=0.9:	  0.524013 seconds (266.68 k allocations: 38.464 MiB, 1.16% gc time)
  q=1.1, R=0.998:	 14.399294 seconds (114.96 k allocations: 7.588 MiB)
  q=1.1, R=1.0:	  0.003036 seconds (8.20 k allocations: 704.344 KiB)

ℓ = 1000
Δℓ = 4
ΔℓRg1 = -4
N = 4096
q = 1.1
kmin = 1.0e-5
kmax = 1000.0
χ0 = 0.001
RR = RR.tsv
ℓmax = ℓmax.bin
f21 = f21.bin
kmin = 1.0e-5
kmax = 1000.0
dlrec    = 4
dlrecRg1 = -4
Output size: 1573632 bytes = 0.0014655590057373047 GiB
Output size: 786816 bytes = 0.0007327795028686523 GiB
Reading 'out/F21EllCache'...   0.001011 seconds (198 allocations: 533.078 KiB)
ellmax: 1002
lmaxcache: 1000
fell[:,1,1] = ComplexF64[1.726292812820208e-224 - 4.2281979352226965e-240im, 1.7282693092099638e-224 - 4.233038955177178e-240im]
ell 1002, elapsed: 1.9073486328125e-5
ell 1001, elapsed: 0.0005080699920654297
ell 1000, elapsed: 0.0005500316619873047
ell 999, elapsed: 0.0041658878326416016
ell 998, elapsed: 0.004091024398803711
ell 44, elapsed: 0.5840911865234375
ell 43, elapsed: 0.0034389495849609375
ell 42, elapsed: 0.0039691925048828125
ell 41, elapsed: 0.003993988037109375
ell 40, elapsed: 0.0037250518798828125
  0.613919 seconds (4.59 k allocations: 322.266 KiB)
elapsed: 0.005234956741333008
step:          0.57939 sec (0 allocations: 0 byte, 0.0% gc time)
swapping:      0.00041 sec (0 allocations: 0 byte, 0.0% gc time)
calc_Mellell!: 0.000747 sec (0 allocations: 0 byte, 0.0% gc time)
  t0 :  0.000229 sec (0 allocations: 0 byte, 0.0% gc time)
  tm2 : 0.007575 sec (0 allocations: 0 byte, 0.0% gc time)
  tm2s: 0.000193 sec (0 allocations: 0 byte, 0.0% gc time)
  tm4 : 0.018178 sec (0 allocations: 0 byte, 0.0% gc time)
  tp2 : 0.0 sec (0 allocations: 0 byte, 0.0% gc time)
  tp2s: 0.0 sec (0 allocations: 0 byte, 0.0% gc time)
  tp4 : 0.0 sec (0 allocations: 0 byte, 0.0% gc time)
calc_wtdll!:   0.026287 sec (480 allocations: 52.5 KB, 0.0% gc time)
calc_wljj!:    0.000718 sec (1 allocations: 16 byte, 0.0% gc time)
mult_prefac!:  0.0 sec (0 allocations: 0 byte, 0.0% gc time)
convert:       0.0 sec (0 allocations: 0 byte, 0.0% gc time)
write:         0.000705 sec (0 allocations: 0 byte, 0.0% gc time)
test_rand_2f1: 0.0 sec (0 allocations: 0 byte, 0.0% gc time)
Closing outfile out/MlCache/MlCache.bin...   0.000011 seconds
  0.353216 seconds (38 allocations: 66.859 KiB)
make_phi():   0.006604 seconds (65 allocations: 275.984 KiB)
  0.034937 seconds (11.42 k allocations: 711.960 KiB, 90.61% compilation time)
tskip:       1.0e-6 sec (0 allocations: 0 byte, 0.0% gc time)
tread:       0.000534 sec (17 allocations: 1.266 KB, 0.0% gc time)
tmultphi:    0.000262 sec (0 allocations: 0 byte, 0.0% gc time)
tbrfft:      0.001012 sec (0 allocations: 0 byte, 0.0% gc time)
tmultprefac: 0.00047 sec (0 allocations: 0 byte, 0.0% gc time)
toutfunc:    0.0001 sec (0 allocations: 0 byte, 0.0% gc time)
Created 'out/wl42_jj00.tsv'.
Created 'out/wl42_jj02.tsv'.
    Testing TwoFAST tests passed 
