Julia Version 1.3.2-pre.0
Commit 2e6715c045 (2019-12-31 00:49 UTC)
Platform Info:
  OS: Linux (x86_64-linux-gnu)
  CPU: Intel(R) Xeon(R) Silver 4114 CPU @ 2.20GHz
  WORD_SIZE: 64
  LIBM: libopenlibm
  LLVM: libLLVM-6.0.1 (ORCJIT, skylake)
Environment:
  JULIA_DEPOT_PATH = ::/usr/local/share/julia

 Resolving package versions...
 Installed FFTW_jll ───────── v3.3.9+3
 Installed URIParser ──────── v0.4.0
 Installed Reexport ───────── v0.2.0
 Installed FFTW ───────────── v1.2.0
 Installed BinaryProvider ─── v0.5.8
 Installed SpecialFunctions ─ v0.8.0
 Installed AbstractAlgebra ── v0.7.1
 Installed AbstractFFTs ───── v0.5.0
 Installed MKL_jll ────────── v2019.0.117+0
 Installed BinDeps ────────── v1.0.0
 Installed IntelOpenMP_jll ── v2018.0.3+0
 Installed IncGammaBeta ───── v0.1.0
 Installed TwoFAST ────────── v0.1.0
 Installed Nemo ───────────── v0.15.1
  Updating `~/.julia/environments/v1.3/Project.toml`
  [0dd23c3e] + TwoFAST v0.1.0
  Updating `~/.julia/environments/v1.3/Manifest.toml`
  [c3fe647b] + AbstractAlgebra v0.7.1
  [621f4979] + AbstractFFTs v0.5.0
  [9e28174c] + BinDeps v1.0.0
  [b99e7846] + BinaryProvider v0.5.8
  [7a1cc6ca] + FFTW v1.2.0
  [f5851436] + FFTW_jll v3.3.9+3
  [5087d2c0] + IncGammaBeta v0.1.0
  [1d5cc7b8] + IntelOpenMP_jll v2018.0.3+0
  [856f044c] + MKL_jll v2019.0.117+0
  [2edaba10] + Nemo v0.15.1
  [189a3867] + Reexport v0.2.0
  [276daf66] + SpecialFunctions v0.8.0
  [0dd23c3e] + TwoFAST v0.1.0
  [30578b45] + URIParser v0.4.0
  [2a0f44e3] + Base64 
  [ade2ca70] + Dates 
  [8bb1440f] + DelimitedFiles 
  [8ba89e20] + Distributed 
  [b77e0a4c] + InteractiveUtils 
  [76f85450] + LibGit2 
  [8f399da3] + Libdl 
  [37e2e46d] + LinearAlgebra 
  [56ddb016] + Logging 
  [d6f4376e] + Markdown 
  [a63ad114] + Mmap 
  [44cfe95a] + Pkg 
  [de0858da] + Printf 
  [3fa0cd96] + REPL 
  [9a3f8284] + Random 
  [ea8e919c] + SHA 
  [9e88b42a] + Serialization 
  [6462fe0b] + Sockets 
  [2f01184e] + SparseArrays 
  [8dfed614] + Test 
  [cf7118a7] + UUIDs 
  [4ec0a83e] + Unicode 
  Building FFTW ────────────→ `~/.julia/packages/FFTW/qqcBj/deps/build.log`
  Building SpecialFunctions → `~/.julia/packages/SpecialFunctions/ne2iw/deps/build.log`
  Building Nemo ────────────→ `~/.julia/packages/Nemo/qzx0m/deps/build.log`
   Testing TwoFAST
 Resolving package versions...
 Installed Dierckx ─ v0.4.1
  Building Dierckx → `~/.julia/packages/Dierckx/9SY4A/deps/build.log`
    Status `/tmp/jl_6D9Xa7/Manifest.toml`
  [c3fe647b] AbstractAlgebra v0.7.1
  [621f4979] AbstractFFTs v0.5.0
  [9e28174c] BinDeps v1.0.0
  [b99e7846] BinaryProvider v0.5.8
  [39dd38d3] Dierckx v0.4.1
  [7a1cc6ca] FFTW v1.2.0
  [f5851436] FFTW_jll v3.3.9+3
  [5087d2c0] IncGammaBeta v0.1.0
  [1d5cc7b8] IntelOpenMP_jll v2018.0.3+0
  [856f044c] MKL_jll v2019.0.117+0
  [2edaba10] Nemo v0.15.1
  [189a3867] Reexport v0.2.0
  [276daf66] SpecialFunctions v0.8.0
  [0dd23c3e] TwoFAST v0.1.0
  [30578b45] URIParser v0.4.0
  [2a0f44e3] Base64  [`@stdlib/Base64`]
  [ade2ca70] Dates  [`@stdlib/Dates`]
  [8bb1440f] DelimitedFiles  [`@stdlib/DelimitedFiles`]
  [8ba89e20] Distributed  [`@stdlib/Distributed`]
  [b77e0a4c] InteractiveUtils  [`@stdlib/InteractiveUtils`]
  [76f85450] LibGit2  [`@stdlib/LibGit2`]
  [8f399da3] Libdl  [`@stdlib/Libdl`]
  [37e2e46d] LinearAlgebra  [`@stdlib/LinearAlgebra`]
  [56ddb016] Logging  [`@stdlib/Logging`]
  [d6f4376e] Markdown  [`@stdlib/Markdown`]
  [a63ad114] Mmap  [`@stdlib/Mmap`]
  [44cfe95a] Pkg  [`@stdlib/Pkg`]
  [de0858da] Printf  [`@stdlib/Printf`]
  [3fa0cd96] REPL  [`@stdlib/REPL`]
  [9a3f8284] Random  [`@stdlib/Random`]
  [ea8e919c] SHA  [`@stdlib/SHA`]
  [9e88b42a] Serialization  [`@stdlib/Serialization`]
  [6462fe0b] Sockets  [`@stdlib/Sockets`]
  [2f01184e] SparseArrays  [`@stdlib/SparseArrays`]
  [8dfed614] Test  [`@stdlib/Test`]
  [cf7118a7] UUIDs  [`@stdlib/UUIDs`]
  [4ec0a83e] Unicode  [`@stdlib/Unicode`]

Welcome to Nemo version 0.15.1

Nemo comes with absolutely no warranty whatsoever


Welcome to Nemo version 0.15.1

Nemo comes with absolutely no warranty whatsoever

Testing ξ(r), ℓ=0, ν=-1 ... passed
Testing ξ(r), ℓ=0, ν=0 ... passed
Testing ξ(r), ℓ=0, ν=1 ... passed
Testing ξ(r), ℓ=0, ν=2 ... passed
Testing ξ(r), ℓ=0, ν=3 ... passed
Testing ξ(r), ℓ=1, ν=0 ... passed
Testing ξ(r), ℓ=1, ν=1 ... passed
Testing ξ(r), ℓ=1, ν=2 ... passed
Testing ξ(r), ℓ=1, ν=3 ... passed
Testing ξ(r), ℓ=2, ν=-1 ... passed
Testing ξ(r), ℓ=2, ν=0 ... passed
Testing ξ(r), ℓ=2, ν=1 ... passed
Testing ξ(r), ℓ=2, ν=2 ... passed
Testing ξ(r), ℓ=2, ν=3 ... passed
Testing ξ(r), ℓ=3, ν=-1 ... passed
Testing ξ(r), ℓ=3, ν=0 ... passed
Testing ξ(r), ℓ=3, ν=1 ... passed
Testing ξ(r), ℓ=3, ν=2 ... passed
Testing ξ(r), ℓ=3, ν=3 ... passed
Testing ξ(r), ℓ=4, ν=-1 ... passed
Testing ξ(r), ℓ=4, ν=0 ... passed
Testing ξ(r), ℓ=4, ν=1 ... passed
Testing ξ(r), ℓ=4, ν=2 ... passed
Testing ξ(r), ℓ=4, ν=3 ... passed
Testing ξ(r) ... passed
Testing ξ′(r) ... passed
Testing ξ″(r) ... passed
Calculating fmax: 
  dlrec    = 4
  dlrecRg1 = -4
  q=1.1, R=1.1:	  3.918833 seconds (1.11 M allocations: 119.130 MiB, 4.05% gc time)

  3.943866 seconds (1.11 M allocations: 119.487 MiB, 4.02% gc time)
ℓ = 1202
Δℓ = 4
ΔℓRg1 = -4
N = 1600
q = 1.1
kmin = 1.0e-5
kmax = 100000.00000000004
χ0 = 0.023029999999999995
RR = RR.tsv
ℓmax = ℓmax.bin
f21 = f21.bin
kmin = 1.0e-5
kmax = 100000.0
dlrec    = 4
dlrecRg1 = -4
Output size: 5741568 bytes = 0.005347251892089844 GiB
Output size: 51264 bytes = 4.774332046508789e-5 GiB
Reading 'out/F21EllCache'...   0.565111 seconds (348.11 k allocations: 17.862 MiB)
ellmax: 1202
lmaxcache: 1202
fell[:,1,1] = Complex{Float64}[3.9583795592771634e-52 - 9.695233714158177e-68im, 3.990121772925759e-52 - 9.772979714843386e-68im]
ell 1202, elapsed: 0.0031728744506835938
ell 1201, elapsed: 2.3292770385742188
ell 1200, elapsed: 0.0005171298980712891
ell 1199, elapsed: 0.0004761219024658203
ell 1198, elapsed: 0.00047588348388671875
ell 1002, elapsed: 0.011140823364257812
ell 1001, elapsed: 0.0005080699920654297
ell 1000, elapsed: 0.0009210109710693359
ell 999, elapsed: 0.0005018711090087891
ell 998, elapsed: 0.0004849433898925781
ell 902, elapsed: 0.005522966384887695
ell 901, elapsed: 0.0005018711090087891
ell 900, elapsed: 0.00048804283142089844
ell 899, elapsed: 0.0004858970642089844
ell 898, elapsed: 0.0004971027374267578
ell 802, elapsed: 0.005549907684326172
ell 801, elapsed: 0.005342960357666016
ell 800, elapsed: 0.00048804283142089844
ell 799, elapsed: 0.0004830360412597656
ell 798, elapsed: 0.0007960796356201172
ell 702, elapsed: 0.00664210319519043
ell 701, elapsed: 0.0005221366882324219
ell 700, elapsed: 0.0004799365997314453
ell 699, elapsed: 0.00047707557678222656
ell 698, elapsed: 0.00047397613525390625
ell 602, elapsed: 0.007501840591430664
ell 601, elapsed: 0.0005059242248535156
ell 600, elapsed: 0.0004870891571044922
ell 599, elapsed: 0.0004830360412597656
ell 598, elapsed: 0.0004830360412597656
ell 502, elapsed: 0.005584001541137695
ell 501, elapsed: 0.0004870891571044922
ell 500, elapsed: 0.00047206878662109375
ell 499, elapsed: 0.0004680156707763672
ell 498, elapsed: 0.00047016143798828125
ell 402, elapsed: 0.005800008773803711
ell 401, elapsed: 0.0005018711090087891
ell 400, elapsed: 0.0004870891571044922
ell 399, elapsed: 0.0004889965057373047
ell 398, elapsed: 0.00048613548278808594
ell 302, elapsed: 0.0055119991302490234
ell 301, elapsed: 0.0004801750183105469
ell 300, elapsed: 0.0004711151123046875
ell 299, elapsed: 0.0004680156707763672
ell 298, elapsed: 0.0004711151123046875
ell 202, elapsed: 0.005698204040527344
ell 201, elapsed: 0.0004980564117431641
ell 200, elapsed: 0.00047707557678222656
ell 199, elapsed: 0.00047588348388671875
ell 198, elapsed: 0.0004711151123046875
ell 152, elapsed: 0.0029249191284179688
ell 151, elapsed: 0.00047707557678222656
ell 150, elapsed: 0.0004680156707763672
ell 149, elapsed: 0.0004699230194091797
ell 148, elapsed: 0.0005609989166259766
ell 127, elapsed: 0.0016551017761230469
ell 126, elapsed: 0.00047898292541503906
ell 125, elapsed: 0.0004699230194091797
ell 124, elapsed: 0.0004680156707763672
ell 123, elapsed: 0.0005669593811035156
ell 114, elapsed: 0.0009210109710693359
ell 113, elapsed: 0.0004818439483642578
ell 112, elapsed: 0.0004849433898925781
ell 111, elapsed: 0.0004849433898925781
ell 110, elapsed: 0.0004870891571044922
ell 102, elapsed: 0.0012710094451904297
ell 101, elapsed: 0.0004730224609375
ell 100, elapsed: 0.00047588348388671875
ell 99, elapsed: 0.0004799365997314453
ell 98, elapsed: 0.0004839897155761719
ell 97, elapsed: 0.0005269050598144531
ell 96, elapsed: 0.0007369518280029297
ell 95, elapsed: 0.0005199909210205078
ell 94, elapsed: 0.0006070137023925781
ell 93, elapsed: 0.0005249977111816406
ell 92, elapsed: 0.0006010532379150391
ell 91, elapsed: 0.0005190372467041016
ell 90, elapsed: 0.0007920265197753906
ell 89, elapsed: 0.0006430149078369141
ell 88, elapsed: 0.0006389617919921875
ell 87, elapsed: 0.0005249977111816406
ell 86, elapsed: 0.0005970001220703125
ell 85, elapsed: 0.0005099773406982422
ell 84, elapsed: 0.0007200241088867188
ell 83, elapsed: 0.0005309581756591797
ell 82, elapsed: 0.0006079673767089844
ell 81, elapsed: 0.0005249977111816406
ell 80, elapsed: 0.0006008148193359375
ell 79, elapsed: 0.0005159378051757812
ell 78, elapsed: 0.0006690025329589844
ell 77, elapsed: 0.0004990100860595703
ell 76, elapsed: 0.0005819797515869141
ell 75, elapsed: 0.0005249977111816406
ell 74, elapsed: 0.0005979537963867188
ell 73, elapsed: 0.0005159378051757812
ell 72, elapsed: 0.0006089210510253906
ell 71, elapsed: 0.0005900859832763672
ell 70, elapsed: 0.0006029605865478516
ell 69, elapsed: 0.0005049705505371094
ell 68, elapsed: 0.0006000995635986328
ell 67, elapsed: 0.000518798828125
ell 66, elapsed: 0.0006010532379150391
ell 65, elapsed: 0.0006010532379150391
ell 64, elapsed: 0.0005471706390380859
ell 63, elapsed: 0.0005171298980712891
ell 62, elapsed: 0.0005960464477539062
ell 61, elapsed: 0.0005159378051757812
ell 60, elapsed: 0.0005970001220703125
ell 59, elapsed: 0.0005159378051757812
ell 58, elapsed: 0.0006020069122314453
ell 57, elapsed: 0.0005209445953369141
ell 56, elapsed: 0.0005991458892822266
ell 55, elapsed: 0.000518798828125
ell 54, elapsed: 0.0005869865417480469
ell 53, elapsed: 0.0005052089691162109
ell 52, elapsed: 0.0007009506225585938
ell 51, elapsed: 0.0005099773406982422
ell 50, elapsed: 0.0006229877471923828
ell 49, elapsed: 0.0005788803100585938
ell 48, elapsed: 0.0005960464477539062
ell 47, elapsed: 0.0005159378051757812
ell 46, elapsed: 0.0006988048553466797
ell 45, elapsed: 0.0005030632019042969
ell 44, elapsed: 0.0005970001220703125
ell 43, elapsed: 0.0007538795471191406
ell 42, elapsed: 0.0006060600280761719
ell 41, elapsed: 0.0005259513854980469
ell 40, elapsed: 0.0006740093231201172
ell 39, elapsed: 0.0005190372467041016
ell 38, elapsed: 0.0005991458892822266
ell 37, elapsed: 0.0005221366882324219
ell 36, elapsed: 0.0005960464477539062
ell 35, elapsed: 0.000514984130859375
ell 34, elapsed: 0.0060350894927978516
ell 33, elapsed: 0.0004680156707763672
ell 32, elapsed: 0.0005469322204589844
ell 31, elapsed: 0.0004870891571044922
ell 30, elapsed: 0.0005650520324707031
ell 29, elapsed: 0.00047397613525390625
ell 28, elapsed: 0.0005509853363037109
ell 27, elapsed: 0.00048089027404785156
ell 26, elapsed: 0.0005898475646972656
ell 25, elapsed: 0.0004799365997314453
ell 24, elapsed: 0.0005941390991210938
ell 23, elapsed: 0.0005900859832763672
ell 22, elapsed: 0.0006082057952880859
ell 21, elapsed: 0.0005071163177490234
ell 20, elapsed: 0.0006561279296875
ell 19, elapsed: 0.0005238056182861328
ell 18, elapsed: 0.0006010532379150391
ell 17, elapsed: 0.0005211830139160156
ell 16, elapsed: 0.0006101131439208984
ell 15, elapsed: 0.0005118846893310547
ell 14, elapsed: 0.0006000995635986328
ell 13, elapsed: 0.0005071163177490234
ell 12, elapsed: 0.0005941390991210938
ell 11, elapsed: 0.0006070137023925781
ell 10, elapsed: 0.00061798095703125
ell 9, elapsed: 0.0005211830139160156
ell 8, elapsed: 0.0006039142608642578
ell 7, elapsed: 0.0005190372467041016
ell 6, elapsed: 0.0006120204925537109
ell 5, elapsed: 0.0005230903625488281
ell 4, elapsed: 0.0006377696990966797
ell 3, elapsed: 0.0005271434783935547
ell 2, elapsed: 0.0006060600280761719
ell 1, elapsed: 0.0005159378051757812
ell 0, elapsed: 0.0005979537963867188
  2.597418 seconds (1.51 M allocations: 74.527 MiB, 2.07% gc time)
elapsed: 0.0006759166717529297
step:          0.891922 sec (478.142 k allocations: 23.743 MB, 0.0% gc time)
swapping:      0.000915 sec (0 allocations: 0 byte, 0.0% gc time)
calc_Mellell!: 0.489863 sec (371.693 k allocations: 18.417 MB, 0.0% gc time)
  t0 :  0.0 sec (0 allocations: 0 byte, 0.0% gc time)
  tm2 : 0.0 sec (0 allocations: 0 byte, 0.0% gc time)
  tm2s: 0.0 sec (0 allocations: 0 byte, 0.0% gc time)
  tm4 : 0.0 sec (0 allocations: 0 byte, 0.0% gc time)
  tp2 : 0.0 sec (0 allocations: 0 byte, 0.0% gc time)
  tp2s: 0.0 sec (0 allocations: 0 byte, 0.0% gc time)
  tp4 : 0.0 sec (0 allocations: 0 byte, 0.0% gc time)
calc_wtdll!:   1.083794 sec (571.771 k allocations: 28.061 MB, 4.97% gc time)
calc_wljj!:    0.003531 sec (6 allocations: 96 byte, 0.0% gc time)
mult_prefac!:  0.0 sec (0 allocations: 0 byte, 0.0% gc time)
convert:       0.0 sec (0 allocations: 0 byte, 0.0% gc time)
write:         0.012296 sec (0 allocations: 0 byte, 0.0% gc time)
test_rand_2f1: 0.0 sec (0 allocations: 0 byte, 0.0% gc time)
Closing outfile out/Ml21-cache.bin...   0.000131 seconds
  1.114728 seconds (8.63 k allocations: 420.063 KiB)
make_phi():   0.014168 seconds (8.20 k allocations: 238.016 KiB)
  0.253912 seconds (121.94 k allocations: 5.916 MiB)
tskip:       2.5e-5 sec (0 allocations: 0 byte, 0.0% gc time)
tread:       0.002742 sec (20 allocations: 2.188 KB, 0.0% gc time)
tmultphi:    0.045873 sec (26.146 k allocations: 1.344 MB, 0.0% gc time)
tbrfft:      0.004512 sec (896 allocations: 42.0 KB, 0.0% gc time)
tmultprefac: 0.002831 sec (0 allocations: 0 byte, 0.0% gc time)
toutfunc:    0.197819 sec (94.223 k allocations: 4.459 MB, 0.0% gc time)
Testing R=1.1 ... passed
Calculating fmax: 
  dlrec    = 4
  dlrecRg1 = -4
  q=1.1, R=1.0:	  0.041594 seconds (4.81 k allocations: 3.569 MiB, 59.87% gc time)

  0.045800 seconds (4.88 k allocations: 3.602 MiB, 54.37% gc time)
ℓ = 1202
Δℓ = 4
ΔℓRg1 = -4
N = 1600
q = 1.1
kmin = 1.0e-5
kmax = 100000.00000000004
χ0 = 0.023029999999999995
RR = RR.tsv
ℓmax = ℓmax.bin
f21 = f21.bin
kmin = 1.0e-5
kmax = 100000.0
dlrec    = 4
dlrecRg1 = -4
Output size: 61465536 bytes = 0.05724424123764038 GiB
Output size: 51264 bytes = 4.774332046508789e-5 GiB
Reading 'out/F21EllCache'...   0.001266 seconds (271 allocations: 84.719 KiB)
ellmax: 1202
lmaxcache: 1202
fell[:,1,1] = Complex{Float64}[809.6031528389767 - 1.9829558194077161e-13im, 0.0 + 0.0im]
ell 1202, elapsed: 4.315376281738281e-5
ell 1201, elapsed: 0.019041061401367188
ell 1200, elapsed: 0.000553131103515625
ell 1199, elapsed: 0.0004661083221435547
ell 1198, elapsed: 0.00045418739318847656
ell 1197, elapsed: 0.0004999637603759766
ell 1196, elapsed: 0.00047707557678222656
ell 1195, elapsed: 0.0005869865417480469
ell 1194, elapsed: 0.0004799365997314453
ell 1193, elapsed: 0.0006039142608642578
ell 1192, elapsed: 0.00047707557678222656
ell 1191, elapsed: 0.0006208419799804688
ell 1190, elapsed: 0.00040721893310546875
ell 1189, elapsed: 0.0005209445953369141
ell 1188, elapsed: 0.0004100799560546875
ell 1187, elapsed: 0.0004999637603759766
ell 1186, elapsed: 0.00041103363037109375
ell 1185, elapsed: 0.0004949569702148438
ell 1184, elapsed: 0.0005998611450195312
ell 1183, elapsed: 0.0005099773406982422
ell 1182, elapsed: 0.0004189014434814453
ell 1181, elapsed: 0.0004820823669433594
ell 1180, elapsed: 0.00041794776916503906
ell 1179, elapsed: 0.0004858970642089844
ell 1178, elapsed: 0.00041103363037109375
ell 1177, elapsed: 0.0005140304565429688
ell 1176, elapsed: 0.0004029273986816406
ell 1175, elapsed: 0.00051116943359375
ell 1174, elapsed: 0.0003979206085205078
ell 1173, elapsed: 0.0005090236663818359
ell 1172, elapsed: 0.00039696693420410156
ell 1171, elapsed: 0.0005168914794921875
ell 1170, elapsed: 0.00047707557678222656
ell 1169, elapsed: 0.0005099773406982422
ell 1168, elapsed: 0.00041484832763671875
ell 1167, elapsed: 0.0004928112030029297
ell 1166, elapsed: 0.0004200935363769531
ell 1165, elapsed: 0.0004870891571044922
ell 1164, elapsed: 0.0004220008850097656
ell 1163, elapsed: 0.0004780292510986328
ell 1162, elapsed: 0.0004138946533203125
ell 1161, elapsed: 0.0004870891571044922
ell 1160, elapsed: 0.0004208087921142578
ell 1159, elapsed: 0.0004839897155761719
ell 1158, elapsed: 0.00041294097900390625
ell 1157, elapsed: 0.0004961490631103516
ell 1156, elapsed: 0.00041294097900390625
ell 1155, elapsed: 0.0006060600280761719
ell 1154, elapsed: 0.0004019737243652344
ell 1153, elapsed: 0.0005040168762207031
ell 1152, elapsed: 0.000598907470703125
ell 1151, elapsed: 0.00048804283142089844
ell 1150, elapsed: 0.00041794776916503906
ell 1149, elapsed: 0.0004818439483642578
ell 1148, elapsed: 0.0005669593811035156
ell 1147, elapsed: 0.0005168914794921875
ell 1146, elapsed: 0.00039887428283691406
ell 1145, elapsed: 0.0005137920379638672
ell 1144, elapsed: 0.00039887428283691406
ell 1143, elapsed: 0.0005099773406982422
ell 1142, elapsed: 0.0004019737243652344
ell 1141, elapsed: 0.0005788803100585938
ell 1140, elapsed: 0.0004150867462158203
ell 1139, elapsed: 0.0004909038543701172
ell 1138, elapsed: 0.00041604042053222656
ell 1137, elapsed: 0.00047898292541503906
ell 1136, elapsed: 0.0004191398620605469
ell 1135, elapsed: 0.0004811286926269531
ell 1134, elapsed: 0.0004169940948486328
ell 1133, elapsed: 0.0005960464477539062
ell 1132, elapsed: 0.0004050731658935547
ell 1131, elapsed: 0.0005030632019042969
ell 1130, elapsed: 0.0004019737243652344
ell 1129, elapsed: 0.0005090236663818359
ell 1128, elapsed: 0.0003960132598876953
ell 1127, elapsed: 0.0005090236663818359
ell 1126, elapsed: 0.00039505958557128906
ell 1125, elapsed: 0.0005080699920654297
ell 1124, elapsed: 0.00041103363037109375
ell 1123, elapsed: 0.0004971027374267578
ell 1122, elapsed: 0.0004131793975830078
ell 1121, elapsed: 0.0004811286926269531
ell 1120, elapsed: 0.0004169940948486328
ell 1119, elapsed: 0.00048613548278808594
ell 1118, elapsed: 0.000514984130859375
ell 1117, elapsed: 0.0004990100860595703
ell 1116, elapsed: 0.0004138946533203125
ell 1115, elapsed: 0.0005190372467041016
ell 1114, elapsed: 0.0004048347473144531
ell 1113, elapsed: 0.0005161762237548828
ell 1112, elapsed: 0.0004050731658935547
ell 1111, elapsed: 0.0005230903625488281
ell 1110, elapsed: 0.0004029273986816406
ell 1109, elapsed: 0.000514984130859375
ell 1108, elapsed: 0.0004069805145263672
ell 1107, elapsed: 0.0005040168762207031
ell 1106, elapsed: 0.00041604042053222656
ell 1105, elapsed: 0.0004949569702148438
ell 1104, elapsed: 0.00042700767517089844
ell 1103, elapsed: 0.0005748271942138672
ell 1102, elapsed: 0.0004088878631591797
ell 1101, elapsed: 0.0005099773406982422
ell 1100, elapsed: 0.0004038810729980469
ell 1099, elapsed: 0.0005178451538085938
ell 1098, elapsed: 0.00041103363037109375
ell 1097, elapsed: 0.0005080699920654297
ell 1096, elapsed: 0.00046896934509277344
ell 1095, elapsed: 0.0004930496215820312
ell 1094, elapsed: 0.00042819976806640625
ell 1093, elapsed: 0.000492095947265625
ell 1092, elapsed: 0.00041413307189941406
ell 1091, elapsed: 0.0005199909210205078
ell 1090, elapsed: 0.0004029273986816406
ell 1089, elapsed: 0.0005500316619873047
ell 1088, elapsed: 0.0004069805145263672
ell 1087, elapsed: 0.000518798828125
ell 1086, elapsed: 0.00041604042053222656
ell 1085, elapsed: 0.0004968643188476562
ell 1084, elapsed: 0.00042510032653808594
ell 1083, elapsed: 0.0004870891571044922
ell 1082, elapsed: 0.00041604042053222656
ell 1081, elapsed: 0.0005540847778320312
ell 1080, elapsed: 0.0004069805145263672
ell 1079, elapsed: 0.0005068778991699219
ell 1078, elapsed: 0.0004048347473144531
ell 1077, elapsed: 0.0005099773406982422
ell 1076, elapsed: 0.0003981590270996094
ell 1075, elapsed: 0.0005180835723876953
ell 1074, elapsed: 0.0004439353942871094
ell 1073, elapsed: 0.0005271434783935547
ell 1072, elapsed: 0.00040411949157714844
ell 1071, elapsed: 0.0005118846893310547
ell 1070, elapsed: 0.00041103363037109375
ell 1069, elapsed: 0.0004999637603759766
ell 1068, elapsed: 0.0004169940948486328
ell 1067, elapsed: 0.00048804283142089844
ell 1066, elapsed: 0.0007491111755371094
ell 1065, elapsed: 0.000514984130859375
ell 1064, elapsed: 0.0004150867462158203
ell 1063, elapsed: 0.0004930496215820312
ell 1062, elapsed: 0.0004220008850097656
ell 1061, elapsed: 0.0004899501800537109
ell 1060, elapsed: 0.0004220008850097656
ell 1059, elapsed: 0.0005850791931152344
ell 1058, elapsed: 0.0004069805145263672
ell 1057, elapsed: 0.0005018711090087891
ell 1056, elapsed: 0.0004069805145263672
ell 1055, elapsed: 0.0005130767822265625
ell 1054, elapsed: 0.0004038810729980469
ell 1053, elapsed: 0.0005221366882324219
ell 1052, elapsed: 0.0005049705505371094
ell 1051, elapsed: 0.0005180835723876953
ell 1050, elapsed: 0.0004131793975830078
ell 1049, elapsed: 0.0005021095275878906
ell 1048, elapsed: 0.0004150867462158203
ell 1047, elapsed: 0.0004940032958984375
ell 1046, elapsed: 0.0004200935363769531
ell 1045, elapsed: 0.00048804283142089844
ell 1044, elapsed: 0.0002810955047607422
ell 1043, elapsed: 0.00033092498779296875
ell 1042, elapsed: 0.0002551078796386719
ell 1041, elapsed: 0.00031185150146484375
ell 1040, elapsed: 0.0002532005310058594
ell 1039, elapsed: 0.00032210350036621094
ell 1038, elapsed: 0.0002529621124267578
ell 1037, elapsed: 0.0003199577331542969
ell 1036, elapsed: 0.00025391578674316406
ell 1035, elapsed: 0.0003120899200439453
ell 1034, elapsed: 0.00026702880859375
ell 1033, elapsed: 0.00032401084899902344
ell 1032, elapsed: 0.0002551078796386719
ell 1031, elapsed: 0.000308990478515625
ell 1030, elapsed: 0.0002510547637939453
ell 1029, elapsed: 0.0003120899200439453
ell 1028, elapsed: 0.00025200843811035156
ell 1027, elapsed: 0.0003139972686767578
ell 1026, elapsed: 0.00025200843811035156
ell 1025, elapsed: 0.0003120899200439453
ell 1024, elapsed: 0.00025200843811035156
ell 1023, elapsed: 0.00031304359436035156
ell 1022, elapsed: 0.00028777122497558594
ell 1021, elapsed: 0.0003180503845214844
ell 1020, elapsed: 0.00025200843811035156
ell 1019, elapsed: 0.00030803680419921875
ell 1018, elapsed: 0.0002510547637939453
ell 1017, elapsed: 0.00031304359436035156
ell 1016, elapsed: 0.0002541542053222656
ell 1015, elapsed: 0.0003120899200439453
ell 1014, elapsed: 0.0002532005310058594
ell 1013, elapsed: 0.00031495094299316406
ell 1012, elapsed: 0.00025200843811035156
ell 1011, elapsed: 0.00041794776916503906
ell 1010, elapsed: 0.0003771781921386719
ell 1009, elapsed: 0.0004990100860595703
ell 1008, elapsed: 0.0004069805145263672
ell 1007, elapsed: 0.0004951953887939453
ell 1006, elapsed: 0.0004138946533203125
ell 1005, elapsed: 0.0005030632019042969
ell 1004, elapsed: 0.00040602684020996094
ell 1003, elapsed: 0.0005040168762207031
ell 1002, elapsed: 0.00041794776916503906
ell 1001, elapsed: 0.0004849433898925781
ell 1000, elapsed: 0.0004150867462158203
ell 999, elapsed: 0.0004849433898925781
ell 998, elapsed: 0.0004131793975830078
ell 997, elapsed: 0.0005018711090087891
ell 996, elapsed: 0.00041985511779785156
ell 995, elapsed: 0.00048613548278808594
ell 994, elapsed: 0.0004181861877441406
ell 993, elapsed: 0.0004818439483642578
ell 992, elapsed: 0.0004210472106933594
ell 991, elapsed: 0.0004889965057373047
ell 990, elapsed: 0.00041794776916503906
ell 989, elapsed: 0.0004961490631103516
ell 988, elapsed: 0.0004210472106933594
ell 987, elapsed: 0.00048804283142089844
ell 986, elapsed: 0.00041794776916503906
ell 985, elapsed: 0.0004830360412597656
ell 984, elapsed: 0.0004208087921142578
ell 983, elapsed: 0.0004858970642089844
ell 982, elapsed: 0.00041294097900390625
ell 981, elapsed: 0.0004980564117431641
ell 980, elapsed: 0.00041604042053222656
ell 979, elapsed: 0.00048279762268066406
ell 978, elapsed: 0.0004169940948486328
ell 977, elapsed: 0.0004858970642089844
ell 976, elapsed: 0.0004169940948486328
ell 975, elapsed: 0.00048613548278808594
ell 974, elapsed: 0.0004239082336425781
ell 973, elapsed: 0.0005018711090087891
ell 972, elapsed: 0.0004131793975830078
ell 971, elapsed: 0.000514984130859375
ell 970, elapsed: 0.00040912628173828125
ell 969, elapsed: 0.0004990100860595703
ell 968, elapsed: 0.00041604042053222656
ell 967, elapsed: 0.0004971027374267578
ell 966, elapsed: 0.0004191398620605469
ell 965, elapsed: 0.0005099773406982422
ell 964, elapsed: 0.0004050731658935547
ell 963, elapsed: 0.000514984130859375
ell 962, elapsed: 0.0004119873046875
ell 961, elapsed: 0.0004990100860595703
ell 960, elapsed: 0.0004119873046875
ell 959, elapsed: 0.0004980564117431641
ell 958, elapsed: 0.0004200935363769531
ell 957, elapsed: 0.0005159378051757812
ell 956, elapsed: 0.00040793418884277344
ell 955, elapsed: 0.0005230903625488281
ell 954, elapsed: 0.0004169940948486328
ell 953, elapsed: 0.0005011558532714844
ell 952, elapsed: 0.0004181861877441406
ell 951, elapsed: 0.0004968643188476562
ell 950, elapsed: 0.0004248619079589844
ell 949, elapsed: 0.0005030632019042969
ell 948, elapsed: 0.00040984153747558594
ell 947, elapsed: 0.0004949569702148438
ell 946, elapsed: 0.0004150867462158203
ell 945, elapsed: 0.0004858970642089844
ell 944, elapsed: 0.0004189014434814453
ell 943, elapsed: 0.0004830360412597656
ell 942, elapsed: 0.00043392181396484375
ell 941, elapsed: 0.0005068778991699219
ell 940, elapsed: 0.00040984153747558594
ell 939, elapsed: 0.0004978179931640625
ell 938, elapsed: 0.0004150867462158203
ell 937, elapsed: 0.0004830360412597656
ell 936, elapsed: 0.0004191398620605469
ell 935, elapsed: 0.0005161762237548828
ell 934, elapsed: 0.00041484832763671875
ell 933, elapsed: 0.0005011558532714844
ell 932, elapsed: 0.0004107952117919922
ell 931, elapsed: 0.0004911422729492188
ell 930, elapsed: 0.0004181861877441406
ell 929, elapsed: 0.0004830360412597656
ell 928, elapsed: 0.0004260540008544922
ell 927, elapsed: 0.0005061626434326172
ell 926, elapsed: 0.0004138946533203125
ell 925, elapsed: 0.0004968643188476562
ell 924, elapsed: 0.0004200935363769531
ell 923, elapsed: 0.0004889965057373047
ell 922, elapsed: 0.0004248619079589844
ell 921, elapsed: 0.0004899501800537109
ell 920, elapsed: 0.00041794776916503906
ell 919, elapsed: 0.0005509853363037109
ell 918, elapsed: 0.0004019737243652344
ell 917, elapsed: 0.0005080699920654297
ell 916, elapsed: 0.0004000663757324219
ell 915, elapsed: 0.000514984130859375
ell 914, elapsed: 0.0004029273986816406
ell 913, elapsed: 0.0005190372467041016
ell 912, elapsed: 0.00046896934509277344
ell 911, elapsed: 0.0005030632019042969
ell 910, elapsed: 0.00041103363037109375
ell 909, elapsed: 0.00049591064453125
ell 908, elapsed: 0.0004169940948486328
ell 907, elapsed: 0.0004849433898925781
ell 906, elapsed: 0.0004210472106933594
ell 905, elapsed: 0.0004799365997314453
ell 904, elapsed: 0.00043702125549316406
ell 903, elapsed: 0.00047898292541503906
ell 902, elapsed: 0.00041413307189941406
ell 901, elapsed: 0.0004978179931640625
ell 900, elapsed: 0.0004131793975830078
ell 899, elapsed: 0.0005278587341308594
ell 898, elapsed: 0.00040078163146972656
ell 897, elapsed: 0.0005340576171875
ell 896, elapsed: 0.0003991127014160156
ell 895, elapsed: 0.0005118846893310547
ell 894, elapsed: 0.0004010200500488281
ell 893, elapsed: 0.0005040168762207031
ell 892, elapsed: 0.0004119873046875
ell 891, elapsed: 0.0004971027374267578
ell 890, elapsed: 0.00041604042053222656
ell 889, elapsed: 0.0005030632019042969
ell 888, elapsed: 0.0004131793975830078
ell 887, elapsed: 0.0004899501800537109
ell 886, elapsed: 0.0004150867462158203
ell 885, elapsed: 0.0004811286926269531
ell 884, elapsed: 0.00041985511779785156
ell 883, elapsed: 0.0004780292510986328
ell 882, elapsed: 0.0004210472106933594
ell 881, elapsed: 0.0005168914794921875
ell 880, elapsed: 0.0004050731658935547
ell 879, elapsed: 0.0005388259887695312
ell 878, elapsed: 0.00043010711669921875
ell 877, elapsed: 0.0005309581756591797
ell 876, elapsed: 0.00041484832763671875
ell 875, elapsed: 0.0004949569702148438
ell 874, elapsed: 0.00042700767517089844
ell 873, elapsed: 0.0004811286926269531
ell 872, elapsed: 0.0004220008850097656
ell 871, elapsed: 0.0004830360412597656
ell 870, elapsed: 0.00041294097900390625
ell 869, elapsed: 0.0004980564117431641
ell 868, elapsed: 0.0004088878631591797
ell 867, elapsed: 0.0005090236663818359
ell 866, elapsed: 0.0004048347473144531
ell 865, elapsed: 0.0005030632019042969
ell 864, elapsed: 0.0003979206085205078
ell 863, elapsed: 0.0005168914794921875
ell 862, elapsed: 0.0004000663757324219
ell 861, elapsed: 0.0005109310150146484
ell 860, elapsed: 0.00040912628173828125
ell 859, elapsed: 0.0005118846893310547
ell 858, elapsed: 0.00041484832763671875
ell 857, elapsed: 0.00048089027404785156
ell 856, elapsed: 0.0004191398620605469
ell 855, elapsed: 0.0004849433898925781
ell 854, elapsed: 0.0004119873046875
ell 853, elapsed: 0.0004990100860595703
ell 852, elapsed: 0.00040793418884277344
ell 851, elapsed: 0.0005309581756591797
ell 850, elapsed: 0.0004038810729980469
ell 849, elapsed: 0.0005228519439697266
ell 848, elapsed: 0.0004029273986816406
ell 847, elapsed: 0.0005221366882324219
ell 846, elapsed: 0.00041103363037109375
ell 845, elapsed: 0.0005099773406982422
ell 844, elapsed: 0.00041794776916503906
ell 843, elapsed: 0.0004889965057373047
ell 842, elapsed: 0.00041985511779785156
ell 841, elapsed: 0.0004830360412597656
ell 840, elapsed: 0.0004220008850097656
ell 839, elapsed: 0.0004870891571044922
ell 838, elapsed: 0.00041413307189941406
ell 837, elapsed: 0.0004990100860595703
ell 836, elapsed: 0.0004329681396484375
ell 835, elapsed: 0.0005180835723876953
ell 834, elapsed: 0.0004031658172607422
ell 833, elapsed: 0.000514984130859375
ell 832, elapsed: 0.0003972053527832031
ell 831, elapsed: 0.0005159378051757812
ell 830, elapsed: 0.00041294097900390625
ell 829, elapsed: 0.0004999637603759766
ell 828, elapsed: 0.0004410743713378906
ell 827, elapsed: 0.00048613548278808594
ell 826, elapsed: 0.00041794776916503906
ell 825, elapsed: 0.00048804283142089844
ell 824, elapsed: 0.0004189014434814453
ell 823, elapsed: 0.0005090236663818359
ell 822, elapsed: 0.00040912628173828125
ell 821, elapsed: 0.0005350112915039062
ell 820, elapsed: 0.0004010200500488281
ell 819, elapsed: 0.0005180835723876953
ell 818, elapsed: 0.0004000663757324219
ell 817, elapsed: 0.000518798828125
ell 816, elapsed: 0.00040602684020996094
ell 815, elapsed: 0.0005099773406982422
ell 814, elapsed: 0.00041604042053222656
ell 813, elapsed: 0.0005071163177490234
ell 812, elapsed: 0.0004208087921142578
ell 811, elapsed: 0.00048804283142089844
ell 810, elapsed: 0.0004210472106933594
ell 809, elapsed: 0.0004949569702148438
ell 808, elapsed: 0.0004100799560546875
ell 807, elapsed: 0.0005099773406982422
ell 806, elapsed: 0.00040411949157714844
ell 805, elapsed: 0.0005228519439697266
ell 804, elapsed: 0.0003972053527832031
ell 803, elapsed: 0.000518798828125
ell 802, elapsed: 0.00040411949157714844
ell 801, elapsed: 0.0005099773406982422
ell 800, elapsed: 0.00040793418884277344
ell 799, elapsed: 0.0004940032958984375
ell 798, elapsed: 0.00043702125549316406
ell 797, elapsed: 0.00048804283142089844
ell 796, elapsed: 0.0004189014434814453
ell 795, elapsed: 0.0004851818084716797
ell 794, elapsed: 0.0004100799560546875
ell 793, elapsed: 0.0005030632019042969
ell 792, elapsed: 0.0004038810729980469
ell 791, elapsed: 0.0005061626434326172
ell 790, elapsed: 0.0004138946533203125
ell 789, elapsed: 0.0005171298980712891
ell 788, elapsed: 0.0004029273986816406
ell 787, elapsed: 0.0005140304565429688
ell 786, elapsed: 0.00040912628173828125
ell 785, elapsed: 0.0004951953887939453
ell 784, elapsed: 0.0004200935363769531
ell 783, elapsed: 0.0004999637603759766
ell 782, elapsed: 0.0004150867462158203
ell 781, elapsed: 0.0004940032958984375
ell 780, elapsed: 0.0004088878631591797
ell 779, elapsed: 0.0005121231079101562
ell 778, elapsed: 0.0004019737243652344
ell 777, elapsed: 0.0005171298980712891
ell 776, elapsed: 0.0004010200500488281
ell 775, elapsed: 0.0005350112915039062
ell 774, elapsed: 0.0004181861877441406
ell 773, elapsed: 0.0004990100860595703
ell 772, elapsed: 0.0004220008850097656
ell 771, elapsed: 0.0004961490631103516
ell 770, elapsed: 0.0004220008850097656
ell 769, elapsed: 0.0004940032958984375
ell 768, elapsed: 0.0004119873046875
ell 767, elapsed: 0.0005278587341308594
ell 766, elapsed: 0.0004029273986816406
ell 765, elapsed: 0.0005190372467041016
ell 764, elapsed: 0.0003991127014160156
ell 763, elapsed: 0.0005199909210205078
ell 762, elapsed: 0.00040793418884277344
ell 761, elapsed: 0.0005049705505371094
ell 760, elapsed: 0.0004420280456542969
ell 759, elapsed: 0.0004899501800537109
ell 758, elapsed: 0.0004229545593261719
ell 757, elapsed: 0.0004889965057373047
ell 756, elapsed: 0.00041604042053222656
ell 755, elapsed: 0.0005071163177490234
ell 754, elapsed: 0.0004088878631591797
ell 753, elapsed: 0.0005180835723876953
ell 752, elapsed: 0.0004119873046875
ell 751, elapsed: 0.0005199909210205078
ell 750, elapsed: 0.00040411949157714844
ell 749, elapsed: 0.0005099773406982422
ell 748, elapsed: 0.00041413307189941406
ell 747, elapsed: 0.0004971027374267578
ell 746, elapsed: 0.0004260540008544922
ell 745, elapsed: 0.0005080699920654297
ell 744, elapsed: 0.0004150867462158203
ell 743, elapsed: 0.0005049705505371094
ell 742, elapsed: 0.00041103363037109375
ell 741, elapsed: 0.0005240440368652344
ell 740, elapsed: 0.0004031658172607422
ell 739, elapsed: 0.0005190372467041016
ell 738, elapsed: 0.0004010200500488281
ell 737, elapsed: 0.000537872314453125
ell 736, elapsed: 0.00041413307189941406
ell 735, elapsed: 0.0004971027374267578
ell 734, elapsed: 0.0004220008850097656
ell 733, elapsed: 0.0004839897155761719
ell 732, elapsed: 0.0004169940948486328
ell 731, elapsed: 0.0005049705505371094
ell 730, elapsed: 0.0004379749298095703
ell 729, elapsed: 0.0005168914794921875
ell 728, elapsed: 0.00041103363037109375
ell 727, elapsed: 0.0005118846893310547
ell 726, elapsed: 0.0004191398620605469
ell 725, elapsed: 0.0004889965057373047
ell 724, elapsed: 0.0004189014434814453
ell 723, elapsed: 0.0004971027374267578
ell 722, elapsed: 0.0004279613494873047
ell 721, elapsed: 0.0005280971527099609
ell 720, elapsed: 0.0004019737243652344
ell 719, elapsed: 0.0005109310150146484
ell 718, elapsed: 0.00041484832763671875
ell 717, elapsed: 0.0004889965057373047
ell 716, elapsed: 0.0004229545593261719
ell 715, elapsed: 0.0005140304565429688
ell 714, elapsed: 0.0004088878631591797
ell 713, elapsed: 0.0005190372467041016
ell 712, elapsed: 0.00040411949157714844
ell 711, elapsed: 0.0005319118499755859
ell 710, elapsed: 0.000415802001953125
ell 709, elapsed: 0.00048804283142089844
ell 708, elapsed: 0.0004229545593261719
ell 707, elapsed: 0.0005209445953369141
ell 706, elapsed: 0.0004150867462158203
ell 705, elapsed: 0.0005190372467041016
ell 704, elapsed: 0.0003998279571533203
ell 703, elapsed: 0.0005199909210205078
ell 702, elapsed: 0.00041103363037109375
ell 701, elapsed: 0.0005090236663818359
ell 700, elapsed: 0.00043201446533203125
ell 699, elapsed: 0.0004909038543701172
ell 698, elapsed: 0.000415802001953125
ell 697, elapsed: 0.0004990100860595703
ell 696, elapsed: 0.0004069805145263672
ell 695, elapsed: 0.0005199909210205078
ell 694, elapsed: 0.0004010200500488281
ell 693, elapsed: 0.0005211830139160156
ell 692, elapsed: 0.00042700767517089844
ell 691, elapsed: 0.0004999637603759766
ell 690, elapsed: 0.0004229545593261719
ell 689, elapsed: 0.0004968643188476562
ell 688, elapsed: 0.0004150867462158203
ell 687, elapsed: 0.0005159378051757812
ell 686, elapsed: 0.0004050731658935547
ell 685, elapsed: 0.0005309581756591797
ell 684, elapsed: 0.0004029273986816406
ell 683, elapsed: 0.0005199909210205078
ell 682, elapsed: 0.00041294097900390625
ell 681, elapsed: 0.0004968643188476562
ell 680, elapsed: 0.0004260540008544922
ell 679, elapsed: 0.0005090236663818359
ell 678, elapsed: 0.0004100799560546875
ell 677, elapsed: 0.0005278587341308594
ell 676, elapsed: 0.0004019737243652344
ell 675, elapsed: 0.0005221366882324219
ell 674, elapsed: 0.0004100799560546875
ell 673, elapsed: 0.0005030632019042969
ell 672, elapsed: 0.0004200935363769531
ell 671, elapsed: 0.0004949569702148438
ell 670, elapsed: 0.00048089027404785156
ell 669, elapsed: 0.0005319118499755859
ell 668, elapsed: 0.0003998279571533203
ell 667, elapsed: 0.0005180835723876953
ell 666, elapsed: 0.0004010200500488281
ell 665, elapsed: 0.0005218982696533203
ell 664, elapsed: 0.0004150867462158203
ell 663, elapsed: 0.0005040168762207031
ell 662, elapsed: 0.0004220008850097656
ell 661, elapsed: 0.0004899501800537109
ell 660, elapsed: 0.0004220008850097656
ell 659, elapsed: 0.0004930496215820312
ell 658, elapsed: 0.0004119873046875
ell 657, elapsed: 0.0005137920379638672
ell 656, elapsed: 0.0004010200500488281
ell 655, elapsed: 0.0005359649658203125
ell 654, elapsed: 0.0004069805145263672
ell 653, elapsed: 0.0005159378051757812
ell 652, elapsed: 0.00041103363037109375
ell 651, elapsed: 0.0004930496215820312
ell 650, elapsed: 0.0004220008850097656
ell 649, elapsed: 0.00048804283142089844
ell 648, elapsed: 0.0004131793975830078
ell 647, elapsed: 0.0004968643188476562
ell 646, elapsed: 0.0004210472106933594
ell 645, elapsed: 0.0004951953887939453
ell 644, elapsed: 0.0004210472106933594
ell 643, elapsed: 0.0005209445953369141
ell 642, elapsed: 0.00040602684020996094
ell 641, elapsed: 0.0005381107330322266
ell 640, elapsed: 0.000514984130859375
ell 639, elapsed: 0.0005140304565429688
ell 638, elapsed: 0.0004150867462158203
ell 637, elapsed: 0.00049591064453125
ell 636, elapsed: 0.0004241466522216797
ell 635, elapsed: 0.0004889965057373047
ell 634, elapsed: 0.0004241466522216797
ell 633, elapsed: 0.0004940032958984375
ell 632, elapsed: 0.00040984153747558594
ell 631, elapsed: 0.0005271434783935547
ell 630, elapsed: 0.0004029273986816406
ell 629, elapsed: 0.0005240440368652344
ell 628, elapsed: 0.0004019737243652344
ell 627, elapsed: 0.0005230903625488281
ell 626, elapsed: 0.00040602684020996094
ell 625, elapsed: 0.0006120204925537109
ell 624, elapsed: 0.0004189014434814453
ell 623, elapsed: 0.0004878044128417969
ell 622, elapsed: 0.00041985511779785156
ell 621, elapsed: 0.0004980564117431641
ell 620, elapsed: 0.0004138946533203125
ell 619, elapsed: 0.0005199909210205078
ell 618, elapsed: 0.0005071163177490234
ell 617, elapsed: 0.0005249977111816406
ell 616, elapsed: 0.0004069805145263672
ell 615, elapsed: 0.0005021095275878906
ell 614, elapsed: 0.00041604042053222656
ell 613, elapsed: 0.000492095947265625
ell 612, elapsed: 0.0004248619079589844
ell 611, elapsed: 0.0004868507385253906
ell 610, elapsed: 0.0005288124084472656
ell 609, elapsed: 0.0005140304565429688
ell 608, elapsed: 0.0004048347473144531
ell 607, elapsed: 0.0005259513854980469
ell 606, elapsed: 0.0004019737243652344
ell 605, elapsed: 0.0005218982696533203
ell 604, elapsed: 0.0004100799560546875
ell 603, elapsed: 0.0006089210510253906
ell 602, elapsed: 0.0004191398620605469
ell 601, elapsed: 0.0004889965057373047
ell 600, elapsed: 0.0004208087921142578
ell 599, elapsed: 0.0004899501800537109
ell 598, elapsed: 0.0004169940948486328
ell 597, elapsed: 0.0005068778991699219
ell 596, elapsed: 0.0004029273986816406
ell 595, elapsed: 0.0005171298980712891
ell 594, elapsed: 0.00040793418884277344
ell 593, elapsed: 0.0005209445953369141
ell 592, elapsed: 0.0004100799560546875
ell 591, elapsed: 0.0005109310150146484
ell 590, elapsed: 0.0004150867462158203
ell 589, elapsed: 0.0004949569702148438
ell 588, elapsed: 0.0005350112915039062
ell 587, elapsed: 0.0005099773406982422
ell 586, elapsed: 0.00041294097900390625
ell 585, elapsed: 0.0005218982696533203
ell 584, elapsed: 0.0004050731658935547
ell 583, elapsed: 0.0005178451538085938
ell 582, elapsed: 0.00040984153747558594
ell 581, elapsed: 0.0006048679351806641
ell 580, elapsed: 0.00041985511779785156
ell 579, elapsed: 0.0004949569702148438
ell 578, elapsed: 0.00042819976806640625
ell 577, elapsed: 0.0004909038543701172
ell 576, elapsed: 0.0004181861877441406
ell 575, elapsed: 0.0005090236663818359
ell 574, elapsed: 0.00040411949157714844
ell 573, elapsed: 0.00061798095703125
ell 572, elapsed: 0.0004069805145263672
ell 571, elapsed: 0.000518798828125
ell 570, elapsed: 0.0004169940948486328
ell 569, elapsed: 0.0004968643188476562
ell 568, elapsed: 0.00042891502380371094
ell 567, elapsed: 0.0005030632019042969
ell 566, elapsed: 0.000514984130859375
ell 565, elapsed: 0.0005269050598144531
ell 564, elapsed: 0.0003991127014160156
ell 563, elapsed: 0.0005118846893310547
ell 562, elapsed: 0.0004031658172607422
ell 561, elapsed: 0.0005109310150146484
ell 560, elapsed: 0.0004119873046875
ell 559, elapsed: 0.0006010532379150391
ell 558, elapsed: 0.0004169940948486328
ell 557, elapsed: 0.0005018711090087891
ell 556, elapsed: 0.0004088878631591797
ell 555, elapsed: 0.0005140304565429688
ell 554, elapsed: 0.0004010200500488281
ell 553, elapsed: 0.0005130767822265625
ell 552, elapsed: 0.0004010200500488281
ell 551, elapsed: 0.0006170272827148438
ell 550, elapsed: 0.0004138946533203125
ell 549, elapsed: 0.0004999637603759766
ell 548, elapsed: 0.0004169940948486328
ell 547, elapsed: 0.0005018711090087891
ell 546, elapsed: 0.0004220008850097656
ell 545, elapsed: 0.0004878044128417969
ell 544, elapsed: 0.0005130767822265625
ell 543, elapsed: 0.0005130767822265625
ell 542, elapsed: 0.00040602684020996094
ell 541, elapsed: 0.0005331039428710938
ell 540, elapsed: 0.00040411949157714844
ell 539, elapsed: 0.0005209445953369141
ell 538, elapsed: 0.00041294097900390625
ell 537, elapsed: 0.0005931854248046875
ell 536, elapsed: 0.00042510032653808594
ell 535, elapsed: 0.0004849433898925781
ell 534, elapsed: 0.0004220008850097656
ell 533, elapsed: 0.00049591064453125
ell 532, elapsed: 0.00041103363037109375
ell 531, elapsed: 0.0005099773406982422
ell 530, elapsed: 0.0004019737243652344
ell 529, elapsed: 0.0006399154663085938
ell 528, elapsed: 0.0004189014434814453
ell 527, elapsed: 0.0005018711090087891
ell 526, elapsed: 0.0004210472106933594
ell 525, elapsed: 0.0004870891571044922
ell 524, elapsed: 0.0004220008850097656
ell 523, elapsed: 0.0005030632019042969
ell 522, elapsed: 0.0004889965057373047
ell 521, elapsed: 0.000514984130859375
ell 520, elapsed: 0.0004010200500488281
ell 519, elapsed: 0.0005178451538085938
ell 518, elapsed: 0.0003960132598876953
ell 517, elapsed: 0.0005168914794921875
ell 516, elapsed: 0.0004038810729980469
ell 515, elapsed: 0.0005209445953369141
ell 514, elapsed: 0.0005218982696533203
ell 513, elapsed: 0.0004889965057373047
ell 512, elapsed: 0.00042700767517089844
ell 511, elapsed: 0.0004839897155761719
ell 510, elapsed: 0.0004119873046875
ell 509, elapsed: 0.0005059242248535156
ell 508, elapsed: 0.00040602684020996094
ell 507, elapsed: 0.0005979537963867188
ell 506, elapsed: 0.00040912628173828125
ell 505, elapsed: 0.0005178451538085938
ell 504, elapsed: 0.0004150867462158203
ell 503, elapsed: 0.0005018711090087891
ell 502, elapsed: 0.00041604042053222656
ell 501, elapsed: 0.0004849433898925781
ell 500, elapsed: 0.0004220008850097656
ell 499, elapsed: 0.0006129741668701172
ell 498, elapsed: 0.0004019737243652344
ell 497, elapsed: 0.0005071163177490234
ell 496, elapsed: 0.0003960132598876953
ell 495, elapsed: 0.0005168914794921875
ell 494, elapsed: 0.0004038810729980469
ell 493, elapsed: 0.000514984130859375
ell 492, elapsed: 0.0004999637603759766
ell 491, elapsed: 0.0004968643188476562
ell 490, elapsed: 0.00041794776916503906
ell 489, elapsed: 0.0004949569702148438
ell 488, elapsed: 0.0004220008850097656
ell 487, elapsed: 0.0004799365997314453
ell 486, elapsed: 0.00041794776916503906
ell 485, elapsed: 0.0004940032958984375
ell 484, elapsed: 0.00040793418884277344
ell 483, elapsed: 0.0005209445953369141
ell 482, elapsed: 0.00039887428283691406
ell 481, elapsed: 0.0005199909210205078
ell 480, elapsed: 0.00040602684020996094
ell 479, elapsed: 0.0004990100860595703
ell 478, elapsed: 0.0004119873046875
ell 477, elapsed: 0.0005800724029541016
ell 476, elapsed: 0.00041604042053222656
ell 475, elapsed: 0.00048804283142089844
ell 474, elapsed: 0.00040793418884277344
ell 473, elapsed: 0.0005028247833251953
ell 472, elapsed: 0.0004031658172607422
ell 471, elapsed: 0.0005140304565429688
ell 470, elapsed: 0.0003960132598876953
ell 469, elapsed: 0.0005040168762207031
ell 468, elapsed: 0.00041103363037109375
ell 467, elapsed: 0.0004961490631103516
ell 466, elapsed: 0.0004208087921142578
ell 465, elapsed: 0.00048613548278808594
ell 464, elapsed: 0.00041794776916503906
ell 463, elapsed: 0.0004940032958984375
ell 462, elapsed: 0.0004951953887939453
ell 461, elapsed: 0.0005249977111816406
ell 460, elapsed: 0.0004010200500488281
ell 459, elapsed: 0.0005080699920654297
ell 458, elapsed: 0.00040912628173828125
ell 457, elapsed: 0.0004999637603759766
ell 456, elapsed: 0.0004169940948486328
ell 455, elapsed: 0.0005939006805419922
ell 454, elapsed: 0.00041294097900390625
ell 453, elapsed: 0.0005102157592773438
ell 452, elapsed: 0.0004119873046875
ell 451, elapsed: 0.0005228519439697266
ell 450, elapsed: 0.00040411949157714844
ell 449, elapsed: 0.0005171298980712891
ell 448, elapsed: 0.00039696693420410156
ell 447, elapsed: 0.0006039142608642578
ell 446, elapsed: 0.0004119873046875
ell 445, elapsed: 0.0005030632019042969
ell 444, elapsed: 0.00041294097900390625
ell 443, elapsed: 0.0004889965057373047
ell 442, elapsed: 0.0004248619079589844
ell 441, elapsed: 0.0004878044128417969
ell 440, elapsed: 0.0005319118499755859
ell 439, elapsed: 0.0005078315734863281
ell 438, elapsed: 0.0004010200500488281
ell 437, elapsed: 0.000514984130859375
ell 436, elapsed: 0.0003998279571533203
ell 435, elapsed: 0.0005168914794921875
ell 434, elapsed: 0.0004119873046875
ell 433, elapsed: 0.0004990100860595703
ell 432, elapsed: 0.0005500316619873047
ell 431, elapsed: 0.0004999637603759766
ell 430, elapsed: 0.00040984153747558594
ell 429, elapsed: 0.0005130767822265625
ell 428, elapsed: 0.0004010200500488281
ell 427, elapsed: 0.0005180835723876953
ell 426, elapsed: 0.0004010200500488281
ell 425, elapsed: 0.0006279945373535156
ell 424, elapsed: 0.0004210472106933594
ell 423, elapsed: 0.0004949569702148438
ell 422, elapsed: 0.0004200935363769531
ell 421, elapsed: 0.0005199909210205078
ell 420, elapsed: 0.0004019737243652344
ell 419, elapsed: 0.0005319118499755859
ell 418, elapsed: 0.00043702125549316406
ell 417, elapsed: 0.0005049705505371094
ell 416, elapsed: 0.0004220008850097656
ell 415, elapsed: 0.0004899501800537109
ell 414, elapsed: 0.0004239082336425781
ell 413, elapsed: 0.00048804283142089844
ell 412, elapsed: 0.00041294097900390625
ell 411, elapsed: 0.0005068778991699219
ell 410, elapsed: 0.00042510032653808594
ell 409, elapsed: 0.0005068778991699219
ell 408, elapsed: 0.0004029273986816406
ell 407, elapsed: 0.0005099773406982422
ell 406, elapsed: 0.0003981590270996094
ell 405, elapsed: 0.0005190372467041016
ell 404, elapsed: 0.0004100799560546875
ell 403, elapsed: 0.0005309581756591797
ell 402, elapsed: 0.0004191398620605469
ell 401, elapsed: 0.0004870891571044922
ell 400, elapsed: 0.0004191398620605469
ell 399, elapsed: 0.0005030632019042969
ell 398, elapsed: 0.0004119873046875
ell 397, elapsed: 0.0005030632019042969
ell 396, elapsed: 0.00040411949157714844
ell 395, elapsed: 0.0005278587341308594
ell 394, elapsed: 0.00041294097900390625
ell 393, elapsed: 0.0005218982696533203
ell 392, elapsed: 0.0004191398620605469
ell 391, elapsed: 0.0005130767822265625
ell 390, elapsed: 0.0004260540008544922
ell 389, elapsed: 0.0004928112030029297
ell 388, elapsed: 0.0004220008850097656
ell 387, elapsed: 0.0005109310150146484
ell 386, elapsed: 0.0004069805145263672
ell 385, elapsed: 0.0005259513854980469
ell 384, elapsed: 0.0004010200500488281
ell 383, elapsed: 0.0005238056182861328
ell 382, elapsed: 0.0004119873046875
ell 381, elapsed: 0.0004968643188476562
ell 380, elapsed: 0.0004391670227050781
ell 379, elapsed: 0.0004961490631103516
ell 378, elapsed: 0.000415802001953125
ell 377, elapsed: 0.0005118846893310547
ell 376, elapsed: 0.0004069805145263672
ell 375, elapsed: 0.0005109310150146484
ell 374, elapsed: 0.0004019737243652344
ell 373, elapsed: 0.0006000995635986328
ell 372, elapsed: 0.00041794776916503906
ell 371, elapsed: 0.0004971027374267578
ell 370, elapsed: 0.0004169940948486328
ell 369, elapsed: 0.00048804283142089844
ell 368, elapsed: 0.00042700767517089844
ell 367, elapsed: 0.0005161762237548828
ell 366, elapsed: 0.00040984153747558594
ell 365, elapsed: 0.0005381107330322266
ell 364, elapsed: 0.0004031658172607422
ell 363, elapsed: 0.0005161762237548828
ell 362, elapsed: 0.0004220008850097656
ell 361, elapsed: 0.000492095947265625
ell 360, elapsed: 0.00041604042053222656
ell 359, elapsed: 0.0004820823669433594
ell 358, elapsed: 0.0005011558532714844
ell 357, elapsed: 0.0005080699920654297
ell 356, elapsed: 0.0004029273986816406
ell 355, elapsed: 0.0005049705505371094
ell 354, elapsed: 0.0003960132598876953
ell 353, elapsed: 0.0005168914794921875
ell 352, elapsed: 0.0004048347473144531
ell 351, elapsed: 0.0005161762237548828
ell 350, elapsed: 0.0005159378051757812
ell 349, elapsed: 0.0004889965057373047
ell 348, elapsed: 0.0004220008850097656
ell 347, elapsed: 0.0004901885986328125
ell 346, elapsed: 0.00041103363037109375
ell 345, elapsed: 0.0004949569702148438
ell 344, elapsed: 0.0004029273986816406
ell 343, elapsed: 0.0006120204925537109
ell 342, elapsed: 0.00041294097900390625
ell 341, elapsed: 0.0005099773406982422
ell 340, elapsed: 0.0004220008850097656
ell 339, elapsed: 0.0004849433898925781
ell 338, elapsed: 0.0004138946533203125
ell 337, elapsed: 0.0005090236663818359
ell 336, elapsed: 0.0004038810729980469
ell 335, elapsed: 0.0005309581756591797
ell 334, elapsed: 0.00040221214294433594
ell 333, elapsed: 0.0005180835723876953
ell 332, elapsed: 0.0004100799560546875
ell 331, elapsed: 0.0004971027374267578
ell 330, elapsed: 0.0004200935363769531
ell 329, elapsed: 0.0004839897155761719
ell 328, elapsed: 0.00045299530029296875
ell 327, elapsed: 0.0004940032958984375
ell 326, elapsed: 0.00041103363037109375
ell 325, elapsed: 0.0005052089691162109
ell 324, elapsed: 0.0004029273986816406
ell 323, elapsed: 0.0005159378051757812
ell 322, elapsed: 0.0003998279571533203
ell 321, elapsed: 0.0005121231079101562
ell 320, elapsed: 0.00043392181396484375
ell 319, elapsed: 0.0004980564117431641
ell 318, elapsed: 0.00042319297790527344
ell 317, elapsed: 0.0004839897155761719
ell 316, elapsed: 0.00041103363037109375
ell 315, elapsed: 0.0005021095275878906
ell 314, elapsed: 0.0004019737243652344
ell 313, elapsed: 0.0005240440368652344
ell 312, elapsed: 0.00041413307189941406
ell 311, elapsed: 0.0005178451538085938
ell 310, elapsed: 0.0004360675811767578
ell 309, elapsed: 0.00049591064453125
ell 308, elapsed: 0.0004138946533203125
ell 307, elapsed: 0.0005099773406982422
ell 306, elapsed: 0.000408172607421875
ell 305, elapsed: 0.0005321502685546875
ell 304, elapsed: 0.0004029273986816406
ell 303, elapsed: 0.0005140304565429688
ell 302, elapsed: 0.00041604042053222656
ell 301, elapsed: 0.00049591064453125
ell 300, elapsed: 0.0004200935363769531
ell 299, elapsed: 0.0004799365997314453
ell 298, elapsed: 0.0004329681396484375
ell 297, elapsed: 0.000514984130859375
ell 296, elapsed: 0.00040721893310546875
ell 295, elapsed: 0.0005140304565429688
ell 294, elapsed: 0.0003979206085205078
ell 293, elapsed: 0.000514984130859375
ell 292, elapsed: 0.0004010200500488281
ell 291, elapsed: 0.0005199909210205078
ell 290, elapsed: 0.0004341602325439453
ell 289, elapsed: 0.00049591064453125
ell 288, elapsed: 0.0004169940948486328
ell 287, elapsed: 0.0004870891571044922
ell 286, elapsed: 0.0004210472106933594
ell 285, elapsed: 0.0004889965057373047
ell 284, elapsed: 0.00041294097900390625
ell 283, elapsed: 0.0005080699920654297
ell 282, elapsed: 0.00041413307189941406
ell 281, elapsed: 0.0005140304565429688
ell 280, elapsed: 0.0003979206085205078
ell 279, elapsed: 0.0005180835723876953
ell 278, elapsed: 0.0004019737243652344
ell 277, elapsed: 0.00051116943359375
ell 276, elapsed: 0.00040912628173828125
ell 275, elapsed: 0.0005130767822265625
ell 274, elapsed: 0.00042891502380371094
ell 273, elapsed: 0.0004799365997314453
ell 272, elapsed: 0.0004241466522216797
ell 271, elapsed: 0.00048804283142089844
ell 270, elapsed: 0.00041794776916503906
ell 269, elapsed: 0.0005018711090087891
ell 268, elapsed: 0.00040984153747558594
ell 267, elapsed: 0.0005369186401367188
ell 266, elapsed: 0.0004000663757324219
ell 265, elapsed: 0.0005221366882324219
ell 264, elapsed: 0.00040602684020996094
ell 263, elapsed: 0.0005099773406982422
ell 262, elapsed: 0.00041604042053222656
ell 261, elapsed: 0.00048804283142089844
ell 260, elapsed: 0.00043702125549316406
ell 259, elapsed: 0.0004918575286865234
ell 258, elapsed: 0.00040984153747558594
ell 257, elapsed: 0.0005059242248535156
ell 256, elapsed: 0.0003998279571533203
ell 255, elapsed: 0.0005269050598144531
ell 254, elapsed: 0.0004019737243652344
ell 253, elapsed: 0.0005171298980712891
ell 252, elapsed: 0.00043320655822753906
ell 251, elapsed: 0.0004971027374267578
ell 250, elapsed: 0.0004208087921142578
ell 249, elapsed: 0.0004878044128417969
ell 248, elapsed: 0.0004169940948486328
ell 247, elapsed: 0.0004990100860595703
ell 246, elapsed: 0.00040602684020996094
ell 245, elapsed: 0.0005269050598144531
ell 244, elapsed: 0.00039696693420410156
ell 243, elapsed: 0.0005118846893310547
ell 242, elapsed: 0.0003981590270996094
ell 241, elapsed: 0.0005030632019042969
ell 240, elapsed: 0.00040984153747558594
ell 239, elapsed: 0.0004918575286865234
ell 238, elapsed: 0.0004169940948486328
ell 237, elapsed: 0.0005009174346923828
ell 236, elapsed: 0.00042319297790527344
ell 235, elapsed: 0.0004940032958984375
ell 234, elapsed: 0.00041103363037109375
ell 233, elapsed: 0.0005099773406982422
ell 232, elapsed: 0.0004010200500488281
ell 231, elapsed: 0.0005080699920654297
ell 230, elapsed: 0.00039196014404296875
ell 229, elapsed: 0.0005290508270263672
ell 228, elapsed: 0.0003979206085205078
ell 227, elapsed: 0.0005090236663818359
ell 226, elapsed: 0.00041294097900390625
ell 225, elapsed: 0.0004949569702148438
ell 224, elapsed: 0.0004191398620605469
ell 223, elapsed: 0.0004818439483642578
ell 222, elapsed: 0.0004181861877441406
ell 221, elapsed: 0.0004918575286865234
ell 220, elapsed: 0.0004069805145263672
ell 219, elapsed: 0.0005202293395996094
ell 218, elapsed: 0.00039696693420410156
ell 217, elapsed: 0.0005109310150146484
ell 216, elapsed: 0.0004031658172607422
ell 215, elapsed: 0.0005109310150146484
ell 214, elapsed: 0.0004241466522216797
ell 213, elapsed: 0.0004940032958984375
ell 212, elapsed: 0.0004169940948486328
ell 211, elapsed: 0.0004811286926269531
ell 210, elapsed: 0.00041794776916503906
ell 209, elapsed: 0.0004899501800537109
ell 208, elapsed: 0.000408172607421875
ell 207, elapsed: 0.0005090236663818359
ell 206, elapsed: 0.00041794776916503906
ell 205, elapsed: 0.0005140304565429688
ell 204, elapsed: 0.0004010200500488281
ell 203, elapsed: 0.0005080699920654297
ell 202, elapsed: 0.00041103363037109375
ell 201, elapsed: 0.0004940032958984375
ell 200, elapsed: 0.0004169940948486328
ell 199, elapsed: 0.0004909038543701172
ell 198, elapsed: 0.00041294097900390625
ell 197, elapsed: 0.0004961490631103516
ell 196, elapsed: 0.0004000663757324219
ell 195, elapsed: 0.0005190372467041016
ell 194, elapsed: 0.0003960132598876953
ell 193, elapsed: 0.0005180835723876953
ell 192, elapsed: 0.0004029273986816406
ell 191, elapsed: 0.0005469322204589844
ell 190, elapsed: 0.0004150867462158203
ell 189, elapsed: 0.00047898292541503906
ell 188, elapsed: 0.0004200935363769531
ell 187, elapsed: 0.00048089027404785156
ell 186, elapsed: 0.00040984153747558594
ell 185, elapsed: 0.0004980564117431641
ell 184, elapsed: 0.00040221214294433594
ell 183, elapsed: 0.0005280971527099609
ell 182, elapsed: 0.0003941059112548828
ell 181, elapsed: 0.0005140304565429688
ell 180, elapsed: 0.0004029273986816406
ell 179, elapsed: 0.0005049705505371094
ell 178, elapsed: 0.00041604042053222656
ell 177, elapsed: 0.000492095947265625
ell 176, elapsed: 0.00043201446533203125
ell 175, elapsed: 0.0004849433898925781
ell 174, elapsed: 0.00040984153747558594
ell 173, elapsed: 0.0005049705505371094
ell 172, elapsed: 0.0004019737243652344
ell 171, elapsed: 0.0005090236663818359
ell 170, elapsed: 0.0003960132598876953
ell 169, elapsed: 0.0005159378051757812
ell 168, elapsed: 0.000415802001953125
ell 167, elapsed: 0.0005199909210205078
ell 166, elapsed: 0.0003979206085205078
ell 165, elapsed: 0.0005240440368652344
ell 164, elapsed: 0.00043511390686035156
ell 163, elapsed: 0.0004940032958984375
ell 162, elapsed: 0.00041484832763671875
ell 161, elapsed: 0.0005121231079101562
ell 160, elapsed: 0.00041604042053222656
ell 159, elapsed: 0.0005259513854980469
ell 158, elapsed: 0.00039386749267578125
ell 157, elapsed: 0.0005121231079101562
ell 156, elapsed: 0.0004050731658935547
ell 155, elapsed: 0.0005028247833251953
ell 154, elapsed: 0.00041294097900390625
ell 153, elapsed: 0.0005030632019042969
ell 152, elapsed: 0.00041604042053222656
ell 151, elapsed: 0.0004858970642089844
ell 150, elapsed: 0.00041413307189941406
ell 149, elapsed: 0.0005011558532714844
ell 148, elapsed: 0.0004050731658935547
ell 147, elapsed: 0.0005068778991699219
ell 146, elapsed: 0.00039696693420410156
ell 145, elapsed: 0.0005679130554199219
ell 144, elapsed: 0.00041103363037109375
ell 143, elapsed: 0.0005011558532714844
ell 142, elapsed: 0.00041985511779785156
ell 141, elapsed: 0.0004849433898925781
ell 140, elapsed: 0.0004220008850097656
ell 139, elapsed: 0.0004951953887939453
ell 138, elapsed: 0.0004298686981201172
ell 137, elapsed: 0.0005099773406982422
ell 136, elapsed: 0.00039505958557128906
ell 135, elapsed: 0.000514984130859375
ell 134, elapsed: 0.0004038810729980469
ell 133, elapsed: 0.0005061626434326172
ell 132, elapsed: 0.00041484832763671875
ell 131, elapsed: 0.0005028247833251953
ell 130, elapsed: 0.0004379749298095703
ell 129, elapsed: 0.0004818439483642578
ell 128, elapsed: 0.00041413307189941406
ell 127, elapsed: 0.0004990100860595703
ell 126, elapsed: 0.0004088878631591797
ell 125, elapsed: 0.0005159378051757812
ell 124, elapsed: 0.00040602684020996094
ell 123, elapsed: 0.0005309581756591797
ell 122, elapsed: 0.0004119873046875
ell 121, elapsed: 0.0004978179931640625
ell 120, elapsed: 0.0004191398620605469
ell 119, elapsed: 0.00047898292541503906
ell 118, elapsed: 0.0004169940948486328
ell 117, elapsed: 0.0005040168762207031
ell 116, elapsed: 0.00040793418884277344
ell 115, elapsed: 0.0005331039428710938
ell 114, elapsed: 0.0003991127014160156
ell 113, elapsed: 0.0005199909210205078
ell 112, elapsed: 0.0004069805145263672
ell 111, elapsed: 0.0005090236663818359
ell 110, elapsed: 0.00041794776916503906
ell 109, elapsed: 0.000492095947265625
ell 108, elapsed: 0.00041794776916503906
ell 107, elapsed: 0.0005061626434326172
ell 106, elapsed: 0.0004210472106933594
ell 105, elapsed: 0.0004870891571044922
ell 104, elapsed: 0.0004119873046875
ell 103, elapsed: 0.0005121231079101562
ell 102, elapsed: 0.0004010200500488281
ell 101, elapsed: 0.000514984130859375
ell 100, elapsed: 0.00041604042053222656
ell 99, elapsed: 0.0005140304565429688
ell 98, elapsed: 0.0004150867462158203
ell 97, elapsed: 0.0004978179931640625
ell 96, elapsed: 0.0004298686981201172
ell 95, elapsed: 0.0004899501800537109
ell 94, elapsed: 0.0004191398620605469
ell 93, elapsed: 0.0005090236663818359
ell 92, elapsed: 0.0004291534423828125
ell 91, elapsed: 0.0005240440368652344
ell 90, elapsed: 0.00040602684020996094
ell 89, elapsed: 0.0005159378051757812
ell 88, elapsed: 0.00042700767517089844
ell 87, elapsed: 0.0004980564117431641
ell 86, elapsed: 0.00041794776916503906
ell 85, elapsed: 0.0005331039428710938
ell 84, elapsed: 0.0004048347473144531
ell 83, elapsed: 0.0005130767822265625
ell 82, elapsed: 0.0004031658172607422
ell 81, elapsed: 0.000514984130859375
ell 80, elapsed: 0.0004029273986816406
ell 79, elapsed: 0.0005128383636474609
ell 78, elapsed: 0.0004150867462158203
ell 77, elapsed: 0.0005109310150146484
ell 76, elapsed: 0.0004298686981201172
ell 75, elapsed: 0.00048804283142089844
ell 74, elapsed: 0.0004150867462158203
ell 73, elapsed: 0.0005137920379638672
ell 72, elapsed: 0.0004038810729980469
ell 71, elapsed: 0.0005180835723876953
ell 70, elapsed: 0.0004189014434814453
ell 69, elapsed: 0.000514984130859375
ell 68, elapsed: 0.0004119873046875
ell 67, elapsed: 0.00049591064453125
ell 66, elapsed: 0.0004229545593261719
ell 65, elapsed: 0.0004830360412597656
ell 64, elapsed: 0.00041484832763671875
ell 63, elapsed: 0.0004940032958984375
ell 62, elapsed: 0.0004229545593261719
ell 61, elapsed: 0.0005209445953369141
ell 60, elapsed: 0.00039887428283691406
ell 59, elapsed: 0.0005288124084472656
ell 58, elapsed: 0.00041413307189941406
ell 57, elapsed: 0.0005090236663818359
ell 56, elapsed: 0.0004210472106933594
ell 55, elapsed: 0.0005128383636474609
ell 54, elapsed: 0.0004239082336425781
ell 53, elapsed: 0.0005159378051757812
ell 52, elapsed: 0.00040602684020996094
ell 51, elapsed: 0.0005271434783935547
ell 50, elapsed: 0.0004169940948486328
ell 49, elapsed: 0.0004978179931640625
ell 48, elapsed: 0.0004239082336425781
ell 47, elapsed: 0.0004968643188476562
ell 46, elapsed: 0.0004189014434814453
ell 45, elapsed: 0.0005059242248535156
ell 44, elapsed: 0.0004069805145263672
ell 43, elapsed: 0.0005121231079101562
ell 42, elapsed: 0.0004029273986816406
ell 41, elapsed: 0.0005218982696533203
ell 40, elapsed: 0.0004150867462158203
ell 39, elapsed: 0.0005011558532714844
ell 38, elapsed: 0.0004220008850097656
ell 37, elapsed: 0.0004909038543701172
ell 36, elapsed: 0.0004279613494873047
ell 35, elapsed: 0.0004990100860595703
ell 34, elapsed: 0.00041413307189941406
ell 33, elapsed: 0.0005140304565429688
ell 32, elapsed: 0.0004138946533203125
ell 31, elapsed: 0.0005249977111816406
ell 30, elapsed: 0.0004048347473144531
ell 29, elapsed: 0.0005128383636474609
ell 28, elapsed: 0.00041604042053222656
ell 27, elapsed: 0.0004971027374267578
ell 26, elapsed: 0.000431060791015625
ell 25, elapsed: 0.00049591064453125
ell 24, elapsed: 0.0004150867462158203
ell 23, elapsed: 0.0005080699920654297
ell 22, elapsed: 0.0004019737243652344
ell 21, elapsed: 0.0005178451538085938
ell 20, elapsed: 0.0004038810729980469
ell 19, elapsed: 0.0005190372467041016
ell 18, elapsed: 0.00041484832763671875
ell 17, elapsed: 0.000537872314453125
ell 16, elapsed: 0.00043201446533203125
ell 15, elapsed: 0.0004909038543701172
ell 14, elapsed: 0.00041484832763671875
ell 13, elapsed: 0.0005140304565429688
ell 12, elapsed: 0.0004038810729980469
ell 11, elapsed: 0.0005249977111816406
ell 10, elapsed: 0.0004069805145263672
ell 9, elapsed: 0.0005331039428710938
ell 8, elapsed: 0.0004107952117919922
ell 7, elapsed: 0.0005068778991699219
ell 6, elapsed: 0.0004220008850097656
ell 5, elapsed: 0.0005049705505371094
ell 4, elapsed: 0.00043010711669921875
ell 3, elapsed: 0.0005180835723876953
ell 2, elapsed: 0.00043201446533203125
ell 1, elapsed: 0.0005211830139160156
ell 0, elapsed: 0.0004029273986816406
  0.655704 seconds (57.03 k allocations: 2.784 MiB)
elapsed: 0.0006439685821533203
step:          0.068843 sec (0 allocations: 0 byte, 0.0% gc time)
swapping:      0.001039 sec (0 allocations: 0 byte, 0.0% gc time)
calc_Mellell!: 0.009639 sec (0 allocations: 0 byte, 0.0% gc time)
  t0 :  0.002508 sec (0 allocations: 0 byte, 0.0% gc time)
  tm2 : 0.091118 sec (0 allocations: 0 byte, 0.0% gc time)
  tm2s: 0.001956 sec (0 allocations: 0 byte, 0.0% gc time)
  tm4 : 0.239285 sec (0 allocations: 0 byte, 0.0% gc time)
  tp2 : 0.0 sec (0 allocations: 0 byte, 0.0% gc time)
  tp2s: 0.0 sec (0 allocations: 0 byte, 0.0% gc time)
  tp4 : 0.0 sec (0 allocations: 0 byte, 0.0% gc time)
calc_wtdll!:   0.357928 sec (9.879 k allocations: 1.044 MB, 0.0% gc time)
calc_wljj!:    0.039747 sec (689 allocations: 10.766 KB, 0.0% gc time)
mult_prefac!:  0.0 sec (0 allocations: 0 byte, 0.0% gc time)
convert:       0.0 sec (0 allocations: 0 byte, 0.0% gc time)
write:         0.060212 sec (0 allocations: 0 byte, 0.0% gc time)
test_rand_2f1: 0.0 sec (0 allocations: 0 byte, 0.0% gc time)
Closing outfile out/Ml21-cache.bin...   0.025297 seconds
  0.000462 seconds (52 allocations: 28.297 KiB)
make_phi():   0.003028 seconds (8.20 k allocations: 238.016 KiB)
  0.194266 seconds (146.69 k allocations: 3.629 MiB)
tskip:       0.000937 sec (0 allocations: 0 byte, 0.0% gc time)
tread:       0.027572 sec (20 allocations: 10.703 KB, 0.0% gc time)
tmultphi:    0.013202 sec (0 allocations: 0 byte, 0.0% gc time)
tbrfft:      0.047537 sec (9.592 k allocations: 449.625 KB, 0.0% gc time)
tmultprefac: 0.030501 sec (0 allocations: 0 byte, 0.0% gc time)
toutfunc:    0.072384 sec (129.905 k allocations: 2.421 MB, 0.0% gc time)
Testing R=1.0 ... passed
Calculating fmax: 
  dlrec    = 4
  dlrecRg1 = -4
  q=1.1, R=0.9:	  0.615571 seconds (149.41 k allocations: 69.863 MiB, 2.94% gc time)

  0.616103 seconds (149.47 k allocations: 69.895 MiB, 2.93% gc time)
ℓ = 1202
Δℓ = 4
ΔℓRg1 = -4
N = 1600
q = 1.1
kmin = 1.0e-5
kmax = 100000.00000000004
χ0 = 0.023029999999999995
RR = RR.tsv
ℓmax = ℓmax.bin
f21 = f21.bin
kmin = 1.0e-5
kmax = 100000.0
dlrec    = 4
dlrecRg1 = -4
Output size: 5741568 bytes = 0.005347251892089844 GiB
Output size: 51264 bytes = 4.774332046508789e-5 GiB
Reading 'out/F21EllCache'...   0.003013 seconds (271 allocations: 84.719 KiB)
ellmax: 1202
lmaxcache: 1202
fell[:,1,1] = Complex{Float64}[1.3482014726274674e-57 - 3.302141236118086e-73im, 1.357860004724329e-57 - 3.3257978169518355e-73im]
ell 1202, elapsed: 2.288818359375e-5
ell 1201, elapsed: 0.0009188652038574219
ell 1200, elapsed: 0.00039696693420410156
ell 1199, elapsed: 0.0008940696716308594
ell 1198, elapsed: 0.0009238719940185547
ell 1002, elapsed: 0.027915000915527344
ell 1001, elapsed: 0.0003838539123535156
ell 1000, elapsed: 0.0003459453582763672
ell 999, elapsed: 0.00034117698669433594
ell 998, elapsed: 0.00033783912658691406
ell 902, elapsed: 0.00551915168762207
ell 901, elapsed: 0.00035500526428222656
ell 900, elapsed: 0.0003371238708496094
ell 899, elapsed: 0.00034809112548828125
ell 898, elapsed: 0.0003440380096435547
ell 802, elapsed: 0.0058519840240478516
ell 801, elapsed: 0.0003650188446044922
ell 800, elapsed: 0.00034689903259277344
ell 799, elapsed: 0.0003349781036376953
ell 798, elapsed: 0.006479024887084961
ell 702, elapsed: 0.00573420524597168
ell 701, elapsed: 0.0003581047058105469
ell 700, elapsed: 0.0003490447998046875
ell 699, elapsed: 0.00034308433532714844
ell 698, elapsed: 0.0003349781036376953
ell 602, elapsed: 0.005546092987060547
ell 601, elapsed: 0.0004661083221435547
ell 600, elapsed: 0.0006699562072753906
ell 599, elapsed: 0.0003380775451660156
ell 598, elapsed: 0.00033593177795410156
ell 502, elapsed: 0.005532026290893555
ell 501, elapsed: 0.0005009174346923828
ell 500, elapsed: 0.0004591941833496094
ell 499, elapsed: 0.00034308433532714844
ell 498, elapsed: 0.0003349781036376953
ell 402, elapsed: 0.01241302490234375
ell 401, elapsed: 0.00035500526428222656
ell 400, elapsed: 0.0003368854522705078
ell 399, elapsed: 0.0003349781036376953
ell 398, elapsed: 0.00033593177795410156
ell 302, elapsed: 0.009537220001220703
ell 301, elapsed: 0.0003681182861328125
ell 300, elapsed: 0.0003361701965332031
ell 299, elapsed: 0.0003349781036376953
ell 298, elapsed: 0.00033402442932128906
ell 202, elapsed: 0.0050199031829833984
ell 201, elapsed: 0.0003590583801269531
ell 200, elapsed: 0.00038313865661621094
ell 199, elapsed: 0.00034117698669433594
ell 198, elapsed: 0.0003428459167480469
ell 152, elapsed: 0.002688884735107422
ell 151, elapsed: 0.00040793418884277344
ell 150, elapsed: 0.0003380775451660156
ell 149, elapsed: 0.0003349781036376953
ell 148, elapsed: 0.0003371238708496094
ell 127, elapsed: 0.001811981201171875
ell 126, elapsed: 0.0003421306610107422
ell 125, elapsed: 0.0003490447998046875
ell 124, elapsed: 0.00033402442932128906
ell 123, elapsed: 0.0003349781036376953
ell 114, elapsed: 0.000804901123046875
ell 113, elapsed: 0.0003352165222167969
ell 112, elapsed: 0.00033402442932128906
ell 111, elapsed: 0.0003349781036376953
ell 110, elapsed: 0.00033402442932128906
ell 102, elapsed: 0.000988006591796875
ell 101, elapsed: 0.0003349781036376953
ell 100, elapsed: 0.00033283233642578125
ell 99, elapsed: 0.00032901763916015625
ell 98, elapsed: 0.0003368854522705078
ell 97, elapsed: 0.00037288665771484375
ell 96, elapsed: 0.0004811286926269531
ell 95, elapsed: 0.00037407875061035156
ell 94, elapsed: 0.0009779930114746094
ell 93, elapsed: 0.00038695335388183594
ell 92, elapsed: 0.0004630088806152344
ell 91, elapsed: 0.00037288665771484375
ell 90, elapsed: 0.0004661083221435547
ell 89, elapsed: 0.0003769397735595703
ell 88, elapsed: 0.0004730224609375
ell 87, elapsed: 0.0003731250762939453
ell 86, elapsed: 0.0006420612335205078
ell 85, elapsed: 0.0003731250762939453
ell 84, elapsed: 0.00046896934509277344
ell 83, elapsed: 0.0003771781921386719
ell 82, elapsed: 0.0004589557647705078
ell 81, elapsed: 0.00037407875061035156
ell 80, elapsed: 0.0004570484161376953
ell 79, elapsed: 0.0003719329833984375
ell 78, elapsed: 0.0005609989166259766
ell 77, elapsed: 0.00037598609924316406
ell 76, elapsed: 0.00046896934509277344
ell 75, elapsed: 0.00037479400634765625
ell 74, elapsed: 0.0004680156707763672
ell 73, elapsed: 0.00037598609924316406
ell 72, elapsed: 0.0004570484161376953
ell 71, elapsed: 0.00037407875061035156
ell 70, elapsed: 0.0005428791046142578
ell 69, elapsed: 0.0003681182861328125
ell 68, elapsed: 0.0004520416259765625
ell 67, elapsed: 0.00037288665771484375
ell 66, elapsed: 0.0004589557647705078
ell 65, elapsed: 0.0003750324249267578
ell 64, elapsed: 0.0004601478576660156
ell 63, elapsed: 0.00037384033203125
ell 62, elapsed: 0.0004839897155761719
ell 61, elapsed: 0.0003731250762939453
ell 60, elapsed: 0.0004649162292480469
ell 59, elapsed: 0.00037288665771484375
ell 58, elapsed: 0.0004611015319824219
ell 57, elapsed: 0.00037384033203125
ell 56, elapsed: 0.0004611015319824219
ell 55, elapsed: 0.00037288665771484375
ell 54, elapsed: 0.0004870891571044922
ell 53, elapsed: 0.00037598609924316406
ell 52, elapsed: 0.0004661083221435547
ell 51, elapsed: 0.00037217140197753906
ell 50, elapsed: 0.00045990943908691406
ell 49, elapsed: 0.0004661083221435547
ell 48, elapsed: 0.0004630088806152344
ell 47, elapsed: 0.0003731250762939453
ell 46, elapsed: 0.0005040168762207031
ell 45, elapsed: 0.0003838539123535156
ell 44, elapsed: 0.00047206878662109375
ell 43, elapsed: 0.0003781318664550781
ell 42, elapsed: 0.00047206878662109375
ell 41, elapsed: 0.0003819465637207031
ell 40, elapsed: 0.00047206878662109375
ell 39, elapsed: 0.00037598609924316406
ell 38, elapsed: 0.00047707557678222656
ell 37, elapsed: 0.0003750324249267578
ell 36, elapsed: 0.00045800209045410156
ell 35, elapsed: 0.00037097930908203125
ell 34, elapsed: 0.00045800209045410156
ell 33, elapsed: 0.00037097930908203125
ell 32, elapsed: 0.0004589557647705078
ell 31, elapsed: 0.0004069805145263672
ell 30, elapsed: 0.0004589557647705078
ell 29, elapsed: 0.0004658699035644531
ell 28, elapsed: 0.00047397613525390625
ell 27, elapsed: 0.00037789344787597656
ell 26, elapsed: 0.00046896934509277344
ell 25, elapsed: 0.0003769397735595703
ell 24, elapsed: 0.0004608631134033203
ell 23, elapsed: 0.00037407875061035156
ell 22, elapsed: 0.0004699230194091797
ell 21, elapsed: 0.0004000663757324219
ell 20, elapsed: 0.0004570484161376953
ell 19, elapsed: 0.0005471706390380859
ell 18, elapsed: 0.0005199909210205078
ell 17, elapsed: 0.0003838539123535156
ell 16, elapsed: 0.0004601478576660156
ell 15, elapsed: 0.00035500526428222656
ell 14, elapsed: 0.0005908012390136719
ell 13, elapsed: 0.00045108795166015625
ell 12, elapsed: 0.0005631446838378906
ell 11, elapsed: 0.0004830360412597656
ell 10, elapsed: 0.0004620552062988281
ell 9, elapsed: 0.0005340576171875
ell 8, elapsed: 0.0006270408630371094
ell 7, elapsed: 0.0003859996795654297
ell 6, elapsed: 0.0004749298095703125
ell 5, elapsed: 0.0003771781921386719
ell 4, elapsed: 0.0004620552062988281
ell 3, elapsed: 0.00037384033203125
ell 2, elapsed: 0.00045990943908691406
ell 1, elapsed: 0.00037598609924316406
ell 0, elapsed: 0.0004642009735107422
  0.172000 seconds (13.00 k allocations: 675.047 KiB)
elapsed: 0.0005419254302978516
step:          0.095473 sec (0 allocations: 0 byte, 0.0% gc time)
swapping:      0.00158 sec (0 allocations: 0 byte, 0.0% gc time)
calc_Mellell!: 0.001319 sec (0 allocations: 0 byte, 0.0% gc time)
  t0 :  0.000383 sec (0 allocations: 0 byte, 0.0% gc time)
  tm2 : 0.01238 sec (0 allocations: 0 byte, 0.0% gc time)
  tm2s: 0.000337 sec (0 allocations: 0 byte, 0.0% gc time)
  tm4 : 0.032425 sec (0 allocations: 0 byte, 0.0% gc time)
  tp2 : 0.0 sec (0 allocations: 0 byte, 0.0% gc time)
  tp2s: 0.0 sec (0 allocations: 0 byte, 0.0% gc time)
  tp4 : 0.0 sec (0 allocations: 0 byte, 0.0% gc time)
calc_wtdll!:   0.046175 sec (1.344 k allocations: 147.0 KB, 0.0% gc time)
calc_wljj!:    0.004213 sec (6 allocations: 96 byte, 0.0% gc time)
mult_prefac!:  0.0 sec (0 allocations: 0 byte, 0.0% gc time)
convert:       0.0 sec (0 allocations: 0 byte, 0.0% gc time)
write:         0.005532 sec (0 allocations: 0 byte, 0.0% gc time)
test_rand_2f1: 0.0 sec (0 allocations: 0 byte, 0.0% gc time)
Closing outfile out/Ml21-cache.bin...   0.004085 seconds
  0.000419 seconds (52 allocations: 28.297 KiB)
make_phi():   0.002814 seconds (8.20 k allocations: 238.016 KiB)
  0.017900 seconds (12.10 k allocations: 322.000 KiB)
tskip:       2.5e-5 sec (0 allocations: 0 byte, 0.0% gc time)
tread:       0.002593 sec (20 allocations: 2.188 KB, 0.0% gc time)
tmultphi:    0.001269 sec (0 allocations: 0 byte, 0.0% gc time)
tbrfft:      0.004375 sec (896 allocations: 42.0 KB, 0.0% gc time)
tmultprefac: 0.003003 sec (0 allocations: 0 byte, 0.0% gc time)
toutfunc:    0.006601 sec (10.528 k allocations: 206.5 KB, 0.0% gc time)
Testing R=0.9 ... passed
Calculating fmax: 
  dlrec    = 4
  dlrecRg1 = -4
  q=1.1, R=0.8:	  0.473572 seconds (145.59 k allocations: 68.095 MiB, 3.62% gc time)

  0.473837 seconds (145.66 k allocations: 68.127 MiB, 3.62% gc time)
ℓ = 1202
Δℓ = 4
ΔℓRg1 = -4
N = 1600
q = 1.1
kmin = 1.0e-5
kmax = 100000.00000000004
χ0 = 0.023029999999999995
RR = RR.tsv
ℓmax = ℓmax.bin
f21 = f21.bin
kmin = 1.0e-5
kmax = 100000.0
dlrec    = 4
dlrecRg1 = -4
Output size: 5741568 bytes = 0.005347251892089844 GiB
Output size: 51264 bytes = 4.774332046508789e-5 GiB
Reading 'out/F21EllCache'...   0.001098 seconds (271 allocations: 84.719 KiB)
ellmax: 1202
lmaxcache: 1202
fell[:,1,1] = Complex{Float64}[7.519068145690986e-120 - 1.8416405474382574e-135im, 7.541664537386155e-120 - 1.847175067190611e-135im]
ell 1202, elapsed: 2.193450927734375e-5
ell 1201, elapsed: 0.0003521442413330078
ell 1200, elapsed: 0.0003380775451660156
ell 1199, elapsed: 0.0003859996795654297
ell 1198, elapsed: 0.0003380775451660156
ell 1002, elapsed: 0.009706974029541016
ell 1001, elapsed: 0.0003609657287597656
ell 1000, elapsed: 0.0003368854522705078
ell 999, elapsed: 0.0003371238708496094
ell 998, elapsed: 0.0003349781036376953
ell 902, elapsed: 0.004879951477050781
ell 901, elapsed: 0.0003669261932373047
ell 900, elapsed: 0.0003399848937988281
ell 899, elapsed: 0.0003361701965332031
ell 898, elapsed: 0.0003349781036376953
ell 802, elapsed: 0.005072832107543945
ell 801, elapsed: 0.0003750324249267578
ell 800, elapsed: 0.00033092498779296875
ell 799, elapsed: 0.00033593177795410156
ell 798, elapsed: 0.00032806396484375
ell 702, elapsed: 0.005177021026611328
ell 701, elapsed: 0.0003600120544433594
ell 700, elapsed: 0.0003330707550048828
ell 699, elapsed: 0.0003330707550048828
ell 698, elapsed: 0.0006389617919921875
ell 602, elapsed: 0.005032777786254883
ell 601, elapsed: 0.0003459453582763672
ell 600, elapsed: 0.0003399848937988281
ell 599, elapsed: 0.0003330707550048828
ell 598, elapsed: 0.00032901763916015625
ell 502, elapsed: 0.005029916763305664
ell 501, elapsed: 0.0003540515899658203
ell 500, elapsed: 0.0003380775451660156
ell 499, elapsed: 0.00033211708068847656
ell 498, elapsed: 0.00032901763916015625
ell 402, elapsed: 0.005120038986206055
ell 401, elapsed: 0.00035500526428222656
ell 400, elapsed: 0.000331878662109375
ell 399, elapsed: 0.00045990943908691406
ell 398, elapsed: 0.00033402442932128906
ell 302, elapsed: 0.0049591064453125
ell 301, elapsed: 0.0003490447998046875
ell 300, elapsed: 0.00033092498779296875
ell 299, elapsed: 0.00046706199645996094
ell 298, elapsed: 0.000431060791015625
ell 202, elapsed: 0.0051310062408447266
ell 201, elapsed: 0.00034809112548828125
ell 200, elapsed: 0.0003299713134765625
ell 199, elapsed: 0.00033020973205566406
ell 198, elapsed: 0.0003299713134765625
ell 152, elapsed: 0.002646207809448242
ell 151, elapsed: 0.0003418922424316406
ell 150, elapsed: 0.00032806396484375
ell 149, elapsed: 0.0003287792205810547
ell 148, elapsed: 0.0003380775451660156
ell 127, elapsed: 0.0017361640930175781
ell 126, elapsed: 0.0003380775451660156
ell 125, elapsed: 0.00033402442932128906
ell 124, elapsed: 0.0003352165222167969
ell 123, elapsed: 0.00033402442932128906
ell 114, elapsed: 0.0008080005645751953
ell 113, elapsed: 0.0003349781036376953
ell 112, elapsed: 0.00033092498779296875
ell 111, elapsed: 0.0007159709930419922
ell 110, elapsed: 0.00033092498779296875
ell 102, elapsed: 0.0008459091186523438
ell 101, elapsed: 0.00033211708068847656
ell 100, elapsed: 0.00033402442932128906
ell 99, elapsed: 0.00033283233642578125
ell 98, elapsed: 0.0003299713134765625
ell 97, elapsed: 0.0003750324249267578
ell 96, elapsed: 0.0008170604705810547
ell 95, elapsed: 0.0003781318664550781
ell 94, elapsed: 0.00045299530029296875
ell 93, elapsed: 0.000370025634765625
ell 92, elapsed: 0.00045490264892578125
ell 91, elapsed: 0.0003669261932373047
ell 90, elapsed: 0.00045800209045410156
ell 89, elapsed: 0.0003681182861328125
ell 88, elapsed: 0.0004639625549316406
ell 87, elapsed: 0.0003719329833984375
ell 86, elapsed: 0.0004570484161376953
ell 85, elapsed: 0.0003750324249267578
ell 84, elapsed: 0.0004608631134033203
ell 83, elapsed: 0.0003771781921386719
ell 82, elapsed: 0.0004589557647705078
ell 81, elapsed: 0.0006849765777587891
ell 80, elapsed: 0.00046181678771972656
ell 79, elapsed: 0.0003647804260253906
ell 78, elapsed: 0.0004470348358154297
ell 77, elapsed: 0.0003681182861328125
ell 76, elapsed: 0.00045609474182128906
ell 75, elapsed: 0.00037288665771484375
ell 74, elapsed: 0.00045490264892578125
ell 73, elapsed: 0.0006999969482421875
ell 72, elapsed: 0.00045800209045410156
ell 71, elapsed: 0.00037288665771484375
ell 70, elapsed: 0.0004570484161376953
ell 69, elapsed: 0.0003781318664550781
ell 68, elapsed: 0.00045800209045410156
ell 67, elapsed: 0.000370025634765625
ell 66, elapsed: 0.0004520416259765625
ell 65, elapsed: 0.0007181167602539062
ell 64, elapsed: 0.0004639625549316406
ell 63, elapsed: 0.000370025634765625
ell 62, elapsed: 0.000453948974609375
ell 61, elapsed: 0.0003681182861328125
ell 60, elapsed: 0.000453948974609375
ell 59, elapsed: 0.000370025634765625
ell 58, elapsed: 0.0006959438323974609
ell 57, elapsed: 0.0003731250762939453
ell 56, elapsed: 0.00046706199645996094
ell 55, elapsed: 0.0003719329833984375
ell 54, elapsed: 0.00045680999755859375
ell 53, elapsed: 0.00036907196044921875
ell 52, elapsed: 0.00045299530029296875
ell 51, elapsed: 0.0003731250762939453
ell 50, elapsed: 0.0007159709930419922
ell 49, elapsed: 0.0003719329833984375
ell 48, elapsed: 0.0004639625549316406
ell 47, elapsed: 0.00037598609924316406
ell 46, elapsed: 0.00047397613525390625
ell 45, elapsed: 0.0003838539123535156
ell 44, elapsed: 0.00046896934509277344
ell 43, elapsed: 0.00038313865661621094
ell 42, elapsed: 0.000720977783203125
ell 41, elapsed: 0.0003731250762939453
ell 40, elapsed: 0.0004591941833496094
ell 39, elapsed: 0.00037407875061035156
ell 38, elapsed: 0.0004649162292480469
ell 37, elapsed: 0.0003719329833984375
ell 36, elapsed: 0.0004570484161376953
ell 35, elapsed: 0.00037097930908203125
ell 34, elapsed: 0.0008718967437744141
[...]
ell 782, elapsed: 0.0019910335540771484
ell 781, elapsed: 0.001035928726196289
ell 780, elapsed: 0.0010099411010742188
ell 779, elapsed: 0.0010349750518798828
ell 778, elapsed: 0.0011010169982910156
ell 772, elapsed: 0.0019309520721435547
ell 771, elapsed: 0.0009560585021972656
ell 770, elapsed: 0.0009520053863525391
ell 769, elapsed: 0.0010609626770019531
ell 768, elapsed: 0.0009558200836181641
ell 762, elapsed: 0.0018360614776611328
ell 761, elapsed: 0.0010409355163574219
ell 760, elapsed: 0.0009560585021972656
ell 759, elapsed: 0.0009491443634033203
ell 758, elapsed: 0.0009520053863525391
ell 752, elapsed: 0.00220489501953125
ell 751, elapsed: 0.0009670257568359375
ell 750, elapsed: 0.0009551048278808594
ell 749, elapsed: 0.0011539459228515625
ell 748, elapsed: 0.0009529590606689453
ell 742, elapsed: 0.0018191337585449219
ell 741, elapsed: 0.0010368824005126953
ell 740, elapsed: 0.0009610652923583984
ell 739, elapsed: 0.0009489059448242188
ell 738, elapsed: 0.0009551048278808594
ell 732, elapsed: 0.0019109249114990234
ell 731, elapsed: 0.0009570121765136719
ell 730, elapsed: 0.0009551048278808594
ell 729, elapsed: 0.0010340213775634766
ell 728, elapsed: 0.0009500980377197266
ell 722, elapsed: 0.001837015151977539
ell 721, elapsed: 0.0010399818420410156
ell 720, elapsed: 0.0009570121765136719
ell 719, elapsed: 0.0009539127349853516
ell 718, elapsed: 0.0010559558868408203
ell 712, elapsed: 0.0018551349639892578
ell 711, elapsed: 0.0009579658508300781
ell 710, elapsed: 0.0010330677032470703
ell 709, elapsed: 0.0009720325469970703
ell 708, elapsed: 0.0009591579437255859
ell 702, elapsed: 0.0015289783477783203
ell 701, elapsed: 0.0009200572967529297
ell 700, elapsed: 0.0007870197296142578
ell 699, elapsed: 0.0007810592651367188
ell 698, elapsed: 0.0007770061492919922
ell 692, elapsed: 0.0016400814056396484
ell 691, elapsed: 0.0007879734039306641
ell 690, elapsed: 0.0007929801940917969
ell 689, elapsed: 0.0007569789886474609
ell 688, elapsed: 0.0008788108825683594
ell 682, elapsed: 0.0015521049499511719
ell 681, elapsed: 0.0007491111755371094
ell 680, elapsed: 0.0009019374847412109
ell 679, elapsed: 0.0011551380157470703
ell 678, elapsed: 0.0009799003601074219
ell 672, elapsed: 0.0019850730895996094
ell 671, elapsed: 0.0009219646453857422
ell 670, elapsed: 0.0007641315460205078
ell 669, elapsed: 0.0007660388946533203
ell 668, elapsed: 0.0007669925689697266
ell 662, elapsed: 0.0015251636505126953
ell 661, elapsed: 0.0007708072662353516
ell 660, elapsed: 0.0007660388946533203
ell 659, elapsed: 0.0007619857788085938
ell 658, elapsed: 0.0008080005645751953
ell 652, elapsed: 0.0014929771423339844
ell 651, elapsed: 0.0007650852203369141
ell 650, elapsed: 0.000762939453125
ell 649, elapsed: 0.0008070468902587891
ell 648, elapsed: 0.0007660388946533203
ell 642, elapsed: 0.0014848709106445312
ell 641, elapsed: 0.0007750988006591797
ell 640, elapsed: 0.0008039474487304688
ell 639, elapsed: 0.0007679462432861328
ell 638, elapsed: 0.0007739067077636719
ell 632, elapsed: 0.0014982223510742188
ell 631, elapsed: 0.0009679794311523438
ell 630, elapsed: 0.0009770393371582031
ell 629, elapsed: 0.0009539127349853516
ell 628, elapsed: 0.0009839534759521484
ell 622, elapsed: 0.0018229484558105469
ell 621, elapsed: 0.0009601116180419922
ell 620, elapsed: 0.000982046127319336
ell 619, elapsed: 0.0009520053863525391
ell 618, elapsed: 0.0009570121765136719
ell 612, elapsed: 0.0018880367279052734
ell 611, elapsed: 0.0009629726409912109
ell 610, elapsed: 0.0009531974792480469
ell 609, elapsed: 0.0009510517120361328
ell 608, elapsed: 0.0009829998016357422
ell 602, elapsed: 0.0018529891967773438
ell 601, elapsed: 0.0009539127349853516
ell 600, elapsed: 0.0009958744049072266
ell 599, elapsed: 0.0009760856628417969
ell 598, elapsed: 0.0009758472442626953
ell 592, elapsed: 0.001873016357421875
ell 591, elapsed: 0.0009760856628417969
ell 590, elapsed: 0.0009770393371582031
ell 589, elapsed: 0.0009741783142089844
ell 588, elapsed: 0.0009889602661132812
ell 582, elapsed: 0.0017590522766113281
ell 581, elapsed: 0.0007758140563964844
ell 580, elapsed: 0.0007898807525634766
ell 579, elapsed: 0.0007669925689697266
ell 578, elapsed: 0.0007638931274414062
ell 572, elapsed: 0.001461029052734375
ell 571, elapsed: 0.0007889270782470703
ell 570, elapsed: 0.0007638931274414062
ell 569, elapsed: 0.0007619857788085938
ell 568, elapsed: 0.0007610321044921875
ell 562, elapsed: 0.0014989376068115234
ell 561, elapsed: 0.0007739067077636719
ell 560, elapsed: 0.0007679462432861328
ell 559, elapsed: 0.0007619857788085938
ell 558, elapsed: 0.000762939453125
ell 552, elapsed: 0.0015020370483398438
ell 551, elapsed: 0.0007681846618652344
ell 550, elapsed: 0.0007648468017578125
ell 549, elapsed: 0.0007569789886474609
ell 548, elapsed: 0.0008339881896972656
ell 542, elapsed: 0.0014729499816894531
ell 541, elapsed: 0.0007638931274414062
ell 540, elapsed: 0.0007660388946533203
ell 539, elapsed: 0.0008411407470703125
ell 538, elapsed: 0.0008609294891357422
ell 532, elapsed: 0.0018329620361328125
ell 531, elapsed: 0.0009758472442626953
ell 530, elapsed: 0.0009701251983642578
ell 529, elapsed: 0.0009648799896240234
ell 528, elapsed: 0.0009570121765136719
ell 522, elapsed: 0.0018489360809326172
ell 521, elapsed: 0.0009570121765136719
ell 520, elapsed: 0.0009517669677734375
ell 519, elapsed: 0.0009641647338867188
ell 518, elapsed: 0.0009500980377197266
ell 512, elapsed: 0.0018298625946044922
ell 511, elapsed: 0.0009770393371582031
ell 510, elapsed: 0.0009520053863525391
ell 509, elapsed: 0.0009469985961914062
ell 508, elapsed: 0.0009510517120361328
ell 502, elapsed: 0.001837015151977539
ell 501, elapsed: 0.0009541511535644531
ell 500, elapsed: 0.000949859619140625
ell 499, elapsed: 0.00096893310546875
ell 498, elapsed: 0.0009491443634033203
ell 492, elapsed: 0.0018439292907714844
ell 491, elapsed: 0.0009779930114746094
ell 490, elapsed: 0.0012061595916748047
ell 489, elapsed: 0.0009510517120361328
ell 488, elapsed: 0.0009539127349853516
ell 482, elapsed: 0.0018680095672607422
ell 481, elapsed: 0.0009629726409912109
ell 480, elapsed: 0.0009529590606689453
ell 479, elapsed: 0.0009770393371582031
ell 478, elapsed: 0.0009729862213134766
ell 472, elapsed: 0.00185394287109375
ell 471, elapsed: 0.00098419189453125
ell 470, elapsed: 0.0011518001556396484
ell 469, elapsed: 0.0013010501861572266
ell 468, elapsed: 0.0014209747314453125
ell 462, elapsed: 0.0023720264434814453
ell 461, elapsed: 0.0009481906890869141
ell 460, elapsed: 0.0007700920104980469
ell 459, elapsed: 0.0013141632080078125
ell 458, elapsed: 0.0016911029815673828
ell 452, elapsed: 0.002710103988647461
ell 451, elapsed: 0.002065896987915039
ell 450, elapsed: 0.0013229846954345703
ell 449, elapsed: 0.0019757747650146484
ell 448, elapsed: 0.0012860298156738281
ell 442, elapsed: 0.0031549930572509766
ell 441, elapsed: 0.0012938976287841797
ell 440, elapsed: 0.001967906951904297
ell 439, elapsed: 0.0012569427490234375
ell 438, elapsed: 0.001959085464477539
ell 432, elapsed: 0.002413034439086914
ell 431, elapsed: 0.0019359588623046875
ell 430, elapsed: 0.0012578964233398438
ell 429, elapsed: 0.0019450187683105469
ell 428, elapsed: 0.0012519359588623047
ell 422, elapsed: 0.003136157989501953
ell 421, elapsed: 0.0012810230255126953
ell 420, elapsed: 0.0019888877868652344
ell 419, elapsed: 0.0012600421905517578
ell 418, elapsed: 0.0019500255584716797
ell 412, elapsed: 0.0021657943725585938
ell 411, elapsed: 0.002019166946411133
ell 410, elapsed: 0.0012478828430175781
ell 409, elapsed: 0.0019309520721435547
ell 408, elapsed: 0.0012519359588623047
ell 402, elapsed: 0.0025959014892578125
ell 401, elapsed: 0.0007719993591308594
ell 400, elapsed: 0.0007619857788085938
ell 399, elapsed: 0.002062082290649414
ell 398, elapsed: 0.0013759136199951172
ell 392, elapsed: 0.003406047821044922
ell 391, elapsed: 0.0012860298156738281
ell 390, elapsed: 0.0014259815216064453
ell 389, elapsed: 0.0007688999176025391
ell 388, elapsed: 0.0007619857788085938
ell 382, elapsed: 0.0014688968658447266
ell 381, elapsed: 0.002106189727783203
ell 380, elapsed: 0.0013599395751953125
ell 379, elapsed: 0.002043008804321289
ell 378, elapsed: 0.0013599395751953125
ell 372, elapsed: 0.0021479129791259766
ell 371, elapsed: 0.0009660720825195312
ell 370, elapsed: 0.0009632110595703125
ell 369, elapsed: 0.0010259151458740234
ell 368, elapsed: 0.0009570121765136719
ell 362, elapsed: 0.0018360614776611328
ell 361, elapsed: 0.0009739398956298828
ell 360, elapsed: 0.0009579658508300781
ell 359, elapsed: 0.0009531974792480469
ell 358, elapsed: 0.0009558200836181641
ell 352, elapsed: 0.0018780231475830078
ell 351, elapsed: 0.0009670257568359375
ell 350, elapsed: 0.0009610652923583984
ell 349, elapsed: 0.0009720325469970703
ell 348, elapsed: 0.0009579658508300781
ell 342, elapsed: 0.001834869384765625
ell 341, elapsed: 0.0024538040161132812
ell 340, elapsed: 0.0009582042694091797
ell 339, elapsed: 0.0009679794311523438
ell 338, elapsed: 0.0009510517120361328
ell 332, elapsed: 0.0018420219421386719
ell 331, elapsed: 0.0009720325469970703
ell 330, elapsed: 0.0009560585021972656
ell 329, elapsed: 0.0009560585021972656
ell 328, elapsed: 0.0009551048278808594
ell 322, elapsed: 0.0018498897552490234
ell 321, elapsed: 0.0009610652923583984
ell 320, elapsed: 0.0009529590606689453
ell 319, elapsed: 0.000988006591796875
ell 318, elapsed: 0.0009520053863525391
ell 312, elapsed: 0.0018548965454101562
ell 311, elapsed: 0.0007469654083251953
ell 310, elapsed: 0.0007619857788085938
ell 309, elapsed: 0.0007600784301757812
ell 308, elapsed: 0.0007579326629638672
ell 302, elapsed: 0.0015039443969726562
ell 301, elapsed: 0.0007631778717041016
ell 300, elapsed: 0.0007929801940917969
ell 299, elapsed: 0.000946044921875
ell 298, elapsed: 0.000946044921875
ell 292, elapsed: 0.0018339157104492188
ell 291, elapsed: 0.0009629726409912109
ell 290, elapsed: 0.0009570121765136719
ell 289, elapsed: 0.0009710788726806641
ell 288, elapsed: 0.0009510517120361328
ell 282, elapsed: 0.0018260478973388672
ell 281, elapsed: 0.0009701251983642578
ell 280, elapsed: 0.0009582042694091797
ell 279, elapsed: 0.0009520053863525391
ell 278, elapsed: 0.0009579658508300781
ell 272, elapsed: 0.001850128173828125
ell 271, elapsed: 0.0009570121765136719
ell 270, elapsed: 0.0009589195251464844
ell 269, elapsed: 0.0010809898376464844
ell 268, elapsed: 0.0009748935699462891
ell 262, elapsed: 0.0016489028930664062
ell 261, elapsed: 0.0007801055908203125
ell 260, elapsed: 0.0007610321044921875
ell 259, elapsed: 0.0007560253143310547
ell 258, elapsed: 0.0007588863372802734
ell 252, elapsed: 0.001569986343383789
ell 251, elapsed: 0.00096893310546875
ell 250, elapsed: 0.0009670257568359375
ell 249, elapsed: 0.0009551048278808594
ell 248, elapsed: 0.001088857650756836
ell 242, elapsed: 0.0014541149139404297
ell 241, elapsed: 0.0007581710815429688
ell 240, elapsed: 0.0008301734924316406
ell 239, elapsed: 0.0007560253143310547
ell 238, elapsed: 0.0007550716400146484
ell 232, elapsed: 0.0014660358428955078
ell 231, elapsed: 0.001016855239868164
ell 230, elapsed: 0.0009529590606689453
ell 229, elapsed: 0.0009438991546630859
ell 228, elapsed: 0.0009560585021972656
ell 222, elapsed: 0.001875162124633789
ell 221, elapsed: 0.0009610652923583984
ell 220, elapsed: 0.0009558200836181641
ell 219, elapsed: 0.0010731220245361328
ell 218, elapsed: 0.0008099079132080078
ell 212, elapsed: 0.0014529228210449219
ell 211, elapsed: 0.0007631778717041016
ell 210, elapsed: 0.0007698535919189453
ell 209, elapsed: 0.0007550716400146484
ell 208, elapsed: 0.0007569789886474609
ell 202, elapsed: 0.0014569759368896484
ell 201, elapsed: 0.0007810592651367188
ell 200, elapsed: 0.0007548332214355469
ell 199, elapsed: 0.0007572174072265625
ell 198, elapsed: 0.0007631778717041016
ell 192, elapsed: 0.0014889240264892578
ell 191, elapsed: 0.0007569789886474609
ell 190, elapsed: 0.0007572174072265625
ell 189, elapsed: 0.0007560253143310547
ell 188, elapsed: 0.0007572174072265625
ell 182, elapsed: 0.0018398761749267578
ell 181, elapsed: 0.0009629726409912109
ell 180, elapsed: 0.0009589195251464844
ell 179, elapsed: 0.0009710788726806641
ell 178, elapsed: 0.0009570121765136719
ell 172, elapsed: 0.0018360614776611328
ell 171, elapsed: 0.0009741783142089844
ell 170, elapsed: 0.0009620189666748047
ell 169, elapsed: 0.0009570121765136719
ell 168, elapsed: 0.0009579658508300781
ell 162, elapsed: 0.0018601417541503906
ell 161, elapsed: 0.0009641647338867188
ell 160, elapsed: 0.0009539127349853516
ell 159, elapsed: 0.0007879734039306641
ell 158, elapsed: 0.0009610652923583984
ell 152, elapsed: 0.001859903335571289
ell 151, elapsed: 0.0009610652923583984
ell 150, elapsed: 0.0009539127349853516
ell 149, elapsed: 0.0009620189666748047
ell 148, elapsed: 0.0009620189666748047
ell 142, elapsed: 0.0018739700317382812
ell 141, elapsed: 0.0009710788726806641
ell 140, elapsed: 0.0009601116180419922
ell 139, elapsed: 0.0009610652923583984
ell 138, elapsed: 0.0009648799896240234
ell 132, elapsed: 0.0018639564514160156
ell 131, elapsed: 0.0009808540344238281
ell 130, elapsed: 0.0009648799896240234
ell 129, elapsed: 0.0009639263153076172
ell 128, elapsed: 0.0009670257568359375
ell 122, elapsed: 0.0017049312591552734
ell 121, elapsed: 0.0007660388946533203
ell 120, elapsed: 0.0007648468017578125
ell 119, elapsed: 0.0007817745208740234
ell 118, elapsed: 0.0007619857788085938
ell 112, elapsed: 0.001466989517211914
ell 111, elapsed: 0.0007641315460205078
ell 110, elapsed: 0.0007860660552978516
ell 109, elapsed: 0.0007660388946533203
ell 108, elapsed: 0.0007698535919189453
ell 102, elapsed: 0.0014560222625732422
ell 101, elapsed: 0.002869844436645508
ell 100, elapsed: 0.0028600692749023438
ell 99, elapsed: 0.0028619766235351562
ell 98, elapsed: 0.0035009384155273438
ell 92, elapsed: 0.006762027740478516
ell 91, elapsed: 0.003634214401245117
ell 90, elapsed: 0.0036177635192871094
ell 89, elapsed: 0.003565073013305664
ell 88, elapsed: 0.0029151439666748047
ell 82, elapsed: 0.0064830780029296875
ell 81, elapsed: 0.0036230087280273438
ell 80, elapsed: 0.0030231475830078125
ell 79, elapsed: 0.0029799938201904297
ell 78, elapsed: 0.003348112106323242
ell 72, elapsed: 0.0067021846771240234
ell 71, elapsed: 0.003332853317260742
ell 70, elapsed: 0.0033109188079833984
ell 69, elapsed: 0.003019094467163086
ell 68, elapsed: 0.0034589767456054688
ell 62, elapsed: 0.0064618587493896484
ell 61, elapsed: 0.003323078155517578
ell 60, elapsed: 0.003287076950073242
ell 59, elapsed: 0.0033659934997558594
ell 58, elapsed: 0.003378152847290039
ell 52, elapsed: 0.007475852966308594
ell 51, elapsed: 0.003119945526123047
ell 50, elapsed: 0.0038819313049316406
ell 49, elapsed: 0.003937959671020508
ell 48, elapsed: 0.003632068634033203
ell 42, elapsed: 0.006982088088989258
ell 41, elapsed: 0.0036368370056152344
ell 40, elapsed: 0.003873109817504883
ell 39, elapsed: 0.004026889801025391
ell 38, elapsed: 0.0036170482635498047
ell 32, elapsed: 0.006942033767700195
ell 31, elapsed: 0.0036067962646484375
ell 30, elapsed: 0.003358125686645508
ell 29, elapsed: 0.003423929214477539
ell 28, elapsed: 0.00392603874206543
ell 22, elapsed: 0.012604951858520508
ell 21, elapsed: 0.003715991973876953
ell 20, elapsed: 0.003762960433959961
ell 19, elapsed: 0.0034270286560058594
ell 18, elapsed: 0.004381895065307617
ell 12, elapsed: 0.008117914199829102
ell 11, elapsed: 0.004400014877319336
ell 10, elapsed: 0.0030319690704345703
ell 9, elapsed: 0.003464221954345703
ell 8, elapsed: 0.0035719871520996094
  0.885012 seconds (73.91 k allocations: 12.047 MiB, 0.74% gc time)
elapsed: 0.004175901412963867
step:          0.079697 sec (0 allocations: 0 byte, 0.0% gc time)
swapping:      0.00087 sec (0 allocations: 0 byte, 0.0% gc time)
calc_Mellell!: 0.041209 sec (0 allocations: 0 byte, 0.0% gc time)
  t0 :  0.011037 sec (0 allocations: 0 byte, 0.0% gc time)
  tm2 : 0.080332 sec (0 allocations: 0 byte, 0.0% gc time)
  tm2s: 0.009783 sec (0 allocations: 0 byte, 0.0% gc time)
  tm4 : 0.212825 sec (0 allocations: 0 byte, 0.0% gc time)
  tp2 : 0.0 sec (0 allocations: 0 byte, 0.0% gc time)
  tp2s: 0.0 sec (0 allocations: 0 byte, 0.0% gc time)
  tp4 : 0.0 sec (0 allocations: 0 byte, 0.0% gc time)
calc_wtdll!:   0.606612 sec (49.2 k allocations: 11.133 MB, 1.08% gc time)
calc_wljj!:    0.042513 sec (69 allocations: 1.078 KB, 0.0% gc time)
mult_prefac!:  0.0 sec (0 allocations: 0 byte, 0.0% gc time)
convert:       0.0 sec (0 allocations: 0 byte, 0.0% gc time)
write:         0.041337 sec (0 allocations: 0 byte, 0.0% gc time)
test_rand_2f1: 0.0 sec (0 allocations: 0 byte, 0.0% gc time)
Closing outfile out/MlCache/MlCache.bin...   0.000011 seconds
xi, l=0, nu=0:   0.390574 seconds (555.95 k allocations: 27.067 MiB, 3.72% gc time)
xi, l=0, nu=-2:  0.002837 seconds (144 allocations: 149.563 KiB)
Created 'out/xi.tsv'.
  q=1.1, R=0.6:	  1.190442 seconds (373.06 k allocations: 174.511 MiB, 2.57% gc time)
  q=1.1, R=0.7:	  1.157408 seconds (391.29 k allocations: 182.916 MiB, 1.66% gc time)
  q=1.1, R=0.8:	  1.409486 seconds (383.81 k allocations: 179.466 MiB, 1.50% gc time)
  q=1.1, R=0.9:	  1.346933 seconds (376.40 k allocations: 176.056 MiB, 1.56% gc time)
  q=1.1, R=0.998:	 22.998208 seconds (10.67 M allocations: 831.832 MiB, 0.52% gc time)
  q=1.1, R=1.0:	  0.042569 seconds (12.29 k allocations: 9.129 MiB)

ℓ = 1000
Δℓ = 4
ΔℓRg1 = -4
N = 4096
q = 1.1
kmin = 1.0e-5
kmax = 1000.0
χ0 = 0.001
RR = RR.tsv
ℓmax = ℓmax.bin
f21 = f21.bin
kmin = 1.0e-5
kmax = 1000.0
dlrec    = 4
dlrecRg1 = -4
Output size: 1573632 bytes = 0.0014655590057373047 GiB
Output size: 786816 bytes = 0.0007327795028686523 GiB
Reading 'out/F21EllCache'...   0.001853 seconds (272 allocations: 533.594 KiB)
ellmax: 1002
lmaxcache: 1000
fell[:,1,1] = Complex{Float64}[1.7262928128202118e-224 - 4.2281979352226944e-240im, 1.7282693092099662e-224 - 4.233038955177176e-240im]
ell 1002, elapsed: 0.00018405914306640625
ell 1001, elapsed: 0.0015399456024169922
ell 1000, elapsed: 0.0013518333435058594
ell 999, elapsed: 0.006042003631591797
ell 998, elapsed: 0.005608081817626953
ell 44, elapsed: 0.6624062061309814
ell 43, elapsed: 0.005162954330444336
ell 42, elapsed: 0.005187034606933594
ell 41, elapsed: 0.005056142807006836
ell 40, elapsed: 0.005326032638549805
  0.710605 seconds (4.65 k allocations: 317.969 KiB)
elapsed: 0.0076100826263427734
step:          0.658486 sec (0 allocations: 0 byte, 0.0% gc time)
swapping:      0.000666 sec (0 allocations: 0 byte, 0.0% gc time)
calc_Mellell!: 0.001348 sec (0 allocations: 0 byte, 0.0% gc time)
  t0 :  0.000807 sec (0 allocations: 0 byte, 0.0% gc time)
  tm2 : 0.008915 sec (0 allocations: 0 byte, 0.0% gc time)
  tm2s: 0.000709 sec (0 allocations: 0 byte, 0.0% gc time)
  tm4 : 0.025021 sec (0 allocations: 0 byte, 0.0% gc time)
  tp2 : 0.0 sec (0 allocations: 0 byte, 0.0% gc time)
  tp2s: 0.0 sec (0 allocations: 0 byte, 0.0% gc time)
  tp4 : 0.0 sec (0 allocations: 0 byte, 0.0% gc time)
calc_wtdll!:   0.035701 sec (480 allocations: 52.5 KB, 0.0% gc time)
calc_wljj!:    0.00164 sec (1 allocations: 16 byte, 0.0% gc time)
mult_prefac!:  0.0 sec (0 allocations: 0 byte, 0.0% gc time)
convert:       0.0 sec (0 allocations: 0 byte, 0.0% gc time)
write:         0.001027 sec (0 allocations: 0 byte, 0.0% gc time)
test_rand_2f1: 0.0 sec (0 allocations: 0 byte, 0.0% gc time)
Closing outfile out/MlCache/MlCache.bin...   0.002278 seconds
  0.485847 seconds (54 allocations: 67.203 KiB)
make_phi():   0.009919 seconds (80 allocations: 276.297 KiB)
  0.003489 seconds (108 allocations: 5.813 KiB)
tskip:       1.0e-6 sec (0 allocations: 0 byte, 0.0% gc time)
tread:       0.000676 sec (20 allocations: 1.328 KB, 0.0% gc time)
tmultphi:    0.000337 sec (0 allocations: 0 byte, 0.0% gc time)
tbrfft:      0.001197 sec (96 allocations: 4.5 KB, 0.0% gc time)
tmultprefac: 0.001116 sec (0 allocations: 0 byte, 0.0% gc time)
toutfunc:    0.000287 sec (0 allocations: 0 byte, 0.0% gc time)
Created 'out/wl42_jj00.tsv'.
Created 'out/wl42_jj02.tsv'.
   Testing TwoFAST tests passed 
